MODEL 1
REMARK VINA RESULT:      -8.9      0.000      0.000
REMARK  Name = 
REMARK  8 active torsions:
REMARK  status: ('A' for Active; 'I' for Inactive)
REMARK    1  A    between atoms: C_1  and  C_2
REMARK    2  A    between atoms: C_2  and  C_3
REMARK    3  A    between atoms: C_3  and  C_4
REMARK    4  A    between atoms: C_9  and  C_10
REMARK    5  A    between atoms: C_14  and  O_15
REMARK    6  A    between atoms: N_19  and  C_20
REMARK    7  A    between atoms: C_20  and  C_21
REMARK    8  A    between atoms: C_21  and  C_22
REMARK                            x       y       z     vdW  Elec       q    Type
REMARK                         _______ _______ _______ _____ _____    ______ ____
ROOT
ATOM      1  C   UNL     1       4.295   6.200  17.025  0.00  0.00    +0.000 C 
ATOM      2  C   UNL     1       5.584   6.512  16.211  0.00  0.00    +0.000 C 
ATOM      3  C   UNL     1       5.783   5.401  15.165  0.00  0.00    +0.000 C 
ATOM      4  C   UNL     1       5.758   3.979  15.716  0.00  0.00    +0.000 C 
ATOM      5  C   UNL     1       4.783   3.733  16.868  0.00  0.00    +0.000 C 
ATOM      6  C   UNL     1       4.551   4.911  17.877  0.00  0.00    +0.000 C 
ATOM      7  C   UNL     1       5.814   5.151  18.746  0.00  0.00    +0.000 C 
ATOM      8  C   UNL     1       7.054   5.720  18.064  0.00  0.00    +0.000 C 
ATOM      9  N   UNL     1       6.822   6.649  16.977  0.00  0.00    +0.000 NA
ENDROOT
BRANCH   6  10
ATOM     10  C   UNL     1       3.340   4.487  18.767  0.00  0.00    +0.000 A 
ATOM     11  C   UNL     1       3.175   5.024  20.061  0.00  0.00    +0.000 A 
ATOM     12  C   UNL     1       2.046   4.730  20.838  0.00  0.00    +0.000 A 
ATOM     13  C   UNL     1       1.064   3.866  20.359  0.00  0.00    +0.000 A 
ATOM     14  C   UNL     1       1.227   3.298  19.106  0.00  0.00    +0.000 A 
ATOM     15  C   UNL     1       2.331   3.609  18.316  0.00  0.00    +0.000 A 
BRANCH  14  16
ATOM     16  O   UNL     1       0.295   2.446  18.587  0.00  0.00    +0.000 OA
ATOM     17  H   UNL     1       0.750   1.775  18.055  0.00  0.00    +0.000 HD
ENDBRANCH  14  16
ENDBRANCH   6  10
BRANCH   1  18
ATOM     18  C   UNL     1       3.757   7.425  17.803  0.00  0.00    +0.000 C 
BRANCH  18  20
ATOM     19  C   UNL     1       1.804   9.063  17.840  0.00  0.00    +0.000 C 
ATOM     20  C   UNL     1       2.253   7.638  17.554  0.00  0.00    +0.000 C 
ENDBRANCH  18  20
ENDBRANCH   1  18
BRANCH   9  21
ATOM     21  C   UNL     1       7.394   7.990  17.118  0.00  0.00    +0.000 C 
BRANCH  21  22
ATOM     22  C   UNL     1       8.207   8.170  18.426  0.00  0.00    +0.000 C 
BRANCH  22  23
ATOM     23  C   UNL     1       8.690   9.593  18.613  0.00  0.00    +0.000 A 
ATOM     24  C   UNL     1       9.446   9.952  19.737  0.00  0.00    +0.000 A 
ATOM     25  C   UNL     1       9.846  11.276  19.931  0.00  0.00    +0.000 A 
ATOM     26  C   UNL     1       9.498  12.255  19.002  0.00  0.00    +0.000 A 
ATOM     27  C   UNL     1       8.763  11.906  17.870  0.00  0.00    +0.000 A 
ATOM     28  C   UNL     1       8.364  10.583  17.675  0.00  0.00    +0.000 A 
ENDBRANCH  22  23
ENDBRANCH  21  22
ENDBRANCH   9  21
TORSDOF 7
ENDMDL
MODEL 2
REMARK VINA RESULT:      -8.9      0.972      1.304
REMARK  Name = 
REMARK  8 active torsions:
REMARK  status: ('A' for Active; 'I' for Inactive)
REMARK    1  A    between atoms: C_1  and  C_2
REMARK    2  A    between atoms: C_2  and  C_3
REMARK    3  A    between atoms: C_3  and  C_4
REMARK    4  A    between atoms: C_9  and  C_10
REMARK    5  A    between atoms: C_14  and  O_15
REMARK    6  A    between atoms: N_19  and  C_20
REMARK    7  A    between atoms: C_20  and  C_21
REMARK    8  A    between atoms: C_21  and  C_22
REMARK                            x       y       z     vdW  Elec       q    Type
REMARK                         _______ _______ _______ _____ _____    ______ ____
ROOT
ATOM      1  C   UNL     1       3.879   6.186  17.271  0.00  0.00    +0.000 C 
ATOM      2  C   UNL     1       5.140   6.704  16.519  0.00  0.00    +0.000 C 
ATOM      3  C   UNL     1       5.440   5.747  15.351  0.00  0.00    +0.000 C 
ATOM      4  C   UNL     1       5.537   4.273  15.729  0.00  0.00    +0.000 C 
ATOM      5  C   UNL     1       4.583   3.807  16.830  0.00  0.00    +0.000 C 
ATOM      6  C   UNL     1       4.244   4.832  17.968  0.00  0.00    +0.000 C 
ATOM      7  C   UNL     1       5.477   5.075  18.878  0.00  0.00    +0.000 C 
ATOM      8  C   UNL     1       6.665   5.827  18.286  0.00  0.00    +0.000 C 
ATOM      9  N   UNL     1       6.357   6.855  17.314  0.00  0.00    +0.000 NA
ENDROOT
BRANCH   6  10
ATOM     10  C   UNL     1       3.072   4.201  18.784  0.00  0.00    +0.000 A 
ATOM     11  C   UNL     1       1.935   3.684  18.128  0.00  0.00    +0.000 A 
ATOM     12  C   UNL     1       0.916   3.029  18.835  0.00  0.00    +0.000 A 
ATOM     13  C   UNL     1       0.988   2.897  20.219  0.00  0.00    +0.000 A 
ATOM     14  C   UNL     1       2.078   3.432  20.886  0.00  0.00    +0.000 A 
ATOM     15  C   UNL     1       3.108   4.058  20.188  0.00  0.00    +0.000 A 
BRANCH  14  16
ATOM     16  O   UNL     1       2.201   3.331  22.242  0.00  0.00    +0.000 OA
ATOM     17  H   UNL     1       1.335   3.500  22.645  0.00  0.00    +0.000 HD
ENDBRANCH  14  16
ENDBRANCH   6  10
BRANCH   1  18
ATOM     18  C   UNL     1       3.233   7.258  18.181  0.00  0.00    +0.000 C 
BRANCH  18  20
ATOM     19  C   UNL     1       1.859   9.404  18.087  0.00  0.00    +0.000 C 
ATOM     20  C   UNL     1       2.158   8.065  17.430  0.00  0.00    +0.000 C 
ENDBRANCH  18  20
ENDBRANCH   1  18
BRANCH   9  21
ATOM     21  C   UNL     1       6.809   8.214  17.622  0.00  0.00    +0.000 C 
BRANCH  21  22
ATOM     22  C   UNL     1       8.262   8.266  18.159  0.00  0.00    +0.000 C 
BRANCH  22  23
ATOM     23  C   UNL     1       8.710   9.678  18.472  0.00  0.00    +0.000 A 
ATOM     24  C   UNL     1       9.380   9.968  19.669  0.00  0.00    +0.000 A 
ATOM     25  C   UNL     1       9.746  11.281  19.978  0.00  0.00    +0.000 A 
ATOM     26  C   UNL     1       9.450  12.316  19.093  0.00  0.00    +0.000 A 
ATOM     27  C   UNL     1       8.802  12.036  17.891  0.00  0.00    +0.000 A 
ATOM     28  C   UNL     1       8.438  10.725  17.581  0.00  0.00    +0.000 A 
ENDBRANCH  22  23
ENDBRANCH  21  22
ENDBRANCH   9  21
TORSDOF 7
ENDMDL
MODEL 3
REMARK VINA RESULT:      -8.7      0.561      1.075
REMARK  Name = 
REMARK  8 active torsions:
REMARK  status: ('A' for Active; 'I' for Inactive)
REMARK    1  A    between atoms: C_1  and  C_2
REMARK    2  A    between atoms: C_2  and  C_3
REMARK    3  A    between atoms: C_3  and  C_4
REMARK    4  A    between atoms: C_9  and  C_10
REMARK    5  A    between atoms: C_14  and  O_15
REMARK    6  A    between atoms: N_19  and  C_20
REMARK    7  A    between atoms: C_20  and  C_21
REMARK    8  A    between atoms: C_21  and  C_22
REMARK                            x       y       z     vdW  Elec       q    Type
REMARK                         _______ _______ _______ _____ _____    ______ ____
ROOT
ATOM      1  C   UNL     1       3.832   6.164  17.386  0.00  0.00    +0.000 C 
ATOM      2  C   UNL     1       5.045   6.737  16.599  0.00  0.00    +0.000 C 
ATOM      3  C   UNL     1       5.337   5.810  15.406  0.00  0.00    +0.000 C 
ATOM      4  C   UNL     1       5.499   4.335  15.756  0.00  0.00    +0.000 C 
ATOM      5  C   UNL     1       4.602   3.819  16.882  0.00  0.00    +0.000 C 
ATOM      6  C   UNL     1       4.268   4.814  18.048  0.00  0.00    +0.000 C 
ATOM      7  C   UNL     1       5.524   5.086  18.917  0.00  0.00    +0.000 C 
ATOM      8  C   UNL     1       6.663   5.889  18.296  0.00  0.00    +0.000 C 
ATOM      9  N   UNL     1       6.285   6.920  17.352  0.00  0.00    +0.000 NA
ENDROOT
BRANCH   6  10
ATOM     10  C   UNL     1       3.149   4.129  18.894  0.00  0.00    +0.000 A 
ATOM     11  C   UNL     1       3.025   4.396  20.274  0.00  0.00    +0.000 A 
ATOM     12  C   UNL     1       1.970   3.866  21.030  0.00  0.00    +0.000 A 
ATOM     13  C   UNL     1       1.026   3.031  20.440  0.00  0.00    +0.000 A 
ATOM     14  C   UNL     1       1.153   2.725  19.094  0.00  0.00    +0.000 A 
ATOM     15  C   UNL     1       2.180   3.271  18.329  0.00  0.00    +0.000 A 
BRANCH  14  16
ATOM     16  O   UNL     1       0.255   1.913  18.463  0.00  0.00    +0.000 OA
ATOM     17  H   UNL     1       0.352   1.013  18.812  0.00  0.00    +0.000 HD
ENDBRANCH  14  16
ENDBRANCH   6  10
BRANCH   1  18
ATOM     18  C   UNL     1       3.181   7.199  18.336  0.00  0.00    +0.000 C 
BRANCH  18  20
ATOM     19  C   UNL     1       1.997   9.409  17.873  0.00  0.00    +0.000 C 
ATOM     20  C   UNL     1       1.982   7.901  17.672  0.00  0.00    +0.000 C 
ENDBRANCH  18  20
ENDBRANCH   1  18
BRANCH   9  21
ATOM     21  C   UNL     1       6.699   8.289  17.667  0.00  0.00    +0.000 C 
BRANCH  21  22
ATOM     22  C   UNL     1       8.238   8.458  17.742  0.00  0.00    +0.000 C 
BRANCH  22  23
ATOM     23  C   UNL     1       8.643   9.809  18.290  0.00  0.00    +0.000 A 
ATOM     24  C   UNL     1       8.467  10.974  17.529  0.00  0.00    +0.000 A 
ATOM     25  C   UNL     1       8.889  12.213  18.018  0.00  0.00    +0.000 A 
ATOM     26  C   UNL     1       9.488  12.302  19.273  0.00  0.00    +0.000 A 
ATOM     27  C   UNL     1       9.650  11.154  20.047  0.00  0.00    +0.000 A 
ATOM     28  C   UNL     1       9.227   9.916  19.560  0.00  0.00    +0.000 A 
ENDBRANCH  22  23
ENDBRANCH  21  22
ENDBRANCH   9  21
TORSDOF 7
ENDMDL
MODEL 4
REMARK VINA RESULT:      -8.0      3.125      6.208
REMARK  Name = 
REMARK  8 active torsions:
REMARK  status: ('A' for Active; 'I' for Inactive)
REMARK    1  A    between atoms: C_1  and  C_2
REMARK    2  A    between atoms: C_2  and  C_3
REMARK    3  A    between atoms: C_3  and  C_4
REMARK    4  A    between atoms: C_9  and  C_10
REMARK    5  A    between atoms: C_14  and  O_15
REMARK    6  A    between atoms: N_19  and  C_20
REMARK    7  A    between atoms: C_20  and  C_21
REMARK    8  A    between atoms: C_21  and  C_22
REMARK                            x       y       z     vdW  Elec       q    Type
REMARK                         _______ _______ _______ _____ _____    ______ ____
ROOT
ATOM      1  C   UNL     1       5.294   3.986  17.600  0.00  0.00    +0.000 C 
ATOM      2  C   UNL     1       6.487   4.450  16.716  0.00  0.00    +0.000 C 
ATOM      3  C   UNL     1       7.717   4.652  17.619  0.00  0.00    +0.000 C 
ATOM      4  C   UNL     1       7.490   5.551  18.830  0.00  0.00    +0.000 C 
ATOM      5  C   UNL     1       6.110   5.447  19.483  0.00  0.00    +0.000 C 
ATOM      6  C   UNL     1       4.889   5.171  18.540  0.00  0.00    +0.000 C 
ATOM      7  C   UNL     1       4.585   6.408  17.653  0.00  0.00    +0.000 C 
ATOM      8  C   UNL     1       5.591   6.772  16.566  0.00  0.00    +0.000 C 
ATOM      9  N   UNL     1       6.285   5.669  15.934  0.00  0.00    +0.000 NA
ENDROOT
BRANCH   6  10
ATOM     10  C   UNL     1       3.681   4.854  19.478  0.00  0.00    +0.000 A 
ATOM     11  C   UNL     1       2.474   5.575  19.366  0.00  0.00    +0.000 A 
ATOM     12  C   UNL     1       1.348   5.243  20.132  0.00  0.00    +0.000 A 
ATOM     13  C   UNL     1       1.403   4.202  21.054  0.00  0.00    +0.000 A 
ATOM     14  C   UNL     1       2.592   3.506  21.207  0.00  0.00    +0.000 A 
ATOM     15  C   UNL     1       3.705   3.811  20.429  0.00  0.00    +0.000 A 
BRANCH  14  16
ATOM     16  O   UNL     1       2.701   2.476  22.096  0.00  0.00    +0.000 OA
ATOM     17  H   UNL     1       2.248   1.700  21.730  0.00  0.00    +0.000 HD
ENDBRANCH  14  16
ENDBRANCH   6  10
BRANCH   1  18
ATOM     18  C   UNL     1       4.143   3.352  16.783  0.00  0.00    +0.000 C 
BRANCH  18  20
ATOM     19  C   UNL     1       2.160   2.102  17.785  0.00  0.00    +0.000 C 
ATOM     20  C   UNL     1       3.639   2.049  17.431  0.00  0.00    +0.000 C 
ENDBRANCH  18  20
ENDBRANCH   1  18
BRANCH   9  21
ATOM     21  C   UNL     1       6.134   5.535  14.484  0.00  0.00    +0.000 C 
BRANCH  21  22
ATOM     22  C   UNL     1       6.955   4.361  13.891  0.00  0.00    +0.000 C 
BRANCH  22  23
ATOM     23  C   UNL     1       6.197   3.613  12.816  0.00  0.00    +0.000 A 
ATOM     24  C   UNL     1       4.862   3.931  12.527  0.00  0.00    +0.000 A 
ATOM     25  C   UNL     1       4.150   3.204  11.570  0.00  0.00    +0.000 A 
ATOM     26  C   UNL     1       4.765   2.155  10.889  0.00  0.00    +0.000 A 
ATOM     27  C   UNL     1       6.097   1.843  11.153  0.00  0.00    +0.000 A 
ATOM     28  C   UNL     1       6.810   2.570  12.108  0.00  0.00    +0.000 A 
ENDBRANCH  22  23
ENDBRANCH  21  22
ENDBRANCH   9  21
TORSDOF 7
ENDMDL
MODEL 5
REMARK VINA RESULT:      -8.0      1.069      1.213
REMARK  Name = 
REMARK  8 active torsions:
REMARK  status: ('A' for Active; 'I' for Inactive)
REMARK    1  A    between atoms: C_1  and  C_2
REMARK    2  A    between atoms: C_2  and  C_3
REMARK    3  A    between atoms: C_3  and  C_4
REMARK    4  A    between atoms: C_9  and  C_10
REMARK    5  A    between atoms: C_14  and  O_15
REMARK    6  A    between atoms: N_19  and  C_20
REMARK    7  A    between atoms: C_20  and  C_21
REMARK    8  A    between atoms: C_21  and  C_22
REMARK                            x       y       z     vdW  Elec       q    Type
REMARK                         _______ _______ _______ _____ _____    ______ ____
ROOT
ATOM      1  C   UNL     1       4.454   5.820  17.721  0.00  0.00    +0.000 C 
ATOM      2  C   UNL     1       5.669   6.385  16.931  0.00  0.00    +0.000 C 
ATOM      3  C   UNL     1       5.627   5.821  15.499  0.00  0.00    +0.000 C 
ATOM      4  C   UNL     1       5.509   4.304  15.403  0.00  0.00    +0.000 C 
ATOM      5  C   UNL     1       4.650   3.637  16.478  0.00  0.00    +0.000 C 
ATOM      6  C   UNL     1       4.663   4.279  17.909  0.00  0.00    +0.000 C 
ATOM      7  C   UNL     1       6.035   4.059  18.600  0.00  0.00    +0.000 C 
ATOM      8  C   UNL     1       7.244   4.803  18.043  0.00  0.00    +0.000 C 
ATOM      9  N   UNL     1       6.993   6.119  17.491  0.00  0.00    +0.000 NA
ENDROOT
BRANCH   6  10
ATOM     10  C   UNL     1       3.522   3.575  18.710  0.00  0.00    +0.000 A 
ATOM     11  C   UNL     1       3.661   3.323  20.090  0.00  0.00    +0.000 A 
ATOM     12  C   UNL     1       2.613   2.780  20.845  0.00  0.00    +0.000 A 
ATOM     13  C   UNL     1       1.405   2.444  20.239  0.00  0.00    +0.000 A 
ATOM     14  C   UNL     1       1.262   2.649  18.876  0.00  0.00    +0.000 A 
ATOM     15  C   UNL     1       2.288   3.215  18.125  0.00  0.00    +0.000 A 
BRANCH  14  16
ATOM     16  O   UNL     1       0.099   2.339  18.231  0.00  0.00    +0.000 OA
ATOM     17  H   UNL     1       0.258   2.368  17.274  0.00  0.00    +0.000 HD
ENDBRANCH  14  16
ENDBRANCH   6  10
BRANCH   1  18
ATOM     18  C   UNL     1       4.144   6.618  19.010  0.00  0.00    +0.000 C 
BRANCH  18  20
ATOM     19  C   UNL     1       1.982   6.579  20.362  0.00  0.00    +0.000 C 
ATOM     20  C   UNL     1       2.662   7.031  19.078  0.00  0.00    +0.000 C 
ENDBRANCH  18  20
ENDBRANCH   1  18
BRANCH   9  21
ATOM     21  C   UNL     1       7.720   7.239  18.093  0.00  0.00    +0.000 C 
BRANCH  21  22
ATOM     22  C   UNL     1       7.444   8.592  17.389  0.00  0.00    +0.000 C 
BRANCH  22  23
ATOM     23  C   UNL     1       8.242   9.728  17.993  0.00  0.00    +0.000 A 
ATOM     24  C   UNL     1       9.044   9.518  19.124  0.00  0.00    +0.000 A 
ATOM     25  C   UNL     1       9.738  10.581  19.709  0.00  0.00    +0.000 A 
ATOM     26  C   UNL     1       9.641  11.862  19.170  0.00  0.00    +0.000 A 
ATOM     27  C   UNL     1       8.862  12.078  18.034  0.00  0.00    +0.000 A 
ATOM     28  C   UNL     1       8.170  11.017  17.447  0.00  0.00    +0.000 A 
ENDBRANCH  22  23
ENDBRANCH  21  22
ENDBRANCH   9  21
TORSDOF 7
ENDMDL
MODEL 6
REMARK VINA RESULT:      -7.7      1.275      1.621
REMARK  Name = 
REMARK  8 active torsions:
REMARK  status: ('A' for Active; 'I' for Inactive)
REMARK    1  A    between atoms: C_1  and  C_2
REMARK    2  A    between atoms: C_2  and  C_3
REMARK    3  A    between atoms: C_3  and  C_4
REMARK    4  A    between atoms: C_9  and  C_10
REMARK    5  A    between atoms: C_14  and  O_15
REMARK    6  A    between atoms: N_19  and  C_20
REMARK    7  A    between atoms: C_20  and  C_21
REMARK    8  A    between atoms: C_21  and  C_22
REMARK                            x       y       z     vdW  Elec       q    Type
REMARK                         _______ _______ _______ _____ _____    ______ ____
ROOT
ATOM      1  C   UNL     1       4.961   6.075  17.003  0.00  0.00    +0.000 C 
ATOM      2  C   UNL     1       6.398   6.538  16.622  0.00  0.00    +0.000 C 
ATOM      3  C   UNL     1       6.811   5.828  15.320  0.00  0.00    +0.000 C 
ATOM      4  C   UNL     1       6.659   4.311  15.332  0.00  0.00    +0.000 C 
ATOM      5  C   UNL     1       5.457   3.772  16.110  0.00  0.00    +0.000 C 
ATOM      6  C   UNL     1       5.021   4.560  17.393  0.00  0.00    +0.000 C 
ATOM      7  C   UNL     1       6.068   4.394  18.526  0.00  0.00    +0.000 C 
ATOM      8  C   UNL     1       7.429   5.059  18.345  0.00  0.00    +0.000 C 
ATOM      9  N   UNL     1       7.442   6.312  17.620  0.00  0.00    +0.000 NA
ENDROOT
BRANCH   6  10
ATOM     10  C   UNL     1       3.644   3.959  17.822  0.00  0.00    +0.000 A 
ATOM     11  C   UNL     1       2.445   4.661  17.578  0.00  0.00    +0.000 A 
ATOM     12  C   UNL     1       1.195   4.099  17.869  0.00  0.00    +0.000 A 
ATOM     13  C   UNL     1       1.105   2.832  18.439  0.00  0.00    +0.000 A 
ATOM     14  C   UNL     1       2.272   2.142  18.722  0.00  0.00    +0.000 A 
ATOM     15  C   UNL     1       3.517   2.682  18.409  0.00  0.00    +0.000 A 
BRANCH  14  16
ATOM     16  O   UNL     1       2.243   0.896  19.280  0.00  0.00    +0.000 OA
ATOM     17  H   UNL     1       2.441   0.243  18.591  0.00  0.00    +0.000 HD
ENDBRANCH  14  16
ENDBRANCH   6  10
BRANCH   1  18
ATOM     18  C   UNL     1       4.276   7.008  18.030  0.00  0.00    +0.000 C 
BRANCH  18  20
ATOM     19  C   UNL     1       2.130   8.345  18.362  0.00  0.00    +0.000 C 
ATOM     20  C   UNL     1       3.181   7.868  17.371  0.00  0.00    +0.000 C 
ENDBRANCH  18  20
ENDBRANCH   1  18
BRANCH   9  21
ATOM     21  C   UNL     1       7.978   7.479  18.325  0.00  0.00    +0.000 C 
BRANCH  21  22
ATOM     22  C   UNL     1       7.898   8.784  17.492  0.00  0.00    +0.000 C 
BRANCH  22  23
ATOM     23  C   UNL     1       8.504   9.967  18.216  0.00  0.00    +0.000 A 
ATOM     24  C   UNL     1       8.421  11.258  17.675  0.00  0.00    +0.000 A 
ATOM     25  C   UNL     1       9.026  12.339  18.322  0.00  0.00    +0.000 A 
ATOM     26  C   UNL     1       9.716  12.143  19.516  0.00  0.00    +0.000 A 
ATOM     27  C   UNL     1       9.788  10.867  20.074  0.00  0.00    +0.000 A 
ATOM     28  C   UNL     1       9.182   9.787  19.430  0.00  0.00    +0.000 A 
ENDBRANCH  22  23
ENDBRANCH  21  22
ENDBRANCH   9  21
TORSDOF 7
ENDMDL
MODEL 7
REMARK VINA RESULT:      -7.6      0.942      1.500
REMARK  Name = 
REMARK  8 active torsions:
REMARK  status: ('A' for Active; 'I' for Inactive)
REMARK    1  A    between atoms: C_1  and  C_2
REMARK    2  A    between atoms: C_2  and  C_3
REMARK    3  A    between atoms: C_3  and  C_4
REMARK    4  A    between atoms: C_9  and  C_10
REMARK    5  A    between atoms: C_14  and  O_15
REMARK    6  A    between atoms: N_19  and  C_20
REMARK    7  A    between atoms: C_20  and  C_21
REMARK    8  A    between atoms: C_21  and  C_22
REMARK                            x       y       z     vdW  Elec       q    Type
REMARK                         _______ _______ _______ _____ _____    ______ ____
ROOT
ATOM      1  C   UNL     1       4.330   6.093  17.085  0.00  0.00    +0.000 C 
ATOM      2  C   UNL     1       5.532   6.680  16.291  0.00  0.00    +0.000 C 
ATOM      3  C   UNL     1       5.821   5.760  15.091  0.00  0.00    +0.000 C 
ATOM      4  C   UNL     1       5.997   4.285  15.433  0.00  0.00    +0.000 C 
ATOM      5  C   UNL     1       5.113   3.756  16.564  0.00  0.00    +0.000 C 
ATOM      6  C   UNL     1       4.782   4.743  17.737  0.00  0.00    +0.000 C 
ATOM      7  C   UNL     1       6.043   5.021  18.597  0.00  0.00    +0.000 C 
ATOM      8  C   UNL     1       7.171   5.836  17.971  0.00  0.00    +0.000 C 
ATOM      9  N   UNL     1       6.777   6.869  17.035  0.00  0.00    +0.000 NA
ENDROOT
BRANCH   6  10
ATOM     10  C   UNL     1       3.675   4.046  18.589  0.00  0.00    +0.000 A 
ATOM     11  C   UNL     1       3.626   2.640  18.696  0.00  0.00    +0.000 A 
ATOM     12  C   UNL     1       2.700   2.001  19.531  0.00  0.00    +0.000 A 
ATOM     13  C   UNL     1       1.776   2.743  20.261  0.00  0.00    +0.000 A 
ATOM     14  C   UNL     1       1.782   4.123  20.141  0.00  0.00    +0.000 A 
ATOM     15  C   UNL     1       2.718   4.768  19.336  0.00  0.00    +0.000 A 
BRANCH  14  16
ATOM     16  O   UNL     1       0.900   4.900  20.834  0.00  0.00    +0.000 OA
ATOM     17  H   UNL     1       1.391   5.608  21.278  0.00  0.00    +0.000 HD
ENDBRANCH  14  16
ENDBRANCH   6  10
BRANCH   1  18
ATOM     18  C   UNL     1       3.679   7.119  18.046  0.00  0.00    +0.000 C 
BRANCH  18  20
ATOM     19  C   UNL     1       1.744   8.759  18.302  0.00  0.00    +0.000 C 
ATOM     20  C   UNL     1       2.598   7.954  17.334  0.00  0.00    +0.000 C 
ENDBRANCH  18  20
ENDBRANCH   1  18
BRANCH   9  21
ATOM     21  C   UNL     1       7.183   8.239  17.352  0.00  0.00    +0.000 C 
BRANCH  21  22
ATOM     22  C   UNL     1       8.351   8.308  18.369  0.00  0.00    +0.000 C 
BRANCH  22  23
ATOM     23  C   UNL     1       8.797   9.730  18.638  0.00  0.00    +0.000 A 
ATOM     24  C   UNL     1       8.612  10.733  17.677  0.00  0.00    +0.000 A 
ATOM     25  C   UNL     1       9.071  12.033  17.909  0.00  0.00    +0.000 A 
ATOM     26  C   UNL     1       9.715  12.344  19.105  0.00  0.00    +0.000 A 
ATOM     27  C   UNL     1       9.886  11.359  20.076  0.00  0.00    +0.000 A 
ATOM     28  C   UNL     1       9.426  10.061  19.846  0.00  0.00    +0.000 A 
ENDBRANCH  22  23
ENDBRANCH  21  22
ENDBRANCH   9  21
TORSDOF 7
ENDMDL
MODEL 8
REMARK VINA RESULT:      -7.5      1.207      1.591
REMARK  Name = 
REMARK  8 active torsions:
REMARK  status: ('A' for Active; 'I' for Inactive)
REMARK    1  A    between atoms: C_1  and  C_2
REMARK    2  A    between atoms: C_2  and  C_3
REMARK    3  A    between atoms: C_3  and  C_4
REMARK    4  A    between atoms: C_9  and  C_10
REMARK    5  A    between atoms: C_14  and  O_15
REMARK    6  A    between atoms: N_19  and  C_20
REMARK    7  A    between atoms: C_20  and  C_21
REMARK    8  A    between atoms: C_21  and  C_22
REMARK                            x       y       z     vdW  Elec       q    Type
REMARK                         _______ _______ _______ _____ _____    ______ ____
ROOT
ATOM      1  C   UNL     1       4.256   6.122  17.360  0.00  0.00    +0.000 C 
ATOM      2  C   UNL     1       5.215   7.034  16.543  0.00  0.00    +0.000 C 
ATOM      3  C   UNL     1       5.299   6.492  15.105  0.00  0.00    +0.000 C 
ATOM      4  C   UNL     1       5.645   5.012  14.989  0.00  0.00    +0.000 C 
ATOM      5  C   UNL     1       5.065   4.109  16.079  0.00  0.00    +0.000 C 
ATOM      6  C   UNL     1       4.929   4.717  17.518  0.00  0.00    +0.000 C 
ATOM      7  C   UNL     1       6.325   4.920  18.165  0.00  0.00    +0.000 C 
ATOM      8  C   UNL     1       7.232   6.000  17.583  0.00  0.00    +0.000 C 
ATOM      9  N   UNL     1       6.575   7.180  17.059  0.00  0.00    +0.000 NA
ENDROOT
BRANCH   6  10
ATOM     10  C   UNL     1       4.083   3.695  18.342  0.00  0.00    +0.000 A 
ATOM     11  C   UNL     1       4.464   3.334  19.651  0.00  0.00    +0.000 A 
ATOM     12  C   UNL     1       3.667   2.493  20.440  0.00  0.00    +0.000 A 
ATOM     13  C   UNL     1       2.483   1.963  19.936  0.00  0.00    +0.000 A 
ATOM     14  C   UNL     1       2.110   2.275  18.638  0.00  0.00    +0.000 A 
ATOM     15  C   UNL     1       2.881   3.133  17.858  0.00  0.00    +0.000 A 
BRANCH  14  16
ATOM     16  O   UNL     1       0.959   1.784  18.094  0.00  0.00    +0.000 OA
ATOM     17  H   UNL     1       0.415   2.529  17.794  0.00  0.00    +0.000 HD
ENDBRANCH  14  16
ENDBRANCH   6  10
BRANCH   1  18
ATOM     18  C   UNL     1       3.761   6.781  18.670  0.00  0.00    +0.000 C 
BRANCH  18  20
ATOM     19  C   UNL     1       1.735   7.023  20.200  0.00  0.00    +0.000 C 
ATOM     20  C   UNL     1       2.227   6.713  18.794  0.00  0.00    +0.000 C 
ENDBRANCH  18  20
ENDBRANCH   1  18
BRANCH   9  21
ATOM     21  C   UNL     1       6.947   8.464  17.656  0.00  0.00    +0.000 C 
BRANCH  21  22
ATOM     22  C   UNL     1       8.480   8.664  17.767  0.00  0.00    +0.000 C 
BRANCH  22  23
ATOM     23  C   UNL     1       8.844   9.973  18.433  0.00  0.00    +0.000 A 
ATOM     24  C   UNL     1       8.865  11.169  17.700  0.00  0.00    +0.000 A 
ATOM     25  C   UNL     1       9.251  12.367  18.307  0.00  0.00    +0.000 A 
ATOM     26  C   UNL     1       9.615  12.385  19.652  0.00  0.00    +0.000 A 
ATOM     27  C   UNL     1       9.579  11.206  20.395  0.00  0.00    +0.000 A 
ATOM     28  C   UNL     1       9.193  10.008  19.790  0.00  0.00    +0.000 A 
ENDBRANCH  22  23
ENDBRANCH  21  22
ENDBRANCH   9  21
TORSDOF 7
ENDMDL
MODEL 9
REMARK VINA RESULT:      -7.5      5.953     10.417
REMARK  Name = 
REMARK  8 active torsions:
REMARK  status: ('A' for Active; 'I' for Inactive)
REMARK    1  A    between atoms: C_1  and  C_2
REMARK    2  A    between atoms: C_2  and  C_3
REMARK    3  A    between atoms: C_3  and  C_4
REMARK    4  A    between atoms: C_9  and  C_10
REMARK    5  A    between atoms: C_14  and  O_15
REMARK    6  A    between atoms: N_19  and  C_20
REMARK    7  A    between atoms: C_20  and  C_21
REMARK    8  A    between atoms: C_21  and  C_22
REMARK                            x       y       z     vdW  Elec       q    Type
REMARK                         _______ _______ _______ _____ _____    ______ ____
ROOT
ATOM      1  C   UNL     1      -0.726  11.345  18.535  0.00  0.00    +0.000 C 
ATOM      2  C   UNL     1      -1.333  12.713  18.958  0.00  0.00    +0.000 C 
ATOM      3  C   UNL     1      -0.308  13.820  18.651  0.00  0.00    +0.000 C 
ATOM      4  C   UNL     1       1.087  13.587  19.221  0.00  0.00    +0.000 C 
ATOM      5  C   UNL     1       1.562  12.133  19.237  0.00  0.00    +0.000 C 
ATOM      6  C   UNL     1       0.478  11.026  19.483  0.00  0.00    +0.000 C 
ATOM      7  C   UNL     1      -0.035  11.073  20.947  0.00  0.00    +0.000 C 
ATOM      8  C   UNL     1      -0.881  12.270  21.370  0.00  0.00    +0.000 C 
ATOM      9  N   UNL     1      -1.743  12.841  20.356  0.00  0.00    +0.000 NA
ENDROOT
BRANCH   6  10
ATOM     10  C   UNL     1       1.178   9.662  19.187  0.00  0.00    +0.000 A 
ATOM     11  C   UNL     1       1.764   9.412  17.929  0.00  0.00    +0.000 A 
ATOM     12  C   UNL     1       2.479   8.233  17.675  0.00  0.00    +0.000 A 
ATOM     13  C   UNL     1       2.603   7.255  18.659  0.00  0.00    +0.000 A 
ATOM     14  C   UNL     1       2.001   7.465  19.889  0.00  0.00    +0.000 A 
ATOM     15  C   UNL     1       1.315   8.647  20.159  0.00  0.00    +0.000 A 
BRANCH  14  16
ATOM     16  O   UNL     1       2.092   6.542  20.890  0.00  0.00    +0.000 OA
ATOM     17  H   UNL     1       1.462   5.826  20.711  0.00  0.00    +0.000 HD
ENDBRANCH  14  16
ENDBRANCH   6  10
BRANCH   1  18
ATOM     18  C   UNL     1      -1.787  10.226  18.396  0.00  0.00    +0.000 C 
BRANCH  18  20
ATOM     19  C   UNL     1      -3.144  10.573  16.266  0.00  0.00    +0.000 C 
ATOM     20  C   UNL     1      -1.996   9.823  16.925  0.00  0.00    +0.000 C 
ENDBRANCH  18  20
ENDBRANCH   1  18
BRANCH   9  21
ATOM     21  C   UNL     1      -3.177  12.874  20.649  0.00  0.00    +0.000 C 
BRANCH  21  22
ATOM     22  C   UNL     1      -4.061  12.729  19.383  0.00  0.00    +0.000 C 
BRANCH  22  23
ATOM     23  C   UNL     1      -5.343  11.973  19.660  0.00  0.00    +0.000 A 
ATOM     24  C   UNL     1      -6.084  12.220  20.824  0.00  0.00    +0.000 A 
ATOM     25  C   UNL     1      -7.239  11.484  21.100  0.00  0.00    +0.000 A 
ATOM     26  C   UNL     1      -7.668  10.496  20.215  0.00  0.00    +0.000 A 
ATOM     27  C   UNL     1      -6.949  10.255  19.045  0.00  0.00    +0.000 A 
ATOM     28  C   UNL     1      -5.796  10.991  18.767  0.00  0.00    +0.000 A 
ENDBRANCH  22  23
ENDBRANCH  21  22
ENDBRANCH   9  21
TORSDOF 7
ENDMDL
