MODEL 1
REMARK VINA RESULT:      -7.5      0.000      0.000
REMARK  Name = 
REMARK  4 active torsions:
REMARK  status: ('A' for Active; 'I' for Inactive)
REMARK    1  A    between atoms: C_2  and  C_3
REMARK    2  A    between atoms: C_6  and  N_7
REMARK    3  A    between atoms: N_7  and  C_8
REMARK    4  A    between atoms: C_10  and  C_11
REMARK                            x       y       z     vdW  Elec       q    Type
REMARK                         _______ _______ _______ _____ _____    ______ ____
ROOT
ATOM      1  N   UNL     1       3.643   3.930  17.990  0.00  0.00    +0.000 N 
ATOM      2  H   UNL     1       2.974   3.531  17.317  0.00  0.00    +0.000 HD
ENDROOT
BRANCH   1   3
ATOM      3  C   UNL     1       4.849   4.205  17.334  0.00  0.00    +0.000 A 
ATOM      4  C   UNL     1       5.031   4.063  16.009  0.00  0.00    +0.000 A 
ATOM      5  C   UNL     1       6.396   4.355  15.479  0.00  0.00    +0.000 A 
ATOM      6  C   UNL     1       6.605   4.171  13.996  0.00  0.00    +0.000 C 
ATOM      7  N   UNL     1       7.411   4.741  16.193  0.00  0.00    +0.000 NA
ATOM      8  C   UNL     1       7.194   4.889  17.532  0.00  0.00    +0.000 A 
ATOM      9  N   UNL     1       8.037   5.234  18.481  0.00  0.00    +0.000 NA
ATOM     10  C   UNL     1       7.279   5.198  19.611  0.00  0.00    +0.000 A 
ATOM     11  N   UNL     1       6.000   4.854  19.451  0.00  0.00    +0.000 NA
ATOM     12  N   UNL     1       5.942   4.644  18.107  0.00  0.00    +0.000 N 
ENDBRANCH   1   3
BRANCH   1  16
ATOM     13  C   UNL     1       1.823   7.019  20.238  0.00  0.00    +0.000 A 
ATOM     14  C   UNL     1       1.814   5.716  20.730  0.00  0.00    +0.000 A 
ATOM     15  C   UNL     1       2.389   4.683  19.984  0.00  0.00    +0.000 A 
ATOM     16  C   UNL     1       2.959   4.936  18.728  0.00  0.00    +0.000 A 
ATOM     17  C   UNL     1       2.983   6.252  18.255  0.00  0.00    +0.000 A 
ATOM     18  C   UNL     1       2.404   7.287  18.998  0.00  0.00    +0.000 A 
BRANCH  13  20
ATOM     19  C   UNL     1       0.792   8.965  21.678  0.00  0.00    +0.000 C 
ATOM     20  C   UNL     1       1.266   8.084  21.014  0.00  0.00    +0.000 C 
ENDBRANCH  13  20
ENDBRANCH   1  16
TORSDOF 3
ENDMDL
MODEL 2
REMARK VINA RESULT:      -7.4      0.275      1.140
REMARK  Name = 
REMARK  4 active torsions:
REMARK  status: ('A' for Active; 'I' for Inactive)
REMARK    1  A    between atoms: C_2  and  C_3
REMARK    2  A    between atoms: C_6  and  N_7
REMARK    3  A    between atoms: N_7  and  C_8
REMARK    4  A    between atoms: C_10  and  C_11
REMARK                            x       y       z     vdW  Elec       q    Type
REMARK                         _______ _______ _______ _____ _____    ______ ____
ROOT
ATOM      1  N   UNL     1       3.705   4.087  18.266  0.00  0.00    +0.000 N 
ATOM      2  H   UNL     1       2.975   3.657  17.681  0.00  0.00    +0.000 HD
ENDROOT
BRANCH   1   3
ATOM      3  C   UNL     1       4.853   4.296  17.494  0.00  0.00    +0.000 A 
ATOM      4  C   UNL     1       4.922   4.050  16.173  0.00  0.00    +0.000 A 
ATOM      5  C   UNL     1       6.239   4.284  15.510  0.00  0.00    +0.000 A 
ATOM      6  C   UNL     1       6.323   3.983  14.034  0.00  0.00    +0.000 C 
ATOM      7  N   UNL     1       7.312   4.714  16.105  0.00  0.00    +0.000 NA
ATOM      8  C   UNL     1       7.209   4.968  17.441  0.00  0.00    +0.000 A 
ATOM      9  N   UNL     1       8.130   5.377  18.287  0.00  0.00    +0.000 NA
ATOM     10  C   UNL     1       7.469   5.438  19.475  0.00  0.00    +0.000 A 
ATOM     11  N   UNL     1       6.180   5.096  19.450  0.00  0.00    +0.000 NA
ATOM     12  N   UNL     1       6.008   4.783  18.136  0.00  0.00    +0.000 N 
ENDBRANCH   1   3
BRANCH   1  16
ATOM     13  C   UNL     1       1.692   7.157  20.372  0.00  0.00    +0.000 A 
ATOM     14  C   UNL     1       2.338   7.457  19.173  0.00  0.00    +0.000 A 
ATOM     15  C   UNL     1       3.029   6.456  18.483  0.00  0.00    +0.000 A 
ATOM     16  C   UNL     1       3.100   5.152  18.992  0.00  0.00    +0.000 A 
ATOM     17  C   UNL     1       2.428   4.858  20.184  0.00  0.00    +0.000 A 
ATOM     18  C   UNL     1       1.740   5.859  20.879  0.00  0.00    +0.000 A 
BRANCH  13  20
ATOM     19  C   UNL     1       0.339   9.033  21.628  0.00  0.00    +0.000 C 
ATOM     20  C   UNL     1       0.956   8.172  21.063  0.00  0.00    +0.000 C 
ENDBRANCH  13  20
ENDBRANCH   1  16
TORSDOF 3
ENDMDL
MODEL 3
REMARK VINA RESULT:      -7.4      1.806      6.394
REMARK  Name = 
REMARK  4 active torsions:
REMARK  status: ('A' for Active; 'I' for Inactive)
REMARK    1  A    between atoms: C_2  and  C_3
REMARK    2  A    between atoms: C_6  and  N_7
REMARK    3  A    between atoms: N_7  and  C_8
REMARK    4  A    between atoms: C_10  and  C_11
REMARK                            x       y       z     vdW  Elec       q    Type
REMARK                         _______ _______ _______ _____ _____    ______ ____
ROOT
ATOM      1  N   UNL     1       5.382   4.675  18.926  0.00  0.00    +0.000 N 
ATOM      2  H   UNL     1       6.128   5.267  19.314  0.00  0.00    +0.000 HD
ENDROOT
BRANCH   1   3
ATOM      3  C   UNL     1       4.145   5.105  19.421  0.00  0.00    +0.000 A 
ATOM      4  C   UNL     1       3.661   6.349  19.249  0.00  0.00    +0.000 A 
ATOM      5  C   UNL     1       2.345   6.656  19.884  0.00  0.00    +0.000 A 
ATOM      6  C   UNL     1       1.816   8.059  19.712  0.00  0.00    +0.000 C 
ATOM      7  N   UNL     1       1.634   5.818  20.577  0.00  0.00    +0.000 NA
ATOM      8  C   UNL     1       2.143   4.560  20.724  0.00  0.00    +0.000 A 
ATOM      9  N   UNL     1       1.656   3.535  21.390  0.00  0.00    +0.000 NA
ATOM     10  C   UNL     1       2.589   2.561  21.204  0.00  0.00    +0.000 A 
ATOM     11  N   UNL     1       3.645   2.892  20.459  0.00  0.00    +0.000 NA
ATOM     12  N   UNL     1       3.366   4.189  20.153  0.00  0.00    +0.000 N 
ENDBRANCH   1   3
BRANCH   1  16
ATOM     13  C   UNL     1       6.067   4.083  14.791  0.00  0.00    +0.000 A 
ATOM     14  C   UNL     1       7.093   4.581  15.593  0.00  0.00    +0.000 A 
ATOM     15  C   UNL     1       6.870   4.806  16.954  0.00  0.00    +0.000 A 
ATOM     16  C   UNL     1       5.614   4.556  17.526  0.00  0.00    +0.000 A 
ATOM     17  C   UNL     1       4.599   4.034  16.717  0.00  0.00    +0.000 A 
ATOM     18  C   UNL     1       4.819   3.813  15.353  0.00  0.00    +0.000 A 
BRANCH  13  20
ATOM     19  C   UNL     1       6.515   3.612  12.241  0.00  0.00    +0.000 C 
ATOM     20  C   UNL     1       6.302   3.821  13.404  0.00  0.00    +0.000 C 
ENDBRANCH  13  20
ENDBRANCH   1  16
TORSDOF 3
ENDMDL
MODEL 4
REMARK VINA RESULT:      -7.4      1.186      2.629
REMARK  Name = 
REMARK  4 active torsions:
REMARK  status: ('A' for Active; 'I' for Inactive)
REMARK    1  A    between atoms: C_2  and  C_3
REMARK    2  A    between atoms: C_6  and  N_7
REMARK    3  A    between atoms: N_7  and  C_8
REMARK    4  A    between atoms: C_10  and  C_11
REMARK                            x       y       z     vdW  Elec       q    Type
REMARK                         _______ _______ _______ _____ _____    ______ ____
ROOT
ATOM      1  N   UNL     1       3.533   5.068  17.550  0.00  0.00    +0.000 N 
ATOM      2  H   UNL     1       3.181   5.291  16.609  0.00  0.00    +0.000 HD
ENDROOT
BRANCH   1   3
ATOM      3  C   UNL     1       4.933   5.063  17.531  0.00  0.00    +0.000 A 
ATOM      4  C   UNL     1       5.697   5.326  18.607  0.00  0.00    +0.000 A 
ATOM      5  C   UNL     1       7.176   5.325  18.401  0.00  0.00    +0.000 A 
ATOM      6  C   UNL     1       8.032   5.646  19.602  0.00  0.00    +0.000 C 
ATOM      7  N   UNL     1       7.776   5.083  17.273  0.00  0.00    +0.000 NA
ATOM      8  C   UNL     1       6.976   4.807  16.203  0.00  0.00    +0.000 A 
ATOM      9  N   UNL     1       7.309   4.557  14.955  0.00  0.00    +0.000 NA
ATOM     10  C   UNL     1       6.111   4.377  14.335  0.00  0.00    +0.000 A 
ATOM     11  N   UNL     1       5.027   4.492  15.104  0.00  0.00    +0.000 NA
ATOM     12  N   UNL     1       5.581   4.779  16.314  0.00  0.00    +0.000 N 
ENDBRANCH   1   3
BRANCH   1  16
ATOM     13  C   UNL     1       1.593   7.563  20.365  0.00  0.00    +0.000 A 
ATOM     14  C   UNL     1       1.732   6.202  20.635  0.00  0.00    +0.000 A 
ATOM     15  C   UNL     1       2.347   5.364  19.700  0.00  0.00    +0.000 A 
ATOM     16  C   UNL     1       2.811   5.870  18.478  0.00  0.00    +0.000 A 
ATOM     17  C   UNL     1       2.688   7.242  18.229  0.00  0.00    +0.000 A 
ATOM     18  C   UNL     1       2.068   8.082  19.161  0.00  0.00    +0.000 A 
BRANCH  13  20
ATOM     19  C   UNL     1       0.474   9.150  22.141  0.00  0.00    +0.000 C 
ATOM     20  C   UNL     1       0.994   8.429  21.334  0.00  0.00    +0.000 C 
ENDBRANCH  13  20
ENDBRANCH   1  16
TORSDOF 3
ENDMDL
MODEL 5
REMARK VINA RESULT:      -7.3      1.792      6.343
REMARK  Name = 
REMARK  4 active torsions:
REMARK  status: ('A' for Active; 'I' for Inactive)
REMARK    1  A    between atoms: C_2  and  C_3
REMARK    2  A    between atoms: C_6  and  N_7
REMARK    3  A    between atoms: N_7  and  C_8
REMARK    4  A    between atoms: C_10  and  C_11
REMARK                            x       y       z     vdW  Elec       q    Type
REMARK                         _______ _______ _______ _____ _____    ______ ____
ROOT
ATOM      1  N   UNL     1       5.405   4.648  19.011  0.00  0.00    +0.000 N 
ATOM      2  H   UNL     1       6.130   5.310  19.319  0.00  0.00    +0.000 HD
ENDROOT
BRANCH   1   3
ATOM      3  C   UNL     1       4.154   5.092  19.455  0.00  0.00    +0.000 A 
ATOM      4  C   UNL     1       3.687   6.337  19.253  0.00  0.00    +0.000 A 
ATOM      5  C   UNL     1       2.350   6.659  19.835  0.00  0.00    +0.000 A 
ATOM      6  C   UNL     1       1.838   8.064  19.631  0.00  0.00    +0.000 C 
ATOM      7  N   UNL     1       1.605   5.832  20.507  0.00  0.00    +0.000 NA
ATOM      8  C   UNL     1       2.099   4.573  20.684  0.00  0.00    +0.000 A 
ATOM      9  N   UNL     1       1.578   3.557  21.339  0.00  0.00    +0.000 NA
ATOM     10  C   UNL     1       2.510   2.574  21.197  0.00  0.00    +0.000 A 
ATOM     11  N   UNL     1       3.597   2.891  20.491  0.00  0.00    +0.000 NA
ATOM     12  N   UNL     1       3.339   4.187  20.163  0.00  0.00    +0.000 N 
ENDBRANCH   1   3
BRANCH   1  16
ATOM     13  C   UNL     1       6.116   4.041  14.883  0.00  0.00    +0.000 A 
ATOM     14  C   UNL     1       4.865   3.735  15.416  0.00  0.00    +0.000 A 
ATOM     15  C   UNL     1       4.627   3.906  16.783  0.00  0.00    +0.000 A 
ATOM     16  C   UNL     1       5.641   4.364  17.636  0.00  0.00    +0.000 A 
ATOM     17  C   UNL     1       6.886   4.690  17.086  0.00  0.00    +0.000 A 
ATOM     18  C   UNL     1       7.128   4.515  15.718  0.00  0.00    +0.000 A 
BRANCH  13  20
ATOM     19  C   UNL     1       6.532   3.777  12.298  0.00  0.00    +0.000 C 
ATOM     20  C   UNL     1       6.352   3.899  13.478  0.00  0.00    +0.000 C 
ENDBRANCH  13  20
ENDBRANCH   1  16
TORSDOF 3
ENDMDL
MODEL 6
REMARK VINA RESULT:      -7.3      2.223      4.173
REMARK  Name = 
REMARK  4 active torsions:
REMARK  status: ('A' for Active; 'I' for Inactive)
REMARK    1  A    between atoms: C_2  and  C_3
REMARK    2  A    between atoms: C_6  and  N_7
REMARK    3  A    between atoms: N_7  and  C_8
REMARK    4  A    between atoms: C_10  and  C_11
REMARK                            x       y       z     vdW  Elec       q    Type
REMARK                         _______ _______ _______ _____ _____    ______ ____
ROOT
ATOM      1  N   UNL     1       2.924   6.505  19.904  0.00  0.00    +0.000 N 
ATOM      2  H   UNL     1       2.765   6.293  20.899  0.00  0.00    +0.000 HD
ENDROOT
BRANCH   1   3
ATOM      3  C   UNL     1       2.766   5.336  19.151  0.00  0.00    +0.000 A 
ATOM      4  C   UNL     1       1.773   4.449  19.345  0.00  0.00    +0.000 A 
ATOM      5  C   UNL     1       1.779   3.229  18.483  0.00  0.00    +0.000 A 
ATOM      6  C   UNL     1       0.680   2.222  18.719  0.00  0.00    +0.000 C 
ATOM      7  N   UNL     1       2.658   2.967  17.562  0.00  0.00    +0.000 NA
ATOM      8  C   UNL     1       3.645   3.891  17.379  0.00  0.00    +0.000 A 
ATOM      9  N   UNL     1       4.666   3.868  16.548  0.00  0.00    +0.000 NA
ATOM     10  C   UNL     1       5.322   5.030  16.816  0.00  0.00    +0.000 A 
ATOM     11  N   UNL     1       4.788   5.802  17.765  0.00  0.00    +0.000 NA
ATOM     12  N   UNL     1       3.706   5.064  18.138  0.00  0.00    +0.000 N 
ENDBRANCH   1   3
BRANCH   1  16
ATOM     13  C   UNL     1       0.543   9.889  19.016  0.00  0.00    +0.000 A 
ATOM     14  C   UNL     1       1.285   9.287  18.002  0.00  0.00    +0.000 A 
ATOM     15  C   UNL     1       2.096   8.186  18.289  0.00  0.00    +0.000 A 
ATOM     16  C   UNL     1       2.191   7.686  19.596  0.00  0.00    +0.000 A 
ATOM     17  C   UNL     1       1.424   8.284  20.601  0.00  0.00    +0.000 A 
ATOM     18  C   UNL     1       0.615   9.390  20.317  0.00  0.00    +0.000 A 
BRANCH  13  20
ATOM     19  C   UNL     1      -1.021  11.929  18.455  0.00  0.00    +0.000 C 
ATOM     20  C   UNL     1      -0.314  10.996  18.719  0.00  0.00    +0.000 C 
ENDBRANCH  13  20
ENDBRANCH   1  16
TORSDOF 3
ENDMDL
MODEL 7
REMARK VINA RESULT:      -7.3      2.176      3.564
REMARK  Name = 
REMARK  4 active torsions:
REMARK  status: ('A' for Active; 'I' for Inactive)
REMARK    1  A    between atoms: C_2  and  C_3
REMARK    2  A    between atoms: C_6  and  N_7
REMARK    3  A    between atoms: N_7  and  C_8
REMARK    4  A    between atoms: C_10  and  C_11
REMARK                            x       y       z     vdW  Elec       q    Type
REMARK                         _______ _______ _______ _____ _____    ______ ____
ROOT
ATOM      1  N   UNL     1       3.567   6.375  17.140  0.00  0.00    +0.000 N 
ATOM      2  H   UNL     1       3.182   7.323  17.244  0.00  0.00    +0.000 HD
ENDROOT
BRANCH   1   3
ATOM      3  C   UNL     1       4.958   6.453  16.995  0.00  0.00    +0.000 A 
ATOM      4  C   UNL     1       5.718   7.404  17.568  0.00  0.00    +0.000 A 
ATOM      5  C   UNL     1       7.181   7.369  17.271  0.00  0.00    +0.000 A 
ATOM      6  C   UNL     1       8.029   8.451  17.894  0.00  0.00    +0.000 C 
ATOM      7  N   UNL     1       7.772   6.492  16.514  0.00  0.00    +0.000 NA
ATOM      8  C   UNL     1       6.977   5.533  15.957  0.00  0.00    +0.000 A 
ATOM      9  N   UNL     1       7.300   4.554  15.139  0.00  0.00    +0.000 NA
ATOM     10  C   UNL     1       6.112   3.933  14.900  0.00  0.00    +0.000 A 
ATOM     11  N   UNL     1       5.045   4.448  15.513  0.00  0.00    +0.000 NA
ATOM     12  N   UNL     1       5.599   5.490  16.192  0.00  0.00    +0.000 N 
ENDBRANCH   1   3
BRANCH   1  16
ATOM     13  C   UNL     1       2.032   3.897  20.209  0.00  0.00    +0.000 A 
ATOM     14  C   UNL     1       1.910   3.497  18.879  0.00  0.00    +0.000 A 
ATOM     15  C   UNL     1       2.390   4.320  17.856  0.00  0.00    +0.000 A 
ATOM     16  C   UNL     1       2.977   5.560  18.147  0.00  0.00    +0.000 A 
ATOM     17  C   UNL     1       3.114   5.940  19.487  0.00  0.00    +0.000 A 
ATOM     18  C   UNL     1       2.630   5.119  20.513  0.00  0.00    +0.000 A 
BRANCH  13  20
ATOM     19  C   UNL     1       1.169   2.327  22.136  0.00  0.00    +0.000 C 
ATOM     20  C   UNL     1       1.572   3.041  21.260  0.00  0.00    +0.000 C 
ENDBRANCH  13  20
ENDBRANCH   1  16
TORSDOF 3
ENDMDL
MODEL 8
REMARK VINA RESULT:      -7.2      2.202      4.038
REMARK  Name = 
REMARK  4 active torsions:
REMARK  status: ('A' for Active; 'I' for Inactive)
REMARK    1  A    between atoms: C_2  and  C_3
REMARK    2  A    between atoms: C_6  and  N_7
REMARK    3  A    between atoms: N_7  and  C_8
REMARK    4  A    between atoms: C_10  and  C_11
REMARK                            x       y       z     vdW  Elec       q    Type
REMARK                         _______ _______ _______ _____ _____    ______ ____
ROOT
ATOM      1  N   UNL     1       2.956   6.503  19.846  0.00  0.00    +0.000 N 
ATOM      2  H   UNL     1       2.904   6.302  20.854  0.00  0.00    +0.000 HD
ENDROOT
BRANCH   1   3
ATOM      3  C   UNL     1       2.809   5.311  19.128  0.00  0.00    +0.000 A 
ATOM      4  C   UNL     1       1.805   4.437  19.325  0.00  0.00    +0.000 A 
ATOM      5  C   UNL     1       1.825   3.189  18.505  0.00  0.00    +0.000 A 
ATOM      6  C   UNL     1       0.713   2.198  18.745  0.00  0.00    +0.000 C 
ATOM      7  N   UNL     1       2.725   2.890  17.616  0.00  0.00    +0.000 NA
ATOM      8  C   UNL     1       3.723   3.801  17.428  0.00  0.00    +0.000 A 
ATOM      9  N   UNL     1       4.765   3.744  16.626  0.00  0.00    +0.000 NA
ATOM     10  C   UNL     1       5.422   4.911  16.873  0.00  0.00    +0.000 A 
ATOM     11  N   UNL     1       4.870   5.717  17.781  0.00  0.00    +0.000 NA
ATOM     12  N   UNL     1       3.773   4.999  18.150  0.00  0.00    +0.000 N 
ENDBRANCH   1   3
BRANCH   1  16
ATOM     13  C   UNL     1       0.664   9.974  19.059  0.00  0.00    +0.000 A 
ATOM     14  C   UNL     1       0.672   9.433  20.344  0.00  0.00    +0.000 A 
ATOM     15  C   UNL     1       1.404   8.272  20.609  0.00  0.00    +0.000 A 
ATOM     16  C   UNL     1       2.119   7.626  19.590  0.00  0.00    +0.000 A 
ATOM     17  C   UNL     1       2.122   8.190  18.310  0.00  0.00    +0.000 A 
ATOM     18  C   UNL     1       1.386   9.350  18.042  0.00  0.00    +0.000 A 
BRANCH  13  20
ATOM     19  C   UNL     1      -0.648  12.203  18.575  0.00  0.00    +0.000 C 
ATOM     20  C   UNL     1      -0.057  11.181  18.793  0.00  0.00    +0.000 C 
ENDBRANCH  13  20
ENDBRANCH   1  16
TORSDOF 3
ENDMDL
MODEL 9
REMARK VINA RESULT:      -7.2      2.458      4.236
REMARK  Name = 
REMARK  4 active torsions:
REMARK  status: ('A' for Active; 'I' for Inactive)
REMARK    1  A    between atoms: C_2  and  C_3
REMARK    2  A    between atoms: C_6  and  N_7
REMARK    3  A    between atoms: N_7  and  C_8
REMARK    4  A    between atoms: C_10  and  C_11
REMARK                            x       y       z     vdW  Elec       q    Type
REMARK                         _______ _______ _______ _____ _____    ______ ____
ROOT
ATOM      1  N   UNL     1       2.916   6.386  19.953  0.00  0.00    +0.000 N 
ATOM      2  H   UNL     1       2.487   5.987  20.800  0.00  0.00    +0.000 HD
ENDROOT
BRANCH   1   3
ATOM      3  C   UNL     1       3.080   5.376  18.998  0.00  0.00    +0.000 A 
ATOM      4  C   UNL     1       4.037   5.387  18.052  0.00  0.00    +0.000 A 
ATOM      5  C   UNL     1       4.041   4.253  17.081  0.00  0.00    +0.000 A 
ATOM      6  C   UNL     1       5.099   4.281  16.005  0.00  0.00    +0.000 C 
ATOM      7  N   UNL     1       3.204   3.259  17.086  0.00  0.00    +0.000 NA
ATOM      8  C   UNL     1       2.252   3.267  18.064  0.00  0.00    +0.000 A 
ATOM      9  N   UNL     1       1.275   2.414  18.284  0.00  0.00    +0.000 NA
ATOM     10  C   UNL     1       0.638   2.932  19.371  0.00  0.00    +0.000 A 
ATOM     11  N   UNL     1       1.144   4.062  19.867  0.00  0.00    +0.000 NA
ATOM     12  N   UNL     1       2.185   4.289  19.018  0.00  0.00    +0.000 N 
ENDBRANCH   1   3
BRANCH   1  16
ATOM     13  C   UNL     1       0.632   9.833  19.055  0.00  0.00    +0.000 A 
ATOM     14  C   UNL     1       1.394   9.235  18.053  0.00  0.00    +0.000 A 
ATOM     15  C   UNL     1       2.173   8.112  18.345  0.00  0.00    +0.000 A 
ATOM     16  C   UNL     1       2.217   7.586  19.644  0.00  0.00    +0.000 A 
ATOM     17  C   UNL     1       1.430   8.182  20.636  0.00  0.00    +0.000 A 
ATOM     18  C   UNL     1       0.653   9.310  20.347  0.00  0.00    +0.000 A 
BRANCH  13  20
ATOM     19  C   UNL     1      -0.880  11.908  18.479  0.00  0.00    +0.000 C 
ATOM     20  C   UNL     1      -0.192  10.963  18.751  0.00  0.00    +0.000 C 
ENDBRANCH  13  20
ENDBRANCH   1  16
TORSDOF 3
ENDMDL
