MODEL 1
REMARK VINA RESULT:      -6.7      0.000      0.000
REMARK  Name = 
REMARK  11 active torsions:
REMARK  status: ('A' for Active; 'I' for Inactive)
REMARK    1  A    between atoms: C_1  and  O_2
REMARK    2  A    between atoms: O_2  and  C_3
REMARK    3  A    between atoms: C_3  and  C_4
REMARK    4  A    between atoms: C_4  and  O_5
REMARK    5  A    between atoms: O_5  and  C_6
REMARK    6  A    between atoms: C_6  and  C_7
REMARK    7  A    between atoms: C_8  and  C_9
REMARK    8  A    between atoms: C_11  and  C_12
REMARK    9  A    between atoms: C_20  and  C_21
REMARK   10  A    between atoms: C_21  and  N_22
REMARK   11  A    between atoms: N_25  and  C_26
REMARK                            x       y       z     vdW  Elec       q    Type
REMARK                         _______ _______ _______ _____ _____    ______ ____
ROOT
ATOM      1  C   UNL     1       1.298   9.398  18.741  0.00  0.00    +0.000 A 
ATOM      2  N   UNL     1       1.828  10.509  18.206  0.00  0.00    +0.000 NA
ATOM      3  N   UNL     1       1.618  11.422  19.180  0.00  0.00    +0.000 N 
ATOM      4  C   UNL     1       0.870  10.928  20.282  0.00  0.00    +0.000 A 
ATOM      5  C   UNL     1       0.240   9.860  19.593  0.00  0.00    +0.000 A 
ATOM      6  C   UNL     1      -1.199  10.458  19.228  0.00  0.00    +0.000 C 
ATOM      7  C   UNL     1      -1.037  11.899  19.797  0.00  0.00    +0.000 A 
ATOM      8  C   UNL     1      -1.976  12.909  19.900  0.00  0.00    +0.000 A 
ATOM      9  C   UNL     1      -2.732  12.878  21.092  0.00  0.00    +0.000 A 
ATOM     10  C   UNL     1      -2.052  12.418  22.232  0.00  0.00    +0.000 A 
ATOM     11  C   UNL     1      -0.690  11.989  22.110  0.00  0.00    +0.000 A 
ATOM     12  C   UNL     1      -0.136  11.832  20.830  0.00  0.00    +0.000 A 
ATOM     13  H   UNL     1       1.653  12.397  18.896  0.00  0.00    +0.000 HD
ENDROOT
BRANCH   1  16
ATOM     14  C   UNL     1       3.544   6.347  17.931  0.00  0.00    +0.000 A 
ATOM     15  C   UNL     1       3.013   7.622  17.644  0.00  0.00    +0.000 A 
ATOM     16  C   UNL     1       2.198   8.180  18.717  0.00  0.00    +0.000 A 
ATOM     17  C   UNL     1       2.205   7.303  19.790  0.00  0.00    +0.000 A 
ATOM     18  S   UNL     1       3.094   5.872  19.519  0.00  0.00    +0.000 S 
BRANCH  14  20
ATOM     19  C   UNL     1       5.035   4.539  16.460  0.00  0.00    +0.000 C 
ATOM     20  C   UNL     1       4.375   5.466  17.098  0.00  0.00    +0.000 C 
BRANCH  19  21
ATOM     21  C   UNL     1       5.804   3.460  15.716  0.00  0.00    +0.000 C 
BRANCH  21  22
ATOM     22  O   UNL     1       6.649   4.064  14.739  0.00  0.00    +0.000 OA
BRANCH  22  23
ATOM     23  C   UNL     1       5.922   4.370  13.546  0.00  0.00    +0.000 C 
BRANCH  23  24
ATOM     24  C   UNL     1       6.646   3.797  12.334  0.00  0.00    +0.000 C 
BRANCH  24  26
ATOM     25  C   UNL     1       4.524   3.061  11.625  0.00  0.00    +0.000 C 
ATOM     26  O   UNL     1       5.892   2.702  11.838  0.00  0.00    +0.000 OA
ENDBRANCH  24  26
ENDBRANCH  23  24
ENDBRANCH  22  23
ENDBRANCH  21  22
ENDBRANCH  19  21
ENDBRANCH  14  20
ENDBRANCH   1  16
BRANCH   9  27
ATOM     27  C   UNL     1      -4.186  13.035  20.729  0.00  0.00    +0.000 C 
BRANCH  27  28
ATOM     28  N   UNL     1      -5.234  13.644  21.559  0.00  0.00    +0.000 NA
ATOM     29  C   UNL     1      -6.361  13.886  20.596  0.00  0.00    +0.000 C 
ATOM     30  C   UNL     1      -7.577  14.604  21.197  0.00  0.00    +0.000 C 
ATOM     31  N   UNL     1      -7.266  15.870  21.876  0.00  0.00    +0.000 NA
ATOM     32  C   UNL     1      -7.095  16.973  20.936  0.00  0.00    +0.000 C 
ATOM     33  C   UNL     1      -6.087  15.684  22.751  0.00  0.00    +0.000 C 
ATOM     34  C   UNL     1      -4.860  14.965  22.110  0.00  0.00    +0.000 C 
ENDBRANCH  27  28
ENDBRANCH   9  27
TORSDOF 9
ENDMDL
MODEL 2
REMARK VINA RESULT:      -6.7      1.210      1.310
REMARK  Name = 
REMARK  11 active torsions:
REMARK  status: ('A' for Active; 'I' for Inactive)
REMARK    1  A    between atoms: C_1  and  O_2
REMARK    2  A    between atoms: O_2  and  C_3
REMARK    3  A    between atoms: C_3  and  C_4
REMARK    4  A    between atoms: C_4  and  O_5
REMARK    5  A    between atoms: O_5  and  C_6
REMARK    6  A    between atoms: C_6  and  C_7
REMARK    7  A    between atoms: C_8  and  C_9
REMARK    8  A    between atoms: C_11  and  C_12
REMARK    9  A    between atoms: C_20  and  C_21
REMARK   10  A    between atoms: C_21  and  N_22
REMARK   11  A    between atoms: N_25  and  C_26
REMARK                            x       y       z     vdW  Elec       q    Type
REMARK                         _______ _______ _______ _____ _____    ______ ____
ROOT
ATOM      1  C   UNL     1       1.344   8.974  18.666  0.00  0.00    +0.000 A 
ATOM      2  N   UNL     1       1.341   9.777  17.590  0.00  0.00    +0.000 NA
ATOM      3  N   UNL     1       1.353  11.006  18.153  0.00  0.00    +0.000 N 
ATOM      4  C   UNL     1       1.259  10.992  19.570  0.00  0.00    +0.000 A 
ATOM      5  C   UNL     1       0.658   9.713  19.687  0.00  0.00    +0.000 A 
ATOM      6  C   UNL     1      -0.897  10.052  19.854  0.00  0.00    +0.000 C 
ATOM      7  C   UNL     1      -0.842  11.604  19.728  0.00  0.00    +0.000 A 
ATOM      8  C   UNL     1      -1.856  12.531  19.893  0.00  0.00    +0.000 A 
ATOM      9  C   UNL     1      -2.023  12.975  21.222  0.00  0.00    +0.000 A 
ATOM     10  C   UNL     1      -0.849  13.058  21.989  0.00  0.00    +0.000 A 
ATOM     11  C   UNL     1       0.398  12.665  21.404  0.00  0.00    +0.000 A 
ATOM     12  C   UNL     1       0.395  12.007  20.164  0.00  0.00    +0.000 A 
ATOM     13  H   UNL     1       1.048  11.774  17.561  0.00  0.00    +0.000 HD
ENDROOT
BRANCH   1  16
ATOM     14  C   UNL     1       4.074   6.335  17.900  0.00  0.00    +0.000 A 
ATOM     15  C   UNL     1       3.408   7.554  17.656  0.00  0.00    +0.000 A 
ATOM     16  C   UNL     1       2.402   7.890  18.656  0.00  0.00    +0.000 A 
ATOM     17  C   UNL     1       2.403   6.916  19.642  0.00  0.00    +0.000 A 
ATOM     18  S   UNL     1       3.509   5.646  19.369  0.00  0.00    +0.000 S 
BRANCH  14  20
ATOM     19  C   UNL     1       5.972   5.163  16.263  0.00  0.00    +0.000 C 
ATOM     20  C   UNL     1       5.113   5.657  17.112  0.00  0.00    +0.000 C 
BRANCH  19  21
ATOM     21  C   UNL     1       6.974   4.587  15.276  0.00  0.00    +0.000 C 
BRANCH  21  22
ATOM     22  O   UNL     1       6.955   5.357  14.075  0.00  0.00    +0.000 OA
BRANCH  22  23
ATOM     23  C   UNL     1       7.434   4.592  12.965  0.00  0.00    +0.000 C 
BRANCH  23  24
ATOM     24  C   UNL     1       6.299   3.766  12.374  0.00  0.00    +0.000 C 
BRANCH  24  26
ATOM     25  C   UNL     1       5.846   1.691  11.353  0.00  0.00    +0.000 C 
ATOM     26  O   UNL     1       6.858   2.624  11.742  0.00  0.00    +0.000 OA
ENDBRANCH  24  26
ENDBRANCH  23  24
ENDBRANCH  22  23
ENDBRANCH  21  22
ENDBRANCH  19  21
ENDBRANCH  14  20
ENDBRANCH   1  16
BRANCH   9  27
ATOM     27  C   UNL     1      -3.492  12.915  21.555  0.00  0.00    +0.000 C 
BRANCH  27  28
ATOM     28  N   UNL     1      -4.147  13.498  22.733  0.00  0.00    +0.000 NA
ATOM     29  C   UNL     1      -5.562  13.004  22.640  0.00  0.00    +0.000 C 
ATOM     30  C   UNL     1      -6.503  13.542  23.726  0.00  0.00    +0.000 C 
ATOM     31  N   UNL     1      -6.529  15.007  23.843  0.00  0.00    +0.000 NA
ATOM     32  C   UNL     1      -7.371  15.627  22.825  0.00  0.00    +0.000 C 
ATOM     33  C   UNL     1      -5.144  15.528  23.826  0.00  0.00    +0.000 C 
ATOM     34  C   UNL     1      -4.214  14.976  22.702  0.00  0.00    +0.000 C 
ENDBRANCH  27  28
ENDBRANCH   9  27
TORSDOF 9
ENDMDL
MODEL 3
REMARK VINA RESULT:      -6.6      1.058      1.231
REMARK  Name = 
REMARK  11 active torsions:
REMARK  status: ('A' for Active; 'I' for Inactive)
REMARK    1  A    between atoms: C_1  and  O_2
REMARK    2  A    between atoms: O_2  and  C_3
REMARK    3  A    between atoms: C_3  and  C_4
REMARK    4  A    between atoms: C_4  and  O_5
REMARK    5  A    between atoms: O_5  and  C_6
REMARK    6  A    between atoms: C_6  and  C_7
REMARK    7  A    between atoms: C_8  and  C_9
REMARK    8  A    between atoms: C_11  and  C_12
REMARK    9  A    between atoms: C_20  and  C_21
REMARK   10  A    between atoms: C_21  and  N_22
REMARK   11  A    between atoms: N_25  and  C_26
REMARK                            x       y       z     vdW  Elec       q    Type
REMARK                         _______ _______ _______ _____ _____    ______ ____
ROOT
ATOM      1  C   UNL     1       1.472   9.304  18.289  0.00  0.00    +0.000 A 
ATOM      2  N   UNL     1       1.859  10.400  17.618  0.00  0.00    +0.000 NA
ATOM      3  N   UNL     1       1.646  11.379  18.525  0.00  0.00    +0.000 N 
ATOM      4  C   UNL     1       1.032  10.929  19.724  0.00  0.00    +0.000 A 
ATOM      5  C   UNL     1       0.446   9.756  19.184  0.00  0.00    +0.000 A 
ATOM      6  C   UNL     1      -1.064  10.201  18.892  0.00  0.00    +0.000 C 
ATOM      7  C   UNL     1      -0.984  11.696  19.321  0.00  0.00    +0.000 A 
ATOM      8  C   UNL     1      -1.998  12.633  19.417  0.00  0.00    +0.000 A 
ATOM      9  C   UNL     1      -2.653  12.651  20.667  0.00  0.00    +0.000 A 
ATOM     10  C   UNL     1      -1.851  12.353  21.780  0.00  0.00    +0.000 A 
ATOM     11  C   UNL     1      -0.470  12.025  21.580  0.00  0.00    +0.000 A 
ATOM     12  C   UNL     1      -0.004  11.797  20.277  0.00  0.00    +0.000 A 
ATOM     13  H   UNL     1       1.574  12.324  18.157  0.00  0.00    +0.000 HD
ENDROOT
BRANCH   1  16
ATOM     14  C   UNL     1       4.130   6.577  17.575  0.00  0.00    +0.000 A 
ATOM     15  C   UNL     1       3.552   7.847  17.368  0.00  0.00    +0.000 A 
ATOM     16  C   UNL     1       2.470   8.165  18.292  0.00  0.00    +0.000 A 
ATOM     17  C   UNL     1       2.325   7.121  19.192  0.00  0.00    +0.000 A 
ATOM     18  S   UNL     1       3.389   5.813  18.923  0.00  0.00    +0.000 S 
BRANCH  14  20
ATOM     19  C   UNL     1       6.032   5.283  16.039  0.00  0.00    +0.000 C 
ATOM     20  C   UNL     1       5.206   5.902  16.836  0.00  0.00    +0.000 C 
BRANCH  19  21
ATOM     21  C   UNL     1       6.995   4.562  15.109  0.00  0.00    +0.000 C 
BRANCH  21  22
ATOM     22  O   UNL     1       6.330   3.459  14.497  0.00  0.00    +0.000 OA
BRANCH  22  23
ATOM     23  C   UNL     1       5.699   3.852  13.274  0.00  0.00    +0.000 C 
BRANCH  23  24
ATOM     24  C   UNL     1       6.715   3.846  12.140  0.00  0.00    +0.000 C 
BRANCH  24  26
ATOM     25  C   UNL     1       5.662   1.882  11.377  0.00  0.00    +0.000 C 
ATOM     26  O   UNL     1       6.904   2.505  11.716  0.00  0.00    +0.000 OA
ENDBRANCH  24  26
ENDBRANCH  23  24
ENDBRANCH  22  23
ENDBRANCH  21  22
ENDBRANCH  19  21
ENDBRANCH  14  20
ENDBRANCH   1  16
BRANCH   9  27
ATOM     27  C   UNL     1      -4.140  12.657  20.415  0.00  0.00    +0.000 C 
BRANCH  27  28
ATOM     28  N   UNL     1      -5.192  12.945  21.399  0.00  0.00    +0.000 NA
ATOM     29  C   UNL     1      -5.537  14.385  21.146  0.00  0.00    +0.000 C 
ATOM     30  C   UNL     1      -6.574  14.976  22.110  0.00  0.00    +0.000 C 
ATOM     31  N   UNL     1      -6.245  14.822  23.534  0.00  0.00    +0.000 NA
ATOM     32  C   UNL     1      -5.275  15.815  23.987  0.00  0.00    +0.000 C 
ATOM     33  C   UNL     1      -5.795  13.435  23.788  0.00  0.00    +0.000 C 
ATOM     34  C   UNL     1      -4.729  12.864  22.802  0.00  0.00    +0.000 C 
ENDBRANCH  27  28
ENDBRANCH   9  27
TORSDOF 9
ENDMDL
MODEL 4
REMARK VINA RESULT:      -6.6      3.326      4.029
REMARK  Name = 
REMARK  11 active torsions:
REMARK  status: ('A' for Active; 'I' for Inactive)
REMARK    1  A    between atoms: C_1  and  O_2
REMARK    2  A    between atoms: O_2  and  C_3
REMARK    3  A    between atoms: C_3  and  C_4
REMARK    4  A    between atoms: C_4  and  O_5
REMARK    5  A    between atoms: O_5  and  C_6
REMARK    6  A    between atoms: C_6  and  C_7
REMARK    7  A    between atoms: C_8  and  C_9
REMARK    8  A    between atoms: C_11  and  C_12
REMARK    9  A    between atoms: C_20  and  C_21
REMARK   10  A    between atoms: C_21  and  N_22
REMARK   11  A    between atoms: N_25  and  C_26
REMARK                            x       y       z     vdW  Elec       q    Type
REMARK                         _______ _______ _______ _____ _____    ______ ____
ROOT
ATOM      1  C   UNL     1       1.582   9.149  17.958  0.00  0.00    +0.000 A 
ATOM      2  N   UNL     1       2.063  10.270  17.399  0.00  0.00    +0.000 NA
ATOM      3  N   UNL     1       1.910  11.172  18.394  0.00  0.00    +0.000 N 
ATOM      4  C   UNL     1       1.243  10.660  19.539  0.00  0.00    +0.000 A 
ATOM      5  C   UNL     1       0.579   9.592  18.883  0.00  0.00    +0.000 A 
ATOM      6  C   UNL     1      -0.888  10.178  18.621  0.00  0.00    +0.000 C 
ATOM      7  C   UNL     1      -0.702  11.615  19.192  0.00  0.00    +0.000 A 
ATOM      8  C   UNL     1      -1.642  12.615  19.367  0.00  0.00    +0.000 A 
ATOM      9  C   UNL     1      -2.316  12.565  20.607  0.00  0.00    +0.000 A 
ATOM     10  C   UNL     1      -1.557  12.102  21.694  0.00  0.00    +0.000 A 
ATOM     11  C   UNL     1      -0.202  11.688  21.477  0.00  0.00    +0.000 A 
ATOM     12  C   UNL     1       0.267  11.549  20.162  0.00  0.00    +0.000 A 
ATOM     13  H   UNL     1       1.916  12.150  18.118  0.00  0.00    +0.000 HD
ENDROOT
BRANCH   1  16
ATOM     14  C   UNL     1       3.621   5.883  18.388  0.00  0.00    +0.000 A 
ATOM     15  C   UNL     1       2.478   6.682  18.598  0.00  0.00    +0.000 A 
ATOM     16  C   UNL     1       2.490   7.941  17.862  0.00  0.00    +0.000 A 
ATOM     17  C   UNL     1       3.636   7.997  17.085  0.00  0.00    +0.000 A 
ATOM     18  S   UNL     1       4.665   6.647  17.257  0.00  0.00    +0.000 S 
BRANCH  14  20
ATOM     19  C   UNL     1       4.237   3.502  19.655  0.00  0.00    +0.000 C 
ATOM     20  C   UNL     1       3.979   4.582  18.970  0.00  0.00    +0.000 C 
BRANCH  19  21
ATOM     21  C   UNL     1       4.538   2.244  20.453  0.00  0.00    +0.000 C 
BRANCH  21  22
ATOM     22  O   UNL     1       3.468   1.987  21.359  0.00  0.00    +0.000 OA
BRANCH  22  23
ATOM     23  C   UNL     1       2.657   3.152  21.542  0.00  0.00    +0.000 C 
BRANCH  23  24
ATOM     24  C   UNL     1       1.192   2.807  21.311  0.00  0.00    +0.000 C 
BRANCH  24  26
ATOM     25  C   UNL     1       0.767   2.543  19.009  0.00  0.00    +0.000 C 
ATOM     26  O   UNL     1       0.765   3.446  20.117  0.00  0.00    +0.000 OA
ENDBRANCH  24  26
ENDBRANCH  23  24
ENDBRANCH  22  23
ENDBRANCH  21  22
ENDBRANCH  19  21
ENDBRANCH  14  20
ENDBRANCH   1  16
BRANCH   9  27
ATOM     27  C   UNL     1      -3.793  12.710  20.343  0.00  0.00    +0.000 C 
BRANCH  27  28
ATOM     28  N   UNL     1      -4.739  13.542  21.099  0.00  0.00    +0.000 NA
ATOM     29  C   UNL     1      -4.031  14.859  21.235  0.00  0.00    +0.000 C 
ATOM     30  C   UNL     1      -4.778  15.907  22.070  0.00  0.00    +0.000 C 
ATOM     31  N   UNL     1      -5.175  15.452  23.411  0.00  0.00    +0.000 NA
ATOM     32  C   UNL     1      -4.067  15.503  24.360  0.00  0.00    +0.000 C 
ATOM     33  C   UNL     1      -5.777  14.104  23.316  0.00  0.00    +0.000 C 
ATOM     34  C   UNL     1      -4.989  13.055  22.473  0.00  0.00    +0.000 C 
ENDBRANCH  27  28
ENDBRANCH   9  27
TORSDOF 9
ENDMDL
MODEL 5
REMARK VINA RESULT:      -6.6      2.856      4.220
REMARK  Name = 
REMARK  11 active torsions:
REMARK  status: ('A' for Active; 'I' for Inactive)
REMARK    1  A    between atoms: C_1  and  O_2
REMARK    2  A    between atoms: O_2  and  C_3
REMARK    3  A    between atoms: C_3  and  C_4
REMARK    4  A    between atoms: C_4  and  O_5
REMARK    5  A    between atoms: O_5  and  C_6
REMARK    6  A    between atoms: C_6  and  C_7
REMARK    7  A    between atoms: C_8  and  C_9
REMARK    8  A    between atoms: C_11  and  C_12
REMARK    9  A    between atoms: C_20  and  C_21
REMARK   10  A    between atoms: C_21  and  N_22
REMARK   11  A    between atoms: N_25  and  C_26
REMARK                            x       y       z     vdW  Elec       q    Type
REMARK                         _______ _______ _______ _____ _____    ______ ____
ROOT
ATOM      1  C   UNL     1       0.579  10.541  21.427  0.00  0.00    +0.000 A 
ATOM      2  N   UNL     1       0.703  10.166  22.710  0.00  0.00    +0.000 NA
ATOM      3  N   UNL     1      -0.532  10.416  23.200  0.00  0.00    +0.000 N 
ATOM      4  C   UNL     1      -1.405  11.041  22.270  0.00  0.00    +0.000 A 
ATOM      5  C   UNL     1      -0.398  11.592  21.437  0.00  0.00    +0.000 A 
ATOM      6  C   UNL     1      -0.288  13.105  21.946  0.00  0.00    +0.000 C 
ATOM      7  C   UNL     1      -1.321  13.066  23.111  0.00  0.00    +0.000 A 
ATOM      8  C   UNL     1      -1.786  14.101  23.904  0.00  0.00    +0.000 A 
ATOM      9  C   UNL     1      -2.905  14.778  23.374  0.00  0.00    +0.000 A 
ATOM     10  C   UNL     1      -3.801  13.989  22.635  0.00  0.00    +0.000 A 
ATOM     11  C   UNL     1      -3.514  12.598  22.442  0.00  0.00    +0.000 A 
ATOM     12  C   UNL     1      -2.251  12.105  22.803  0.00  0.00    +0.000 A 
ATOM     13  H   UNL     1      -0.605  10.502  24.210  0.00  0.00    +0.000 HD
ENDROOT
BRANCH   1  16
ATOM     14  C   UNL     1       2.145   7.633  19.403  0.00  0.00    +0.000 A 
ATOM     15  C   UNL     1       1.643   8.203  20.591  0.00  0.00    +0.000 A 
ATOM     16  C   UNL     1       1.041   9.519  20.410  0.00  0.00    +0.000 A 
ATOM     17  C   UNL     1       1.078   9.850  19.064  0.00  0.00    +0.000 A 
ATOM     18  S   UNL     1       1.830   8.678  18.077  0.00  0.00    +0.000 S 
BRANCH  14  20
ATOM     19  C   UNL     1       3.615   5.316  19.048  0.00  0.00    +0.000 C 
ATOM     20  C   UNL     1       2.838   6.354  19.194  0.00  0.00    +0.000 C 
BRANCH  19  21
ATOM     21  C   UNL     1       4.519   4.106  18.878  0.00  0.00    +0.000 C 
BRANCH  21  22
ATOM     22  O   UNL     1       4.946   4.018  17.520  0.00  0.00    +0.000 OA
BRANCH  22  23
ATOM     23  C   UNL     1       5.697   5.175  17.140  0.00  0.00    +0.000 C 
BRANCH  23  24
ATOM     24  C   UNL     1       7.133   4.780  16.818  0.00  0.00    +0.000 C 
BRANCH  24  26
ATOM     25  C   UNL     1       6.745   4.750  14.494  0.00  0.00    +0.000 C 
ATOM     26  O   UNL     1       7.483   5.347  15.565  0.00  0.00    +0.000 OA
ENDBRANCH  24  26
ENDBRANCH  23  24
ENDBRANCH  22  23
ENDBRANCH  21  22
ENDBRANCH  19  21
ENDBRANCH  14  20
ENDBRANCH   1  16
BRANCH   9  27
ATOM     27  C   UNL     1      -2.643  16.260  23.470  0.00  0.00    +0.000 C 
BRANCH  27  28
ATOM     28  N   UNL     1      -2.006  17.103  22.450  0.00  0.00    +0.000 NA
ATOM     29  C   UNL     1      -2.425  16.476  21.151  0.00  0.00    +0.000 C 
ATOM     30  C   UNL     1      -1.819  17.125  19.899  0.00  0.00    +0.000 C 
ATOM     31  N   UNL     1      -0.353  17.229  19.912  0.00  0.00    +0.000 NA
ATOM     32  C   UNL     1       0.293  15.969  19.557  0.00  0.00    +0.000 C 
ATOM     33  C   UNL     1       0.093  17.743  21.226  0.00  0.00    +0.000 C 
ATOM     34  C   UNL     1      -0.527  17.056  22.482  0.00  0.00    +0.000 C 
ENDBRANCH  27  28
ENDBRANCH   9  27
TORSDOF 9
ENDMDL
MODEL 6
REMARK VINA RESULT:      -6.5      2.742      3.636
REMARK  Name = 
REMARK  11 active torsions:
REMARK  status: ('A' for Active; 'I' for Inactive)
REMARK    1  A    between atoms: C_1  and  O_2
REMARK    2  A    between atoms: O_2  and  C_3
REMARK    3  A    between atoms: C_3  and  C_4
REMARK    4  A    between atoms: C_4  and  O_5
REMARK    5  A    between atoms: O_5  and  C_6
REMARK    6  A    between atoms: C_6  and  C_7
REMARK    7  A    between atoms: C_8  and  C_9
REMARK    8  A    between atoms: C_11  and  C_12
REMARK    9  A    between atoms: C_20  and  C_21
REMARK   10  A    between atoms: C_21  and  N_22
REMARK   11  A    between atoms: N_25  and  C_26
REMARK                            x       y       z     vdW  Elec       q    Type
REMARK                         _______ _______ _______ _____ _____    ______ ____
ROOT
ATOM      1  C   UNL     1       0.614  10.734  19.291  0.00  0.00    +0.000 A 
ATOM      2  N   UNL     1       1.400  11.803  19.087  0.00  0.00    +0.000 NA
ATOM      3  N   UNL     1       1.257  12.486  20.245  0.00  0.00    +0.000 N 
ATOM      4  C   UNL     1       0.309  11.916  21.137  0.00  0.00    +0.000 A 
ATOM      5  C   UNL     1      -0.428  11.196  20.163  0.00  0.00    +0.000 A 
ATOM      6  C   UNL     1      -1.678  12.152  19.869  0.00  0.00    +0.000 C 
ATOM      7  C   UNL     1      -1.313  13.352  20.792  0.00  0.00    +0.000 A 
ATOM      8  C   UNL     1      -2.051  14.485  21.086  0.00  0.00    +0.000 A 
ATOM      9  C   UNL     1      -2.929  14.336  22.181  0.00  0.00    +0.000 A 
ATOM     10  C   UNL     1      -2.482  13.490  23.209  0.00  0.00    +0.000 A 
ATOM     11  C   UNL     1      -1.221  12.825  23.070  0.00  0.00    +0.000 A 
ATOM     12  C   UNL     1      -0.564  12.858  21.830  0.00  0.00    +0.000 A 
ATOM     13  H   UNL     1       1.507  13.471  20.218  0.00  0.00    +0.000 HD
ENDROOT
BRANCH   1  16
ATOM     14  C   UNL     1       2.212   7.205  19.337  0.00  0.00    +0.000 A 
ATOM     15  C   UNL     1       1.322   8.183  19.828  0.00  0.00    +0.000 A 
ATOM     16  C   UNL     1       1.265   9.394  19.018  0.00  0.00    +0.000 A 
ATOM     17  C   UNL     1       2.090   9.238  17.915  0.00  0.00    +0.000 A 
ATOM     18  S   UNL     1       2.922   7.749  17.870  0.00  0.00    +0.000 S 
BRANCH  14  20
ATOM     19  C   UNL     1       2.690   4.662  20.316  0.00  0.00    +0.000 C 
ATOM     20  C   UNL     1       2.558   5.887  19.888  0.00  0.00    +0.000 C 
BRANCH  19  21
ATOM     21  C   UNL     1       2.844   3.234  20.814  0.00  0.00    +0.000 C 
BRANCH  21  22
ATOM     22  O   UNL     1       4.007   2.650  20.232  0.00  0.00    +0.000 OA
BRANCH  22  23
ATOM     23  C   UNL     1       3.909   2.621  18.805  0.00  0.00    +0.000 C 
BRANCH  23  24
ATOM     24  C   UNL     1       4.955   3.545  18.193  0.00  0.00    +0.000 C 
BRANCH  24  26
ATOM     25  C   UNL     1       6.223   5.332  19.058  0.00  0.00    +0.000 C 
ATOM     26  O   UNL     1       5.838   3.965  19.223  0.00  0.00    +0.000 OA
ENDBRANCH  24  26
ENDBRANCH  23  24
ENDBRANCH  22  23
ENDBRANCH  21  22
ENDBRANCH  19  21
ENDBRANCH  14  20
ENDBRANCH   1  16
BRANCH   9  27
ATOM     27  C   UNL     1      -4.277  14.876  21.777  0.00  0.00    +0.000 C 
BRANCH  27  28
ATOM     28  N   UNL     1      -5.266  14.207  20.920  0.00  0.00    +0.000 NA
ATOM     29  C   UNL     1      -6.575  14.472  21.607  0.00  0.00    +0.000 C 
ATOM     30  C   UNL     1      -7.791  13.803  20.952  0.00  0.00    +0.000 C 
ATOM     31  N   UNL     1      -7.657  12.352  20.751  0.00  0.00    +0.000 NA
ATOM     32  C   UNL     1      -7.917  11.600  21.975  0.00  0.00    +0.000 C 
ATOM     33  C   UNL     1      -6.327  12.056  20.176  0.00  0.00    +0.000 C 
ATOM     34  C   UNL     1      -5.107  12.737  20.869  0.00  0.00    +0.000 C 
ENDBRANCH  27  28
ENDBRANCH   9  27
TORSDOF 9
ENDMDL
MODEL 7
REMARK VINA RESULT:      -6.5      3.423      4.993
REMARK  Name = 
REMARK  11 active torsions:
REMARK  status: ('A' for Active; 'I' for Inactive)
REMARK    1  A    between atoms: C_1  and  O_2
REMARK    2  A    between atoms: O_2  and  C_3
REMARK    3  A    between atoms: C_3  and  C_4
REMARK    4  A    between atoms: C_4  and  O_5
REMARK    5  A    between atoms: O_5  and  C_6
REMARK    6  A    between atoms: C_6  and  C_7
REMARK    7  A    between atoms: C_8  and  C_9
REMARK    8  A    between atoms: C_11  and  C_12
REMARK    9  A    between atoms: C_20  and  C_21
REMARK   10  A    between atoms: C_21  and  N_22
REMARK   11  A    between atoms: N_25  and  C_26
REMARK                            x       y       z     vdW  Elec       q    Type
REMARK                         _______ _______ _______ _____ _____    ______ ____
ROOT
ATOM      1  C   UNL     1       1.493   8.563  20.650  0.00  0.00    +0.000 A 
ATOM      2  N   UNL     1       0.905   8.488  21.854  0.00  0.00    +0.000 NA
ATOM      3  N   UNL     1      -0.281   9.096  21.629  0.00  0.00    +0.000 N 
ATOM      4  C   UNL     1      -0.408   9.647  20.326  0.00  0.00    +0.000 A 
ATOM      5  C   UNL     1       0.979   9.763  20.055  0.00  0.00    +0.000 A 
ATOM      6  C   UNL     1       1.289  11.298  20.383  0.00  0.00    +0.000 C 
ATOM      7  C   UNL     1      -0.119  11.752  20.870  0.00  0.00    +0.000 A 
ATOM      8  C   UNL     1      -0.562  13.019  21.206  0.00  0.00    +0.000 A 
ATOM      9  C   UNL     1      -1.062  13.765  20.117  0.00  0.00    +0.000 A 
ATOM     10  C   UNL     1      -1.714  13.023  19.119  0.00  0.00    +0.000 A 
ATOM     11  C   UNL     1      -1.798  11.599  19.247  0.00  0.00    +0.000 A 
ATOM     12  C   UNL     1      -1.046  10.957  20.244  0.00  0.00    +0.000 A 
ATOM     13  H   UNL     1      -0.775   9.435  22.450  0.00  0.00    +0.000 HD
ENDROOT
BRANCH   1  16
ATOM     14  C   UNL     1       2.994   5.602  18.653  0.00  0.00    +0.000 A 
ATOM     15  C   UNL     1       2.869   6.974  18.953  0.00  0.00    +0.000 A 
ATOM     16  C   UNL     1       2.040   7.254  20.119  0.00  0.00    +0.000 A 
ATOM     17  C   UNL     1       1.622   6.054  20.672  0.00  0.00    +0.000 A 
ATOM     18  S   UNL     1       2.149   4.671  19.823  0.00  0.00    +0.000 S 
BRANCH  14  20
ATOM     19  C   UNL     1       4.467   4.288  16.714  0.00  0.00    +0.000 C 
ATOM     20  C   UNL     1       3.712   4.941  17.553  0.00  0.00    +0.000 C 
BRANCH  19  21
ATOM     21  C   UNL     1       5.347   3.525  15.736  0.00  0.00    +0.000 C 
BRANCH  21  22
ATOM     22  O   UNL     1       5.437   4.251  14.512  0.00  0.00    +0.000 OA
BRANCH  22  23
ATOM     23  C   UNL     1       6.700   4.914  14.398  0.00  0.00    +0.000 C 
BRANCH  23  24
ATOM     24  C   UNL     1       7.380   4.975  15.760  0.00  0.00    +0.000 C 
BRANCH  24  26
ATOM     25  C   UNL     1       7.357   6.499  17.556  0.00  0.00    +0.000 C 
ATOM     26  O   UNL     1       7.496   6.337  16.142  0.00  0.00    +0.000 OA
ENDBRANCH  24  26
ENDBRANCH  23  24
ENDBRANCH  22  23
ENDBRANCH  21  22
ENDBRANCH  19  21
ENDBRANCH  14  20
ENDBRANCH   1  16
BRANCH   9  27
ATOM     27  C   UNL     1      -0.446  15.141  20.170  0.00  0.00    +0.000 C 
BRANCH  27  28
ATOM     28  N   UNL     1       0.974  15.470  19.993  0.00  0.00    +0.000 NA
ATOM     29  C   UNL     1       0.968  16.942  19.694  0.00  0.00    +0.000 C 
ATOM     30  C   UNL     1       2.346  17.539  19.380  0.00  0.00    +0.000 C 
ATOM     31  N   UNL     1       3.083  16.851  18.310  0.00  0.00    +0.000 NA
ATOM     32  C   UNL     1       2.624  17.246  16.982  0.00  0.00    +0.000 C 
ATOM     33  C   UNL     1       3.010  15.389  18.523  0.00  0.00    +0.000 C 
ATOM     34  C   UNL     1       1.595  14.806  18.825  0.00  0.00    +0.000 C 
ENDBRANCH  27  28
ENDBRANCH   9  27
TORSDOF 9
ENDMDL
MODEL 8
REMARK VINA RESULT:      -6.3      1.689      2.480
REMARK  Name = 
REMARK  11 active torsions:
REMARK  status: ('A' for Active; 'I' for Inactive)
REMARK    1  A    between atoms: C_1  and  O_2
REMARK    2  A    between atoms: O_2  and  C_3
REMARK    3  A    between atoms: C_3  and  C_4
REMARK    4  A    between atoms: C_4  and  O_5
REMARK    5  A    between atoms: O_5  and  C_6
REMARK    6  A    between atoms: C_6  and  C_7
REMARK    7  A    between atoms: C_8  and  C_9
REMARK    8  A    between atoms: C_11  and  C_12
REMARK    9  A    between atoms: C_20  and  C_21
REMARK   10  A    between atoms: C_21  and  N_22
REMARK   11  A    between atoms: N_25  and  C_26
REMARK                            x       y       z     vdW  Elec       q    Type
REMARK                         _______ _______ _______ _____ _____    ______ ____
ROOT
ATOM      1  C   UNL     1       0.876   9.857  19.677  0.00  0.00    +0.000 A 
ATOM      2  N   UNL     1       1.633  10.911  19.336  0.00  0.00    +0.000 NA
ATOM      3  N   UNL     1       1.399  11.770  20.353  0.00  0.00    +0.000 N 
ATOM      4  C   UNL     1       0.424  11.314  21.280  0.00  0.00    +0.000 A 
ATOM      5  C   UNL     1      -0.230  10.410  20.406  0.00  0.00    +0.000 A 
ATOM      6  C   UNL     1      -1.495  11.245  19.892  0.00  0.00    +0.000 C 
ATOM      7  C   UNL     1      -1.228  12.598  20.617  0.00  0.00    +0.000 A 
ATOM      8  C   UNL     1      -2.022  13.729  20.679  0.00  0.00    +0.000 A 
ATOM      9  C   UNL     1      -2.955  13.724  21.738  0.00  0.00    +0.000 A 
ATOM     10  C   UNL     1      -2.537  13.082  22.915  0.00  0.00    +0.000 A 
ATOM     11  C   UNL     1      -1.246  12.461  22.953  0.00  0.00    +0.000 A 
ATOM     12  C   UNL     1      -0.521  12.318  21.760  0.00  0.00    +0.000 A 
ATOM     13  H   UNL     1       1.614  12.747  20.174  0.00  0.00    +0.000 HD
ENDROOT
BRANCH   1  16
ATOM     14  C   UNL     1       2.647   6.499  18.903  0.00  0.00    +0.000 A 
ATOM     15  C   UNL     1       2.300   7.832  18.596  0.00  0.00    +0.000 A 
ATOM     16  C   UNL     1       1.591   8.521  19.667  0.00  0.00    +0.000 A 
ATOM     17  C   UNL     1       1.486   7.673  20.758  0.00  0.00    +0.000 A 
ATOM     18  S   UNL     1       2.156   6.123  20.505  0.00  0.00    +0.000 S 
BRANCH  14  20
ATOM     19  C   UNL     1       3.961   4.741  17.218  0.00  0.00    +0.000 C 
ATOM     20  C   UNL     1       3.329   5.492  18.078  0.00  0.00    +0.000 C 
BRANCH  19  21
ATOM     21  C   UNL     1       4.697   3.866  16.216  0.00  0.00    +0.000 C 
BRANCH  21  22
ATOM     22  O   UNL     1       5.252   4.683  15.188  0.00  0.00    +0.000 OA
BRANCH  22  23
ATOM     23  C   UNL     1       6.606   4.313  14.909  0.00  0.00    +0.000 C 
BRANCH  23  24
ATOM     24  C   UNL     1       7.527   4.857  15.993  0.00  0.00    +0.000 C 
BRANCH  24  26
ATOM     25  C   UNL     1       7.371   6.647  17.517  0.00  0.00    +0.000 C 
ATOM     26  O   UNL     1       7.265   6.243  16.149  0.00  0.00    +0.000 OA
ENDBRANCH  24  26
ENDBRANCH  23  24
ENDBRANCH  22  23
ENDBRANCH  21  22
ENDBRANCH  19  21
ENDBRANCH  14  20
ENDBRANCH   1  16
BRANCH   9  27
ATOM     27  C   UNL     1      -4.297  14.127  21.182  0.00  0.00    +0.000 C 
BRANCH  27  28
ATOM     28  N   UNL     1      -5.222  15.112  21.758  0.00  0.00    +0.000 NA
ATOM     29  C   UNL     1      -4.375  16.338  21.941  0.00  0.00    +0.000 C 
ATOM     30  C   UNL     1      -5.088  17.517  22.615  0.00  0.00    +0.000 C 
ATOM     31  N   UNL     1      -5.722  17.195  23.902  0.00  0.00    +0.000 NA
ATOM     32  C   UNL     1      -4.760  17.165  24.999  0.00  0.00    +0.000 C 
ATOM     33  C   UNL     1      -6.476  15.928  23.776  0.00  0.00    +0.000 C 
ATOM     34  C   UNL     1      -5.722  14.741  23.100  0.00  0.00    +0.000 C 
ENDBRANCH  27  28
ENDBRANCH   9  27
TORSDOF 9
ENDMDL
MODEL 9
REMARK VINA RESULT:      -6.3      2.102      3.356
REMARK  Name = 
REMARK  11 active torsions:
REMARK  status: ('A' for Active; 'I' for Inactive)
REMARK    1  A    between atoms: C_1  and  O_2
REMARK    2  A    between atoms: O_2  and  C_3
REMARK    3  A    between atoms: C_3  and  C_4
REMARK    4  A    between atoms: C_4  and  O_5
REMARK    5  A    between atoms: O_5  and  C_6
REMARK    6  A    between atoms: C_6  and  C_7
REMARK    7  A    between atoms: C_8  and  C_9
REMARK    8  A    between atoms: C_11  and  C_12
REMARK    9  A    between atoms: C_20  and  C_21
REMARK   10  A    between atoms: C_21  and  N_22
REMARK   11  A    between atoms: N_25  and  C_26
REMARK                            x       y       z     vdW  Elec       q    Type
REMARK                         _______ _______ _______ _____ _____    ______ ____
ROOT
ATOM      1  C   UNL     1       0.815   9.895  19.807  0.00  0.00    +0.000 A 
ATOM      2  N   UNL     1       1.616  10.970  19.862  0.00  0.00    +0.000 NA
ATOM      3  N   UNL     1       1.107  11.650  20.914  0.00  0.00    +0.000 N 
ATOM      4  C   UNL     1      -0.069  11.071  21.460  0.00  0.00    +0.000 A 
ATOM      5  C   UNL     1      -0.454  10.347  20.303  0.00  0.00    +0.000 A 
ATOM      6  C   UNL     1      -1.554  11.293  19.627  0.00  0.00    +0.000 C 
ATOM      7  C   UNL     1      -1.510  12.494  20.617  0.00  0.00    +0.000 A 
ATOM      8  C   UNL     1      -2.313  13.621  20.661  0.00  0.00    +0.000 A 
ATOM      9  C   UNL     1      -3.492  13.462  21.422  0.00  0.00    +0.000 A 
ATOM     10  C   UNL     1      -3.387  12.618  22.539  0.00  0.00    +0.000 A 
ATOM     11  C   UNL     1      -2.140  11.963  22.807  0.00  0.00    +0.000 A 
ATOM     12  C   UNL     1      -1.125  12.005  21.840  0.00  0.00    +0.000 A 
ATOM     13  H   UNL     1       1.345  12.637  20.967  0.00  0.00    +0.000 HD
ENDROOT
BRANCH   1  16
ATOM     14  C   UNL     1       2.621   6.582  18.930  0.00  0.00    +0.000 A 
ATOM     15  C   UNL     1       2.287   7.929  18.682  0.00  0.00    +0.000 A 
ATOM     16  C   UNL     1       1.530   8.561  19.756  0.00  0.00    +0.000 A 
ATOM     17  C   UNL     1       1.378   7.654  20.793  0.00  0.00    +0.000 A 
ATOM     18  S   UNL     1       2.060   6.120  20.486  0.00  0.00    +0.000 S 
BRANCH  14  20
ATOM     19  C   UNL     1       4.018   4.918  17.217  0.00  0.00    +0.000 C 
ATOM     20  C   UNL     1       3.341   5.620  18.083  0.00  0.00    +0.000 C 
BRANCH  19  21
ATOM     21  C   UNL     1       4.808   4.100  16.208  0.00  0.00    +0.000 C 
BRANCH  21  22
ATOM     22  O   UNL     1       5.789   4.928  15.587  0.00  0.00    +0.000 OA
BRANCH  22  23
ATOM     23  C   UNL     1       5.893   6.190  16.252  0.00  0.00    +0.000 C 
BRANCH  23  24
ATOM     24  C   UNL     1       7.239   6.296  16.958  0.00  0.00    +0.000 C 
BRANCH  24  26
ATOM     25  C   UNL     1       7.546   5.606  19.189  0.00  0.00    +0.000 C 
ATOM     26  O   UNL     1       7.005   6.607  18.323  0.00  0.00    +0.000 OA
ENDBRANCH  24  26
ENDBRANCH  23  24
ENDBRANCH  22  23
ENDBRANCH  21  22
ENDBRANCH  19  21
ENDBRANCH  14  20
ENDBRANCH   1  16
BRANCH   9  27
ATOM     27  C   UNL     1      -4.647  13.992  20.610  0.00  0.00    +0.000 C 
BRANCH  27  28
ATOM     28  N   UNL     1      -5.323  13.306  19.501  0.00  0.00    +0.000 NA
ATOM     29  C   UNL     1      -6.696  13.021  20.037  0.00  0.00    +0.000 C 
ATOM     30  C   UNL     1      -7.602  12.222  19.091  0.00  0.00    +0.000 C 
ATOM     31  N   UNL     1      -7.021  10.961  18.605  0.00  0.00    +0.000 NA
ATOM     32  C   UNL     1      -7.127   9.890  19.591  0.00  0.00    +0.000 C 
ATOM     33  C   UNL     1      -5.626  11.196  18.172  0.00  0.00    +0.000 C 
ATOM     34  C   UNL     1      -4.723  11.997  19.160  0.00  0.00    +0.000 C 
ENDBRANCH  27  28
ENDBRANCH   9  27
TORSDOF 9
ENDMDL
