MODEL 1
REMARK VINA RESULT:      -7.9      0.000      0.000
REMARK  Name = 
REMARK  4 active torsions:
REMARK  status: ('A' for Active; 'I' for Inactive)
REMARK    1  A    between atoms: C_1  and  O_2
REMARK    2  A    between atoms: O_2  and  C_3
REMARK    3  A    between atoms: C_31  and  O_32
REMARK    4  A    between atoms: O_32  and  C_33
REMARK                            x       y       z     vdW  Elec       q    Type
REMARK                         _______ _______ _______ _____ _____    ______ ____
ROOT
ATOM      1  C   UNL     1      -2.953  13.692  23.669  0.00  0.00    +0.000 A 
ATOM      2  C   UNL     1      -2.459  12.571  22.988  0.00  0.00    +0.000 A 
ATOM      3  C   UNL     1      -1.873  12.672  21.737  0.00  0.00    +0.000 A 
ATOM      4  N   UNL     1      -1.384  11.565  21.170  0.00  0.00    +0.000 NA
ATOM      5  C   UNL     1      -0.787  11.664  19.976  0.00  0.00    +0.000 A 
ATOM      6  N   UNL     1      -0.282  10.530  19.398  0.00  0.00    +0.000 N 
ATOM      7  C   UNL     1       0.380  10.577  18.098  0.00  0.00    +0.000 C 
ATOM      8  C   UNL     1       1.833  10.067  18.212  0.00  0.00    +0.000 C 
ATOM      9  N   UNL     1       1.859   8.746  18.856  0.00  0.00    +0.000 N 
ATOM     10  C   UNL     1       2.617   7.689  18.392  0.00  0.00    +0.000 A 
ATOM     11  C   UNL     1       3.708   7.902  17.573  0.00  0.00    +0.000 A 
ATOM     12  C   UNL     1       4.355   6.796  17.092  0.00  0.00    +0.000 A 
ATOM     13  N   UNL     1       3.976   5.546  17.373  0.00  0.00    +0.000 NA
ATOM     14  C   UNL     1       2.932   5.387  18.199  0.00  0.00    +0.000 A 
ATOM     15  N   UNL     1       2.619   4.100  18.575  0.00  0.00    +0.000 N 
ATOM     16  C   UNL     1       1.391   3.833  19.317  0.00  0.00    +0.000 C 
ATOM     17  C   UNL     1       1.600   2.540  20.128  0.00  0.00    +0.000 C 
ATOM     18  O   UNL     1       1.962   1.434  19.280  0.00  0.00    +0.000 OA
ATOM     19  C   UNL     1       3.181   1.725  18.571  0.00  0.00    +0.000 C 
ATOM     20  C   UNL     1       3.050   2.993  17.713  0.00  0.00    +0.000 C 
ATOM     21  N   UNL     1       2.253   6.429  18.723  0.00  0.00    +0.000 NA
ATOM     22  C   UNL     1       1.190   8.675  20.166  0.00  0.00    +0.000 C 
ATOM     23  C   UNL     1      -0.253   9.235  20.088  0.00  0.00    +0.000 C 
ATOM     24  N   UNL     1      -0.678  12.828  19.320  0.00  0.00    +0.000 NA
ATOM     25  C   UNL     1      -1.187  13.929  19.887  0.00  0.00    +0.000 A 
ATOM     26  N   UNL     1      -1.015  15.110  19.155  0.00  0.00    +0.000 N 
ATOM     27  C   UNL     1      -1.809  13.923  21.134  0.00  0.00    +0.000 A 
ATOM     28  C   UNL     1      -2.342  15.062  21.790  0.00  0.00    +0.000 A 
ATOM     29  C   UNL     1      -2.922  14.952  23.053  0.00  0.00    +0.000 A 
ATOM     30  H   UNL     1      -0.572  14.851  18.278  0.00  0.00    +0.000 HD
ATOM     31  H   UNL     1      -1.899  15.580  18.997  0.00  0.00    +0.000 HD
ENDROOT
BRANCH   1  33
ATOM     32  C   UNL     1      -4.499  12.587  25.069  0.00  0.00    +0.000 C 
ATOM     33  O   UNL     1      -3.511  13.605  24.922  0.00  0.00    +0.000 OA
ENDBRANCH   1  33
BRANCH  29  34
ATOM     34  O   UNL     1      -3.454  16.001  23.757  0.00  0.00    +0.000 OA
ATOM     35  C   UNL     1      -4.730  16.482  23.353  0.00  0.00    +0.000 C 
ENDBRANCH  29  34
TORSDOF 2
ENDMDL
MODEL 2
REMARK VINA RESULT:      -7.5      1.371      1.474
REMARK  Name = 
REMARK  4 active torsions:
REMARK  status: ('A' for Active; 'I' for Inactive)
REMARK    1  A    between atoms: C_1  and  O_2
REMARK    2  A    between atoms: O_2  and  C_3
REMARK    3  A    between atoms: C_31  and  O_32
REMARK    4  A    between atoms: O_32  and  C_33
REMARK                            x       y       z     vdW  Elec       q    Type
REMARK                         _______ _______ _______ _____ _____    ______ ____
ROOT
ATOM      1  C   UNL     1      -2.040  15.005  24.358  0.00  0.00    +0.000 A 
ATOM      2  C   UNL     1      -1.700  13.783  23.763  0.00  0.00    +0.000 A 
ATOM      3  C   UNL     1      -1.466  13.668  22.403  0.00  0.00    +0.000 A 
ATOM      4  N   UNL     1      -1.102  12.479  21.915  0.00  0.00    +0.000 NA
ATOM      5  C   UNL     1      -0.842  12.372  20.606  0.00  0.00    +0.000 A 
ATOM      6  N   UNL     1      -0.464  11.154  20.109  0.00  0.00    +0.000 N 
ATOM      7  C   UNL     1      -0.168  10.978  18.690  0.00  0.00    +0.000 C 
ATOM      8  C   UNL     1       1.282  10.483  18.498  0.00  0.00    +0.000 C 
ATOM      9  N   UNL     1       1.525   9.289  19.319  0.00  0.00    +0.000 N 
ATOM     10  C   UNL     1       2.174   8.164  18.850  0.00  0.00    +0.000 A 
ATOM     11  C   UNL     1       3.004   8.228  17.748  0.00  0.00    +0.000 A 
ATOM     12  C   UNL     1       3.543   7.053  17.301  0.00  0.00    +0.000 A 
ATOM     13  N   UNL     1       3.297   5.870  17.872  0.00  0.00    +0.000 NA
ATOM     14  C   UNL     1       2.513   5.859  18.959  0.00  0.00    +0.000 A 
ATOM     15  N   UNL     1       2.357   4.655  19.609  0.00  0.00    +0.000 N 
ATOM     16  C   UNL     1       1.377   4.526  20.683  0.00  0.00    +0.000 C 
ATOM     17  C   UNL     1       1.838   3.385  21.609  0.00  0.00    +0.000 C 
ATOM     18  O   UNL     1       2.007   2.149  20.888  0.00  0.00    +0.000 OA
ATOM     19  C   UNL     1       2.986   2.309  19.844  0.00  0.00    +0.000 C 
ATOM     20  C   UNL     1       2.588   3.417  18.856  0.00  0.00    +0.000 C 
ATOM     21  N   UNL     1       1.956   6.979  19.466  0.00  0.00    +0.000 NA
ATOM     22  C   UNL     1       1.225   9.442  20.752  0.00  0.00    +0.000 C 
ATOM     23  C   UNL     1      -0.208   9.993  20.968  0.00  0.00    +0.000 C 
ATOM     24  N   UNL     1      -0.952  13.409  19.764  0.00  0.00    +0.000 NA
ATOM     25  C   UNL     1      -1.336  14.593  20.258  0.00  0.00    +0.000 A 
ATOM     26  N   UNL     1      -1.405  15.634  19.324  0.00  0.00    +0.000 N 
ATOM     27  C   UNL     1      -1.609  14.801  21.609  0.00  0.00    +0.000 A 
ATOM     28  C   UNL     1      -1.994  16.037  22.187  0.00  0.00    +0.000 A 
ATOM     29  C   UNL     1      -2.218  16.144  23.559  0.00  0.00    +0.000 A 
ATOM     30  H   UNL     1      -1.198  15.229  18.415  0.00  0.00    +0.000 HD
ATOM     31  H   UNL     1      -2.317  16.078  19.331  0.00  0.00    +0.000 HD
ENDROOT
BRANCH   1  33
ATOM     32  C   UNL     1      -1.129  15.634  26.443  0.00  0.00    +0.000 C 
ATOM     33  O   UNL     1      -2.247  15.134  25.711  0.00  0.00    +0.000 OA
ENDBRANCH   1  33
BRANCH  29  34
ATOM     34  O   UNL     1      -2.586  17.300  24.197  0.00  0.00    +0.000 OA
ATOM     35  C   UNL     1      -3.914  17.768  23.993  0.00  0.00    +0.000 C 
ENDBRANCH  29  34
TORSDOF 2
ENDMDL
MODEL 3
REMARK VINA RESULT:      -6.9      2.557      4.075
REMARK  Name = 
REMARK  4 active torsions:
REMARK  status: ('A' for Active; 'I' for Inactive)
REMARK    1  A    between atoms: C_1  and  O_2
REMARK    2  A    between atoms: O_2  and  C_3
REMARK    3  A    between atoms: C_31  and  O_32
REMARK    4  A    between atoms: O_32  and  C_33
REMARK                            x       y       z     vdW  Elec       q    Type
REMARK                         _______ _______ _______ _____ _____    ______ ____
ROOT
ATOM      1  C   UNL     1      -1.168  16.467  19.325  0.00  0.00    +0.000 A 
ATOM      2  C   UNL     1      -0.413  15.291  19.226  0.00  0.00    +0.000 A 
ATOM      3  C   UNL     1      -0.319  14.390  20.275  0.00  0.00    +0.000 A 
ATOM      4  N   UNL     1       0.382  13.268  20.091  0.00  0.00    +0.000 NA
ATOM      5  C   UNL     1       0.449  12.380  21.091  0.00  0.00    +0.000 A 
ATOM      6  N   UNL     1       1.163  11.227  20.900  0.00  0.00    +0.000 N 
ATOM      7  C   UNL     1       1.269  10.222  21.953  0.00  0.00    +0.000 C 
ATOM      8  C   UNL     1       0.704   8.870  21.469  0.00  0.00    +0.000 C 
ATOM      9  N   UNL     1       1.331   8.481  20.198  0.00  0.00    +0.000 N 
ATOM     10  C   UNL     1       1.794   7.207  19.938  0.00  0.00    +0.000 A 
ATOM     11  C   UNL     1       1.332   6.121  20.655  0.00  0.00    +0.000 A 
ATOM     12  C   UNL     1       1.903   4.907  20.389  0.00  0.00    +0.000 A 
ATOM     13  N   UNL     1       2.873   4.735  19.487  0.00  0.00    +0.000 NA
ATOM     14  C   UNL     1       3.267   5.811  18.791  0.00  0.00    +0.000 A 
ATOM     15  N   UNL     1       4.185   5.605  17.785  0.00  0.00    +0.000 N 
ATOM     16  C   UNL     1       4.798   6.746  17.111  0.00  0.00    +0.000 C 
ATOM     17  C   UNL     1       5.228   6.289  15.704  0.00  0.00    +0.000 C 
ATOM     18  O   UNL     1       6.121   5.160  15.762  0.00  0.00    +0.000 OA
ATOM     19  C   UNL     1       5.483   4.050  16.423  0.00  0.00    +0.000 C 
ATOM     20  C   UNL     1       5.042   4.416  17.849  0.00  0.00    +0.000 C 
ATOM     21  N   UNL     1       2.742   7.038  18.988  0.00  0.00    +0.000 NA
ATOM     22  C   UNL     1       1.242   9.484  19.124  0.00  0.00    +0.000 C 
ATOM     23  C   UNL     1       1.752  10.867  19.605  0.00  0.00    +0.000 C 
ATOM     24  N   UNL     1      -0.147  12.583  22.274  0.00  0.00    +0.000 NA
ATOM     25  C   UNL     1      -0.832  13.719  22.456  0.00  0.00    +0.000 A 
ATOM     26  N   UNL     1      -1.446  13.850  23.708  0.00  0.00    +0.000 N 
ATOM     27  C   UNL     1      -0.969  14.690  21.467  0.00  0.00    +0.000 A 
ATOM     28  C   UNL     1      -1.702  15.897  21.598  0.00  0.00    +0.000 A 
ATOM     29  C   UNL     1      -1.799  16.793  20.534  0.00  0.00    +0.000 A 
ATOM     30  H   UNL     1      -1.172  13.040  24.257  0.00  0.00    +0.000 HD
ATOM     31  H   UNL     1      -1.175  14.713  24.165  0.00  0.00    +0.000 HD
ENDROOT
BRANCH   1  33
ATOM     32  C   UNL     1      -0.054  17.845  17.764  0.00  0.00    +0.000 C 
ATOM     33  O   UNL     1      -1.290  17.353  18.280  0.00  0.00    +0.000 OA
ENDBRANCH   1  33
BRANCH  29  34
ATOM     34  O   UNL     1      -2.492  17.975  20.576  0.00  0.00    +0.000 OA
ATOM     35  C   UNL     1      -3.597  18.056  21.467  0.00  0.00    +0.000 C 
ENDBRANCH  29  34
TORSDOF 2
ENDMDL
MODEL 4
REMARK VINA RESULT:      -6.9      6.231      7.926
REMARK  Name = 
REMARK  4 active torsions:
REMARK  status: ('A' for Active; 'I' for Inactive)
REMARK    1  A    between atoms: C_1  and  O_2
REMARK    2  A    between atoms: O_2  and  C_3
REMARK    3  A    between atoms: C_31  and  O_32
REMARK    4  A    between atoms: O_32  and  C_33
REMARK                            x       y       z     vdW  Elec       q    Type
REMARK                         _______ _______ _______ _____ _____    ______ ____
ROOT
ATOM      1  C   UNL     1      -2.009  12.891  21.872  0.00  0.00    +0.000 A 
ATOM      2  C   UNL     1      -0.738  12.941  21.287  0.00  0.00    +0.000 A 
ATOM      3  C   UNL     1      -0.336  14.005  20.495  0.00  0.00    +0.000 A 
ATOM      4  N   UNL     1       0.908  14.005  20.008  0.00  0.00    +0.000 NA
ATOM      5  C   UNL     1       1.311  15.047  19.271  0.00  0.00    +0.000 A 
ATOM      6  N   UNL     1       2.588  15.047  18.777  0.00  0.00    +0.000 N 
ATOM      7  C   UNL     1       3.083  16.157  17.967  0.00  0.00    +0.000 C 
ATOM      8  C   UNL     1       4.316  16.804  18.633  0.00  0.00    +0.000 C 
ATOM      9  N   UNL     1       5.326  15.780  18.936  0.00  0.00    +0.000 N 
ATOM     10  C   UNL     1       6.672  15.938  18.672  0.00  0.00    +0.000 A 
ATOM     11  C   UNL     1       7.222  17.195  18.510  0.00  0.00    +0.000 A 
ATOM     12  C   UNL     1       8.546  17.259  18.169  0.00  0.00    +0.000 A 
ATOM     13  N   UNL     1       9.308  16.177  17.986  0.00  0.00    +0.000 NA
ATOM     14  C   UNL     1       8.741  14.979  18.187  0.00  0.00    +0.000 A 
ATOM     15  N   UNL     1       9.561  13.876  18.109  0.00  0.00    +0.000 N 
ATOM     16  C   UNL     1       8.985  12.534  18.131  0.00  0.00    +0.000 C 
ATOM     17  C   UNL     1      10.057  11.568  18.668  0.00  0.00    +0.000 C 
ATOM     18  O   UNL     1      11.262  11.619  17.880  0.00  0.00    +0.000 OA
ATOM     19  C   UNL     1      11.809  12.951  17.887  0.00  0.00    +0.000 C 
ATOM     20  C   UNL     1      10.806  13.980  17.340  0.00  0.00    +0.000 C 
ATOM     21  N   UNL     1       7.446  14.837  18.537  0.00  0.00    +0.000 NA
ATOM     22  C   UNL     1       4.846  14.648  19.745  0.00  0.00    +0.000 C 
ATOM     23  C   UNL     1       3.573  14.017  19.126  0.00  0.00    +0.000 C 
ATOM     24  N   UNL     1       0.507  16.082  18.988  0.00  0.00    +0.000 NA
ATOM     25  C   UNL     1      -0.744  16.065  19.465  0.00  0.00    +0.000 A 
ATOM     26  N   UNL     1      -1.516  17.190  19.149  0.00  0.00    +0.000 N 
ATOM     27  C   UNL     1      -1.243  15.032  20.255  0.00  0.00    +0.000 A 
ATOM     28  C   UNL     1      -2.548  14.977  20.805  0.00  0.00    +0.000 A 
ATOM     29  C   UNL     1      -2.941  13.906  21.607  0.00  0.00    +0.000 A 
ATOM     30  H   UNL     1      -0.949  17.776  18.543  0.00  0.00    +0.000 HD
ATOM     31  H   UNL     1      -2.386  16.927  18.700  0.00  0.00    +0.000 HD
ENDROOT
BRANCH   1  33
ATOM     32  C   UNL     1      -1.353  10.994  23.116  0.00  0.00    +0.000 C 
ATOM     33  O   UNL     1      -2.407  11.853  22.681  0.00  0.00    +0.000 OA
ENDBRANCH   1  33
BRANCH  29  34
ATOM     34  O   UNL     1      -4.179  13.779  22.182  0.00  0.00    +0.000 OA
ATOM     35  C   UNL     1      -5.301  13.708  21.311  0.00  0.00    +0.000 C 
ENDBRANCH  29  34
TORSDOF 2
ENDMDL
MODEL 5
REMARK VINA RESULT:      -6.6      5.861      7.919
REMARK  Name = 
REMARK  4 active torsions:
REMARK  status: ('A' for Active; 'I' for Inactive)
REMARK    1  A    between atoms: C_1  and  O_2
REMARK    2  A    between atoms: O_2  and  C_3
REMARK    3  A    between atoms: C_31  and  O_32
REMARK    4  A    between atoms: O_32  and  C_33
REMARK                            x       y       z     vdW  Elec       q    Type
REMARK                         _______ _______ _______ _____ _____    ______ ____
ROOT
ATOM      1  C   UNL     1      -4.086  12.883  22.031  0.00  0.00    +0.000 A 
ATOM      2  C   UNL     1      -2.689  12.976  21.988  0.00  0.00    +0.000 A 
ATOM      3  C   UNL     1      -1.975  12.756  20.822  0.00  0.00    +0.000 A 
ATOM      4  N   UNL     1      -0.647  12.908  20.848  0.00  0.00    +0.000 NA
ATOM      5  C   UNL     1       0.043  12.729  19.715  0.00  0.00    +0.000 A 
ATOM      6  N   UNL     1       1.402  12.890  19.742  0.00  0.00    +0.000 N 
ATOM      7  C   UNL     1       2.207  12.709  18.537  0.00  0.00    +0.000 C 
ATOM      8  C   UNL     1       2.977  14.004  18.202  0.00  0.00    +0.000 C 
ATOM      9  N   UNL     1       3.738  14.462  19.373  0.00  0.00    +0.000 N 
ATOM     10  C   UNL     1       5.049  14.891  19.308  0.00  0.00    +0.000 A 
ATOM     11  C   UNL     1       5.597  15.324  18.116  0.00  0.00    +0.000 A 
ATOM     12  C   UNL     1       6.926  15.653  18.123  0.00  0.00    +0.000 A 
ATOM     13  N   UNL     1       7.696  15.569  19.211  0.00  0.00    +0.000 NA
ATOM     14  C   UNL     1       7.114  15.176  20.353  0.00  0.00    +0.000 A 
ATOM     15  N   UNL     1       7.886  15.201  21.492  0.00  0.00    +0.000 N 
ATOM     16  C   UNL     1       7.382  14.615  22.730  0.00  0.00    +0.000 C 
ATOM     17  C   UNL     1       8.087  15.315  23.907  0.00  0.00    +0.000 C 
ATOM     18  O   UNL     1       9.520  15.206  23.809  0.00  0.00    +0.000 OA
ATOM     19  C   UNL     1       9.985  15.801  22.583  0.00  0.00    +0.000 C 
ATOM     20  C   UNL     1       9.346  15.140  21.352  0.00  0.00    +0.000 C 
ATOM     21  N   UNL     1       5.807  14.847  20.427  0.00  0.00    +0.000 NA
ATOM     22  C   UNL     1       2.947  14.644  20.601  0.00  0.00    +0.000 C 
ATOM     23  C   UNL     1       2.120  13.374  20.927  0.00  0.00    +0.000 C 
ATOM     24  N   UNL     1      -0.545  12.386  18.561  0.00  0.00    +0.000 NA
ATOM     25  C   UNL     1      -1.874  12.218  18.548  0.00  0.00    +0.000 A 
ATOM     26  N   UNL     1      -2.419  11.883  17.302  0.00  0.00    +0.000 N 
ATOM     27  C   UNL     1      -2.673  12.400  19.674  0.00  0.00    +0.000 A 
ATOM     28  C   UNL     1      -4.084  12.259  19.709  0.00  0.00    +0.000 A 
ATOM     29  C   UNL     1      -4.795  12.492  20.886  0.00  0.00    +0.000 A 
ATOM     30  H   UNL     1      -1.640  11.775  16.659  0.00  0.00    +0.000 HD
ATOM     31  H   UNL     1      -2.974  11.036  17.356  0.00  0.00    +0.000 HD
ENDROOT
BRANCH   1  33
ATOM     32  C   UNL     1      -4.207  12.636  24.376  0.00  0.00    +0.000 C 
ATOM     33  O   UNL     1      -4.806  13.127  23.177  0.00  0.00    +0.000 OA
ENDBRANCH   1  33
BRANCH  29  34
ATOM     34  O   UNL     1      -6.157  12.385  21.004  0.00  0.00    +0.000 OA
ATOM     35  C   UNL     1      -6.828  11.523  20.092  0.00  0.00    +0.000 C 
ENDBRANCH  29  34
TORSDOF 2
ENDMDL
MODEL 6
REMARK VINA RESULT:      -6.6      2.414      3.971
REMARK  Name = 
REMARK  4 active torsions:
REMARK  status: ('A' for Active; 'I' for Inactive)
REMARK    1  A    between atoms: C_1  and  O_2
REMARK    2  A    between atoms: O_2  and  C_3
REMARK    3  A    between atoms: C_31  and  O_32
REMARK    4  A    between atoms: O_32  and  C_33
REMARK                            x       y       z     vdW  Elec       q    Type
REMARK                         _______ _______ _______ _____ _____    ______ ____
ROOT
ATOM      1  C   UNL     1      -1.629  15.607  20.142  0.00  0.00    +0.000 A 
ATOM      2  C   UNL     1      -0.750  14.520  20.046  0.00  0.00    +0.000 A 
ATOM      3  C   UNL     1      -0.797  13.459  20.935  0.00  0.00    +0.000 A 
ATOM      4  N   UNL     1       0.043  12.436  20.753  0.00  0.00    +0.000 NA
ATOM      5  C   UNL     1      -0.021  11.393  21.590  0.00  0.00    +0.000 A 
ATOM      6  N   UNL     1       0.836  10.343  21.399  0.00  0.00    +0.000 N 
ATOM      7  C   UNL     1       0.811   9.179  22.279  0.00  0.00    +0.000 C 
ATOM      8  C   UNL     1       0.515   7.897  21.472  0.00  0.00    +0.000 C 
ATOM      9  N   UNL     1       1.448   7.779  20.343  0.00  0.00    +0.000 N 
ATOM     10  C   UNL     1       2.091   6.605  20.007  0.00  0.00    +0.000 A 
ATOM     11  C   UNL     1       1.599   5.382  20.417  0.00  0.00    +0.000 A 
ATOM     12  C   UNL     1       2.341   4.274  20.111  0.00  0.00    +0.000 A 
ATOM     13  N   UNL     1       3.501   4.329  19.450  0.00  0.00    +0.000 NA
ATOM     14  C   UNL     1       3.924   5.534  19.042  0.00  0.00    +0.000 A 
ATOM     15  N   UNL     1       5.059   5.570  18.264  0.00  0.00    +0.000 N 
ATOM     16  C   UNL     1       5.682   6.850  17.939  0.00  0.00    +0.000 C 
ATOM     17  C   UNL     1       6.462   6.676  16.622  0.00  0.00    +0.000 C 
ATOM     18  O   UNL     1       7.434   5.617  16.716  0.00  0.00    +0.000 OA
ATOM     19  C   UNL     1       6.787   4.369  17.027  0.00  0.00    +0.000 C 
ATOM     20  C   UNL     1       6.002   4.449  18.346  0.00  0.00    +0.000 C 
ATOM     21  N   UNL     1       3.240   6.669  19.295  0.00  0.00    +0.000 NA
ATOM     22  C   UNL     1       1.495   8.946  19.446  0.00  0.00    +0.000 C 
ATOM     23  C   UNL     1       1.735  10.255  20.242  0.00  0.00    +0.000 C 
ATOM     24  N   UNL     1      -0.884  11.345  22.614  0.00  0.00    +0.000 NA
ATOM     25  C   UNL     1      -1.710  12.383  22.801  0.00  0.00    +0.000 A 
ATOM     26  N   UNL     1      -2.598  12.251  23.876  0.00  0.00    +0.000 N 
ATOM     27  C   UNL     1      -1.725  13.501  21.970  0.00  0.00    +0.000 A 
ATOM     28  C   UNL     1      -2.593  14.613  22.108  0.00  0.00    +0.000 A 
ATOM     29  C   UNL     1      -2.545  15.673  21.202  0.00  0.00    +0.000 A 
ATOM     30  H   UNL     1      -2.369  11.378  24.342  0.00  0.00    +0.000 HD
ATOM     31  H   UNL     1      -2.529  13.038  24.511  0.00  0.00    +0.000 HD
ENDROOT
BRANCH   1  33
ATOM     32  C   UNL     1      -0.399  16.777  18.501  0.00  0.00    +0.000 C 
ATOM     33  O   UNL     1      -1.608  16.651  19.248  0.00  0.00    +0.000 OA
ENDBRANCH   1  33
BRANCH  29  34
ATOM     34  O   UNL     1      -3.351  16.780  21.259  0.00  0.00    +0.000 OA
ATOM     35  C   UNL     1      -4.736  16.597  20.985  0.00  0.00    +0.000 C 
ENDBRANCH  29  34
TORSDOF 2
ENDMDL
MODEL 7
REMARK VINA RESULT:      -6.5      6.385      9.521
REMARK  Name = 
REMARK  4 active torsions:
REMARK  status: ('A' for Active; 'I' for Inactive)
REMARK    1  A    between atoms: C_1  and  O_2
REMARK    2  A    between atoms: O_2  and  C_3
REMARK    3  A    between atoms: C_31  and  O_32
REMARK    4  A    between atoms: O_32  and  C_33
REMARK                            x       y       z     vdW  Elec       q    Type
REMARK                         _______ _______ _______ _____ _____    ______ ____
ROOT
ATOM      1  C   UNL     1       6.238  14.535  22.302  0.00  0.00    +0.000 A 
ATOM      2  C   UNL     1       4.839  14.472  22.251  0.00  0.00    +0.000 A 
ATOM      3  C   UNL     1       4.143  14.567  21.057  0.00  0.00    +0.000 A 
ATOM      4  N   UNL     1       2.812  14.453  21.083  0.00  0.00    +0.000 NA
ATOM      5  C   UNL     1       2.138  14.511  19.928  0.00  0.00    +0.000 A 
ATOM      6  N   UNL     1       0.775  14.389  19.955  0.00  0.00    +0.000 N 
ATOM      7  C   UNL     1      -0.012  14.444  18.727  0.00  0.00    +0.000 C 
ATOM      8  C   UNL     1      -0.812  13.137  18.539  0.00  0.00    +0.000 C 
ATOM      9  N   UNL     1      -1.597  12.843  19.747  0.00  0.00    +0.000 N 
ATOM     10  C   UNL     1      -2.918  12.442  19.716  0.00  0.00    +0.000 A 
ATOM     11  C   UNL     1      -3.465  11.883  18.578  0.00  0.00    +0.000 A 
ATOM     12  C   UNL     1      -4.802  11.589  18.606  0.00  0.00    +0.000 A 
ATOM     13  N   UNL     1      -5.581  11.823  19.665  0.00  0.00    +0.000 NA
ATOM     14  C   UNL     1      -5.000  12.336  20.759  0.00  0.00    +0.000 A 
ATOM     15  N   UNL     1      -5.785  12.468  21.883  0.00  0.00    +0.000 N 
ATOM     16  C   UNL     1      -5.278  13.186  23.048  0.00  0.00    +0.000 C 
ATOM     17  C   UNL     1      -6.014  12.651  24.291  0.00  0.00    +0.000 C 
ATOM     18  O   UNL     1      -7.442  12.784  24.162  0.00  0.00    +0.000 OA
ATOM     19  C   UNL     1      -7.911  12.057  23.010  0.00  0.00    +0.000 C 
ATOM     20  C   UNL     1      -7.241  12.548  21.717  0.00  0.00    +0.000 C 
ATOM     21  N   UNL     1      -3.687  12.639  20.811  0.00  0.00    +0.000 NA
ATOM     22  C   UNL     1      -0.824  12.791  20.998  0.00  0.00    +0.000 C 
ATOM     23  C   UNL     1       0.033  14.069  21.181  0.00  0.00    +0.000 C 
ATOM     24  N   UNL     1       2.748  14.698  18.749  0.00  0.00    +0.000 NA
ATOM     25  C   UNL     1       4.080  14.830  18.734  0.00  0.00    +0.000 A 
ATOM     26  N   UNL     1       4.648  14.999  17.464  0.00  0.00    +0.000 N 
ATOM     27  C   UNL     1       4.863  14.765  19.884  0.00  0.00    +0.000 A 
ATOM     28  C   UNL     1       6.276  14.874  19.922  0.00  0.00    +0.000 A 
ATOM     29  C   UNL     1       6.969  14.767  21.127  0.00  0.00    +0.000 A 
ATOM     30  H   UNL     1       3.879  15.048  16.802  0.00  0.00    +0.000 HD
ATOM     31  H   UNL     1       5.224  15.832  17.424  0.00  0.00    +0.000 HD
ENDROOT
BRANCH   1  33
ATOM     32  C   UNL     1       6.421  15.179  24.566  0.00  0.00    +0.000 C 
ATOM     33  O   UNL     1       6.939  14.413  23.478  0.00  0.00    +0.000 OA
ENDBRANCH   1  33
BRANCH  29  34
ATOM     34  O   UNL     1       8.332  14.854  21.250  0.00  0.00    +0.000 OA
ATOM     35  C   UNL     1       9.109  14.656  20.075  0.00  0.00    +0.000 C 
ENDBRANCH  29  34
TORSDOF 2
ENDMDL
MODEL 8
REMARK VINA RESULT:      -6.5      2.934     11.228
REMARK  Name = 
REMARK  4 active torsions:
REMARK  status: ('A' for Active; 'I' for Inactive)
REMARK    1  A    between atoms: C_1  and  O_2
REMARK    2  A    between atoms: O_2  and  C_3
REMARK    3  A    between atoms: C_31  and  O_32
REMARK    4  A    between atoms: O_32  and  C_33
REMARK                            x       y       z     vdW  Elec       q    Type
REMARK                         _______ _______ _______ _____ _____    ______ ____
ROOT
ATOM      1  C   UNL     1       5.085   6.340  16.945  0.00  0.00    +0.000 A 
ATOM      2  C   UNL     1       4.227   7.416  17.205  0.00  0.00    +0.000 A 
ATOM      3  C   UNL     1       3.299   7.382  18.234  0.00  0.00    +0.000 A 
ATOM      4  N   UNL     1       2.546   8.464  18.450  0.00  0.00    +0.000 NA
ATOM      5  C   UNL     1       1.672   8.447  19.464  0.00  0.00    +0.000 A 
ATOM      6  N   UNL     1       0.904   9.558  19.687  0.00  0.00    +0.000 N 
ATOM      7  C   UNL     1      -0.065   9.598  20.779  0.00  0.00    +0.000 C 
ATOM      8  C   UNL     1       0.264  10.752  21.751  0.00  0.00    +0.000 C 
ATOM      9  N   UNL     1       0.396  12.017  21.014  0.00  0.00    +0.000 N 
ATOM     10  C   UNL     1      -0.174  13.203  21.432  0.00  0.00    +0.000 A 
ATOM     11  C   UNL     1      -0.535  13.392  22.751  0.00  0.00    +0.000 A 
ATOM     12  C   UNL     1      -1.168  14.565  23.064  0.00  0.00    +0.000 A 
ATOM     13  N   UNL     1      -1.449  15.509  22.162  0.00  0.00    +0.000 NA
ATOM     14  C   UNL     1      -1.050  15.297  20.900  0.00  0.00    +0.000 A 
ATOM     15  N   UNL     1      -1.241  16.322  20.000  0.00  0.00    +0.000 N 
ATOM     16  C   UNL     1      -1.005  16.099  18.577  0.00  0.00    +0.000 C 
ATOM     17  C   UNL     1      -0.663  17.457  17.936  0.00  0.00    +0.000 C 
ATOM     18  O   UNL     1      -1.704  18.428  18.159  0.00  0.00    +0.000 OA
ATOM     19  C   UNL     1      -1.904  18.631  19.570  0.00  0.00    +0.000 C 
ATOM     20  C   UNL     1      -2.276  17.322  20.286  0.00  0.00    +0.000 C 
ATOM     21  N   UNL     1      -0.410  14.172  20.519  0.00  0.00    +0.000 NA
ATOM     22  C   UNL     1       1.363  11.996  19.904  0.00  0.00    +0.000 C 
ATOM     23  C   UNL     1       1.087  10.810  18.944  0.00  0.00    +0.000 C 
ATOM     24  N   UNL     1       1.513   7.380  20.259  0.00  0.00    +0.000 NA
ATOM     25  C   UNL     1       2.259   6.293  20.024  0.00  0.00    +0.000 A 
ATOM     26  N   UNL     1       2.054   5.227  20.909  0.00  0.00    +0.000 N 
ATOM     27  C   UNL     1       3.205   6.228  19.003  0.00  0.00    +0.000 A 
ATOM     28  C   UNL     1       4.037   5.113  18.727  0.00  0.00    +0.000 A 
ATOM     29  C   UNL     1       4.974   5.160  17.695  0.00  0.00    +0.000 A 
ATOM     30  H   UNL     1       1.300   5.503  21.532  0.00  0.00    +0.000 HD
ATOM     31  H   UNL     1       1.830   4.372  20.413  0.00  0.00    +0.000 HD
ENDROOT
BRANCH   1  33
ATOM     32  C   UNL     1       5.621   5.770  14.717  0.00  0.00    +0.000 C 
ATOM     33  O   UNL     1       6.027   6.375  15.944  0.00  0.00    +0.000 OA
ENDBRANCH   1  33
BRANCH  29  34
ATOM     34  O   UNL     1       5.819   4.132  17.367  0.00  0.00    +0.000 OA
ATOM     35  C   UNL     1       7.194   4.283  17.699  0.00  0.00    +0.000 C 
ENDBRANCH  29  34
TORSDOF 2
ENDMDL
MODEL 9
REMARK VINA RESULT:      -6.5      6.551      8.363
REMARK  Name = 
REMARK  4 active torsions:
REMARK  status: ('A' for Active; 'I' for Inactive)
REMARK    1  A    between atoms: C_1  and  O_2
REMARK    2  A    between atoms: O_2  and  C_3
REMARK    3  A    between atoms: C_31  and  O_32
REMARK    4  A    between atoms: O_32  and  C_33
REMARK                            x       y       z     vdW  Elec       q    Type
REMARK                         _______ _______ _______ _____ _____    ______ ____
ROOT
ATOM      1  C   UNL     1      -1.316  12.042  22.297  0.00  0.00    +0.000 A 
ATOM      2  C   UNL     1      -0.104  12.282  21.637  0.00  0.00    +0.000 A 
ATOM      3  C   UNL     1       0.134  13.458  20.946  0.00  0.00    +0.000 A 
ATOM      4  N   UNL     1       1.331  13.635  20.380  0.00  0.00    +0.000 NA
ATOM      5  C   UNL     1       1.577  14.785  19.739  0.00  0.00    +0.000 A 
ATOM      6  N   UNL     1       2.806  14.967  19.164  0.00  0.00    +0.000 N 
ATOM      7  C   UNL     1       3.130  16.200  18.453  0.00  0.00    +0.000 C 
ATOM      8  C   UNL     1       4.346  16.895  19.103  0.00  0.00    +0.000 C 
ATOM      9  N   UNL     1       5.468  15.953  19.221  0.00  0.00    +0.000 N 
ATOM     10  C   UNL     1       6.768  16.274  18.888  0.00  0.00    +0.000 A 
ATOM     11  C   UNL     1       7.184  17.590  18.831  0.00  0.00    +0.000 A 
ATOM     12  C   UNL     1       8.466  17.823  18.412  0.00  0.00    +0.000 A 
ATOM     13  N   UNL     1       9.310  16.849  18.059  0.00  0.00    +0.000 NA
ATOM     14  C   UNL     1       8.874  15.586  18.162  0.00  0.00    +0.000 A 
ATOM     15  N   UNL     1       9.785  14.585  17.905  0.00  0.00    +0.000 N 
ATOM     16  C   UNL     1       9.341  13.198  17.815  0.00  0.00    +0.000 C 
ATOM     17  C   UNL     1      10.537  12.294  18.167  0.00  0.00    +0.000 C 
ATOM     18  O   UNL     1      11.667  12.549  17.311  0.00  0.00    +0.000 OA
ATOM     19  C   UNL     1      12.086  13.922  17.431  0.00  0.00    +0.000 C 
ATOM     20  C   UNL     1      10.952  14.896  17.071  0.00  0.00    +0.000 C 
ATOM     21  N   UNL     1       7.629  15.277  18.578  0.00  0.00    +0.000 NA
ATOM     22  C   UNL     1       5.160  14.699  19.929  0.00  0.00    +0.000 C 
ATOM     23  C   UNL     1       3.907  14.011  19.329  0.00  0.00    +0.000 C 
ATOM     24  N   UNL     1       0.660  15.757  19.628  0.00  0.00    +0.000 NA
ATOM     25  C   UNL     1      -0.543  15.564  20.183  0.00  0.00    +0.000 A 
ATOM     26  N   UNL     1      -1.440  16.631  20.047  0.00  0.00    +0.000 N 
ATOM     27  C   UNL     1      -0.881  14.407  20.883  0.00  0.00    +0.000 A 
ATOM     28  C   UNL     1      -2.129  14.163  21.509  0.00  0.00    +0.000 A 
ATOM     29  C   UNL     1      -2.356  12.979  22.211  0.00  0.00    +0.000 A 
ATOM     30  H   UNL     1      -0.978  17.332  19.474  0.00  0.00    +0.000 HD
ATOM     31  H   UNL     1      -2.313  16.330  19.630  0.00  0.00    +0.000 HD
ENDROOT
BRANCH   1  33
ATOM     32  C   UNL     1      -0.422  10.027  23.143  0.00  0.00    +0.000 C 
ATOM     33  O   UNL     1      -1.551  10.889  23.009  0.00  0.00    +0.000 OA
ENDBRANCH   1  33
BRANCH  29  34
ATOM     34  O   UNL     1      -3.529  12.668  22.849  0.00  0.00    +0.000 OA
ATOM     35  C   UNL     1      -3.801  13.328  24.079  0.00  0.00    +0.000 C 
ENDBRANCH  29  34
TORSDOF 2
ENDMDL
