MODEL 1
REMARK VINA RESULT:      -8.7      0.000      0.000
REMARK  Name = 
REMARK  4 active torsions:
REMARK  status: ('A' for Active; 'I' for Inactive)
REMARK    1  A    between atoms: C_2  and  C_5
REMARK    2  A    between atoms: C_9  and  N_10
REMARK    3  A    between atoms: N_10  and  C_11
REMARK    4  A    between atoms: N_18  and  C_19
REMARK                            x       y       z     vdW  Elec       q    Type
REMARK                         _______ _______ _______ _____ _____    ______ ____
ROOT
ATOM      1  C   UNL     1       1.888   4.680  20.417  0.00  0.00    +0.000 A 
ATOM      2  N   UNL     1       0.741   3.954  20.361  0.00  0.00    +0.000 NA
ATOM      3  C   UNL     1       0.712   2.808  19.663  0.00  0.00    +0.000 A 
ATOM      4  N   UNL     1       1.717   2.238  18.993  0.00  0.00    +0.000 NA
ATOM      5  C   UNL     1       2.830   2.987  19.048  0.00  0.00    +0.000 A 
ATOM      6  S   UNL     1       4.291   2.501  18.326  0.00  0.00    +0.000 S 
ATOM      7  C   UNL     1       5.006   3.999  18.797  0.00  0.00    +0.000 A 
ATOM      8  N   UNL     1       6.259   4.287  18.389  0.00  0.00    +0.000 N 
ATOM      9  N   UNL     1       4.260   4.762  19.568  0.00  0.00    +0.000 NA
ATOM     10  C   UNL     1       2.997   4.199  19.694  0.00  0.00    +0.000 A 
ATOM     11  H   UNL     1       6.868   3.523  18.115  0.00  0.00    +0.000 HD
ENDROOT
BRANCH   8  12
ATOM     12  C   UNL     1       6.789   5.564  18.086  0.00  0.00    +0.000 A 
ATOM     13  C   UNL     1       7.779   6.099  18.941  0.00  0.00    +0.000 A 
ATOM     14 CL   UNL     1       8.343   5.203  20.316  0.00  0.00    +0.000 Cl
ATOM     15  C   UNL     1       8.350   7.358  18.718  0.00  0.00    +0.000 A 
ATOM     16  C   UNL     1       7.941   8.122  17.631  0.00  0.00    +0.000 A 
ATOM     17  C   UNL     1       6.966   7.626  16.772  0.00  0.00    +0.000 A 
ATOM     18  C   UNL     1       6.393   6.363  16.990  0.00  0.00    +0.000 A 
ATOM     19 CL   UNL     1       5.314   5.819  15.745  0.00  0.00    +0.000 Cl
ENDBRANCH   8  12
BRANCH   1  20
ATOM     20  N   UNL     1       2.003   5.844  21.207  0.00  0.00    +0.000 N 
ATOM     21  H   UNL     1       1.955   5.611  22.195  0.00  0.00    +0.000 HD
BRANCH  20  26
ATOM     22  C   UNL     1       1.403   9.007  19.285  0.00  0.00    +0.000 A 
ATOM     23  C   UNL     1       0.664   9.730  20.224  0.00  0.00    +0.000 A 
ATOM     24  C   UNL     1       0.435   9.196  21.492  0.00  0.00    +0.000 A 
ATOM     25  C   UNL     1       0.916   7.924  21.818  0.00  0.00    +0.000 A 
ATOM     26  C   UNL     1       1.619   7.156  20.880  0.00  0.00    +0.000 A 
ATOM     27  C   UNL     1       1.884   7.735  19.635  0.00  0.00    +0.000 A 
BRANCH  22  29
ATOM     28  F   UNL     1       2.448   8.698  17.144  0.00  0.00    +0.000 F 
ATOM     29  C   UNL     1       1.688   9.536  17.904  0.00  0.00    +0.000 C 
ATOM     30  F   UNL     1       2.354  10.724  17.925  0.00  0.00    +0.000 F 
ATOM     31  F   UNL     1       0.552   9.758  17.184  0.00  0.00    +0.000 F 
ENDBRANCH  22  29
ENDBRANCH  20  26
ENDBRANCH   1  20
TORSDOF 4
ENDMDL
MODEL 2
REMARK VINA RESULT:      -8.6      0.166      1.842
REMARK  Name = 
REMARK  4 active torsions:
REMARK  status: ('A' for Active; 'I' for Inactive)
REMARK    1  A    between atoms: C_2  and  C_5
REMARK    2  A    between atoms: C_9  and  N_10
REMARK    3  A    between atoms: N_10  and  C_11
REMARK    4  A    between atoms: N_18  and  C_19
REMARK                            x       y       z     vdW  Elec       q    Type
REMARK                         _______ _______ _______ _____ _____    ______ ____
ROOT
ATOM      1  C   UNL     1       1.806   4.620  20.365  0.00  0.00    +0.000 A 
ATOM      2  N   UNL     1       0.642   3.925  20.263  0.00  0.00    +0.000 NA
ATOM      3  C   UNL     1       0.602   2.795  19.541  0.00  0.00    +0.000 A 
ATOM      4  N   UNL     1       1.611   2.213  18.886  0.00  0.00    +0.000 NA
ATOM      5  C   UNL     1       2.741   2.930  18.987  0.00  0.00    +0.000 A 
ATOM      6  S   UNL     1       4.208   2.421  18.294  0.00  0.00    +0.000 S 
ATOM      7  C   UNL     1       4.948   3.890  18.815  0.00  0.00    +0.000 A 
ATOM      8  N   UNL     1       6.219   4.153  18.448  0.00  0.00    +0.000 N 
ATOM      9  N   UNL     1       4.201   4.657  19.582  0.00  0.00    +0.000 NA
ATOM     10  C   UNL     1       2.921   4.125  19.662  0.00  0.00    +0.000 A 
ATOM     11  H   UNL     1       6.815   3.378  18.173  0.00  0.00    +0.000 HD
ENDROOT
BRANCH   8  12
ATOM     12  C   UNL     1       6.790   5.421  18.186  0.00  0.00    +0.000 A 
ATOM     13  C   UNL     1       6.353   6.130  17.043  0.00  0.00    +0.000 A 
ATOM     14 CL   UNL     1       5.133   5.468  16.002  0.00  0.00    +0.000 Cl
ATOM     15  C   UNL     1       6.872   7.386  16.707  0.00  0.00    +0.000 A 
ATOM     16  C   UNL     1       7.850   7.968  17.505  0.00  0.00    +0.000 A 
ATOM     17  C   UNL     1       8.304   7.296  18.634  0.00  0.00    +0.000 A 
ATOM     18  C   UNL     1       7.785   6.037  18.977  0.00  0.00    +0.000 A 
ATOM     19 CL   UNL     1       8.334   5.403  20.496  0.00  0.00    +0.000 Cl
ENDBRANCH   8  12
BRANCH   1  20
ATOM     20  N   UNL     1       1.929   5.764  21.182  0.00  0.00    +0.000 N 
ATOM     21  H   UNL     1       1.828   5.516  22.163  0.00  0.00    +0.000 HD
BRANCH  20  26
ATOM     22  C   UNL     1       1.466   8.960  19.276  0.00  0.00    +0.000 A 
ATOM     23  C   UNL     1       0.783   9.719  20.230  0.00  0.00    +0.000 A 
ATOM     24  C   UNL     1       0.549   9.195  21.501  0.00  0.00    +0.000 A 
ATOM     25  C   UNL     1       0.967   7.898  21.816  0.00  0.00    +0.000 A 
ATOM     26  C   UNL     1       1.610   7.095  20.864  0.00  0.00    +0.000 A 
ATOM     27  C   UNL     1       1.883   7.663  19.616  0.00  0.00    +0.000 A 
BRANCH  22  29
ATOM     28  F   UNL     1       0.635   9.672  17.138  0.00  0.00    +0.000 F 
ATOM     29  C   UNL     1       1.754   9.476  17.891  0.00  0.00    +0.000 C 
ATOM     30  F   UNL     1       2.543   8.630  17.171  0.00  0.00    +0.000 F 
ATOM     31  F   UNL     1       2.405  10.673  17.903  0.00  0.00    +0.000 F 
ENDBRANCH  22  29
ENDBRANCH  20  26
ENDBRANCH   1  20
TORSDOF 4
ENDMDL
MODEL 3
REMARK VINA RESULT:      -8.5      1.626      2.156
REMARK  Name = 
REMARK  4 active torsions:
REMARK  status: ('A' for Active; 'I' for Inactive)
REMARK    1  A    between atoms: C_2  and  C_5
REMARK    2  A    between atoms: C_9  and  N_10
REMARK    3  A    between atoms: N_10  and  C_11
REMARK    4  A    between atoms: N_18  and  C_19
REMARK                            x       y       z     vdW  Elec       q    Type
REMARK                         _______ _______ _______ _____ _____    ______ ____
ROOT
ATOM      1  C   UNL     1       1.788   4.805  20.408  0.00  0.00    +0.000 A 
ATOM      2  N   UNL     1       0.654   4.055  20.400  0.00  0.00    +0.000 NA
ATOM      3  C   UNL     1       0.672   2.827  19.861  0.00  0.00    +0.000 A 
ATOM      4  N   UNL     1       1.714   2.192  19.318  0.00  0.00    +0.000 NA
ATOM      5  C   UNL     1       2.813   2.962  19.322  0.00  0.00    +0.000 A 
ATOM      6  S   UNL     1       4.312   2.412  18.735  0.00  0.00    +0.000 S 
ATOM      7  C   UNL     1       4.985   3.973  19.033  0.00  0.00    +0.000 A 
ATOM      8  N   UNL     1       6.252   4.228  18.646  0.00  0.00    +0.000 N 
ATOM      9  N   UNL     1       4.195   4.818  19.661  0.00  0.00    +0.000 NA
ATOM     10  C   UNL     1       2.935   4.253  19.806  0.00  0.00    +0.000 A 
ATOM     11  H   UNL     1       6.883   3.445  18.503  0.00  0.00    +0.000 HD
ENDROOT
BRANCH   8  12
ATOM     12  C   UNL     1       6.779   5.462  18.198  0.00  0.00    +0.000 A 
ATOM     13  C   UNL     1       7.762   6.099  18.990  0.00  0.00    +0.000 A 
ATOM     14 CL   UNL     1       8.321   5.372  20.463  0.00  0.00    +0.000 Cl
ATOM     15  C   UNL     1       8.329   7.325  18.624  0.00  0.00    +0.000 A 
ATOM     16  C   UNL     1       7.924   7.955  17.453  0.00  0.00    +0.000 A 
ATOM     17  C   UNL     1       6.956   7.357  16.653  0.00  0.00    +0.000 A 
ATOM     18  C   UNL     1       6.386   6.126  17.014  0.00  0.00    +0.000 A 
ATOM     19 CL   UNL     1       5.316   5.435  15.835  0.00  0.00    +0.000 Cl
ENDBRANCH   8  12
BRANCH   1  20
ATOM     20  N   UNL     1       1.851   6.064  21.040  0.00  0.00    +0.000 N 
ATOM     21  H   UNL     1       1.705   5.971  22.041  0.00  0.00    +0.000 HD
BRANCH  20  26
ATOM     22  C   UNL     1       0.490   9.539  20.668  0.00  0.00    +0.000 A 
ATOM     23  C   UNL     1       1.060   9.898  19.444  0.00  0.00    +0.000 A 
ATOM     24  C   UNL     1       1.823   8.972  18.733  0.00  0.00    +0.000 A 
ATOM     25  C   UNL     1       2.046   7.693  19.253  0.00  0.00    +0.000 A 
ATOM     26  C   UNL     1       1.527   7.322  20.501  0.00  0.00    +0.000 A 
ATOM     27  C   UNL     1       0.720   8.247  21.170  0.00  0.00    +0.000 A 
BRANCH  22  29
ATOM     28  F   UNL     1      -0.919   9.923  22.576  0.00  0.00    +0.000 F 
ATOM     29  C   UNL     1      -0.348  10.493  21.477  0.00  0.00    +0.000 C 
ATOM     30  F   UNL     1      -1.377  11.026  20.760  0.00  0.00    +0.000 F 
ATOM     31  F   UNL     1       0.369  11.554  21.943  0.00  0.00    +0.000 F 
ENDBRANCH  22  29
ENDBRANCH  20  26
ENDBRANCH   1  20
TORSDOF 4
ENDMDL
MODEL 4
REMARK VINA RESULT:      -8.2      1.594      2.680
REMARK  Name = 
REMARK  4 active torsions:
REMARK  status: ('A' for Active; 'I' for Inactive)
REMARK    1  A    between atoms: C_2  and  C_5
REMARK    2  A    between atoms: C_9  and  N_10
REMARK    3  A    between atoms: N_10  and  C_11
REMARK    4  A    between atoms: N_18  and  C_19
REMARK                            x       y       z     vdW  Elec       q    Type
REMARK                         _______ _______ _______ _____ _____    ______ ____
ROOT
ATOM      1  C   UNL     1       1.699   4.696  20.323  0.00  0.00    +0.000 A 
ATOM      2  N   UNL     1       0.555   3.963  20.263  0.00  0.00    +0.000 NA
ATOM      3  C   UNL     1       0.573   2.746  19.699  0.00  0.00    +0.000 A 
ATOM      4  N   UNL     1       1.623   2.108  19.174  0.00  0.00    +0.000 NA
ATOM      5  C   UNL     1       2.732   2.862  19.228  0.00  0.00    +0.000 A 
ATOM      6  S   UNL     1       4.241   2.304  18.676  0.00  0.00    +0.000 S 
ATOM      7  C   UNL     1       4.925   3.848  19.027  0.00  0.00    +0.000 A 
ATOM      8  N   UNL     1       6.207   4.093  18.685  0.00  0.00    +0.000 N 
ATOM      9  N   UNL     1       4.128   4.690  19.650  0.00  0.00    +0.000 NA
ATOM     10  C   UNL     1       2.856   4.140  19.744  0.00  0.00    +0.000 A 
ATOM     11  H   UNL     1       6.831   3.304  18.544  0.00  0.00    +0.000 HD
ENDROOT
BRANCH   8  12
ATOM     12  C   UNL     1       6.764   5.329  18.280  0.00  0.00    +0.000 A 
ATOM     13  C   UNL     1       6.287   5.922  17.089  0.00  0.00    +0.000 A 
ATOM     14 CL   UNL     1       5.035   5.161  16.159  0.00  0.00    +0.000 Cl
ATOM     15  C   UNL     1       6.790   7.139  16.613  0.00  0.00    +0.000 A 
ATOM     16  C   UNL     1       7.791   7.798  17.317  0.00  0.00    +0.000 A 
ATOM     17  C   UNL     1       8.286   7.239  18.491  0.00  0.00    +0.000 A 
ATOM     18  C   UNL     1       7.783   6.021  18.973  0.00  0.00    +0.000 A 
ATOM     19 CL   UNL     1       8.385   5.538  20.528  0.00  0.00    +0.000 Cl
ENDBRANCH   8  12
BRANCH   1  20
ATOM     20  N   UNL     1       1.760   5.941  20.983  0.00  0.00    +0.000 N 
ATOM     21  H   UNL     1       1.526   5.836  21.967  0.00  0.00    +0.000 HD
BRANCH  20  26
ATOM     22  C   UNL     1       0.772   9.543  20.650  0.00  0.00    +0.000 A 
ATOM     23  C   UNL     1       1.268   9.818  19.374  0.00  0.00    +0.000 A 
ATOM     24  C   UNL     1       1.855   8.802  18.620  0.00  0.00    +0.000 A 
ATOM     25  C   UNL     1       1.977   7.513  19.149  0.00  0.00    +0.000 A 
ATOM     26  C   UNL     1       1.533   7.220  20.446  0.00  0.00    +0.000 A 
ATOM     27  C   UNL     1       0.898   8.241  21.160  0.00  0.00    +0.000 A 
BRANCH  22  29
ATOM     28  F   UNL     1       0.755  11.804  21.461  0.00  0.00    +0.000 F 
ATOM     29  C   UNL     1       0.123  10.598  21.507  0.00  0.00    +0.000 C 
ATOM     30  F   UNL     1       0.081  10.251  22.824  0.00  0.00    +0.000 F 
ATOM     31  F   UNL     1      -1.168  10.844  21.146  0.00  0.00    +0.000 F 
ENDBRANCH  22  29
ENDBRANCH  20  26
ENDBRANCH   1  20
TORSDOF 4
ENDMDL
MODEL 5
REMARK VINA RESULT:      -7.7      3.423      5.407
REMARK  Name = 
REMARK  4 active torsions:
REMARK  status: ('A' for Active; 'I' for Inactive)
REMARK    1  A    between atoms: C_2  and  C_5
REMARK    2  A    between atoms: C_9  and  N_10
REMARK    3  A    between atoms: N_10  and  C_11
REMARK    4  A    between atoms: N_18  and  C_19
REMARK                            x       y       z     vdW  Elec       q    Type
REMARK                         _______ _______ _______ _____ _____    ______ ____
ROOT
ATOM      1  C   UNL     1       1.432   7.282  20.826  0.00  0.00    +0.000 A 
ATOM      2  N   UNL     1       0.625   8.220  21.389  0.00  0.00    +0.000 NA
ATOM      3  C   UNL     1       0.428   9.391  20.764  0.00  0.00    +0.000 A 
ATOM      4  N   UNL     1       0.928   9.779  19.587  0.00  0.00    +0.000 NA
ATOM      5  C   UNL     1       1.737   8.843  19.065  0.00  0.00    +0.000 A 
ATOM      6  S   UNL     1       2.489   9.031  17.552  0.00  0.00    +0.000 S 
ATOM      7  C   UNL     1       3.306   7.529  17.787  0.00  0.00    +0.000 A 
ATOM      8  N   UNL     1       4.220   7.129  16.880  0.00  0.00    +0.000 N 
ATOM      9  N   UNL     1       2.942   6.850  18.855  0.00  0.00    +0.000 NA
ATOM     10  C   UNL     1       2.061   7.613  19.610  0.00  0.00    +0.000 A 
ATOM     11  H   UNL     1       4.178   7.519  15.943  0.00  0.00    +0.000 HD
ENDROOT
BRANCH   8  12
ATOM     12  C   UNL     1       5.392   6.373  17.122  0.00  0.00    +0.000 A 
ATOM     13  C   UNL     1       5.314   4.965  17.026  0.00  0.00    +0.000 A 
ATOM     14 CL   UNL     1       3.822   4.187  16.602  0.00  0.00    +0.000 Cl
ATOM     15  C   UNL     1       6.423   4.143  17.257  0.00  0.00    +0.000 A 
ATOM     16  C   UNL     1       7.647   4.709  17.596  0.00  0.00    +0.000 A 
ATOM     17  C   UNL     1       7.757   6.092  17.703  0.00  0.00    +0.000 A 
ATOM     18  C   UNL     1       6.648   6.920  17.470  0.00  0.00    +0.000 A 
ATOM     19 CL   UNL     1       6.984   8.622  17.482  0.00  0.00    +0.000 Cl
ENDBRANCH   8  12
BRANCH   1  20
ATOM     20  N   UNL     1       1.604   6.002  21.392  0.00  0.00    +0.000 N 
ATOM     21  H   UNL     1       2.083   6.067  22.287  0.00  0.00    +0.000 HD
BRANCH  20  26
ATOM     22  C   UNL     1       3.059   2.813  20.060  0.00  0.00    +0.000 A 
ATOM     23  C   UNL     1       1.909   2.218  19.534  0.00  0.00    +0.000 A 
ATOM     24  C   UNL     1       0.694   2.902  19.566  0.00  0.00    +0.000 A 
ATOM     25  C   UNL     1       0.614   4.170  20.149  0.00  0.00    +0.000 A 
ATOM     26  C   UNL     1       1.740   4.771  20.728  0.00  0.00    +0.000 A 
ATOM     27  C   UNL     1       2.958   4.090  20.635  0.00  0.00    +0.000 A 
BRANCH  22  29
ATOM     28  F   UNL     1       4.472   1.086  19.170  0.00  0.00    +0.000 F 
ATOM     29  C   UNL     1       4.399   2.126  20.048  0.00  0.00    +0.000 C 
ATOM     30  F   UNL     1       4.733   1.610  21.264  0.00  0.00    +0.000 F 
ATOM     31  F   UNL     1       5.416   2.967  19.708  0.00  0.00    +0.000 F 
ENDBRANCH  22  29
ENDBRANCH  20  26
ENDBRANCH   1  20
TORSDOF 4
ENDMDL
MODEL 6
REMARK VINA RESULT:      -7.5      3.438      5.312
REMARK  Name = 
REMARK  4 active torsions:
REMARK  status: ('A' for Active; 'I' for Inactive)
REMARK    1  A    between atoms: C_2  and  C_5
REMARK    2  A    between atoms: C_9  and  N_10
REMARK    3  A    between atoms: N_10  and  C_11
REMARK    4  A    between atoms: N_18  and  C_19
REMARK                            x       y       z     vdW  Elec       q    Type
REMARK                         _______ _______ _______ _____ _____    ______ ____
ROOT
ATOM      1  C   UNL     1       1.441   7.310  20.841  0.00  0.00    +0.000 A 
ATOM      2  N   UNL     1       0.697   8.281  21.432  0.00  0.00    +0.000 NA
ATOM      3  C   UNL     1       0.539   9.465  20.821  0.00  0.00    +0.000 A 
ATOM      4  N   UNL     1       1.022   9.837  19.632  0.00  0.00    +0.000 NA
ATOM      5  C   UNL     1       1.769   8.867  19.081  0.00  0.00    +0.000 A 
ATOM      6  S   UNL     1       2.486   9.030  17.547  0.00  0.00    +0.000 S 
ATOM      7  C   UNL     1       3.235   7.489  17.749  0.00  0.00    +0.000 A 
ATOM      8  N   UNL     1       4.102   7.052  16.814  0.00  0.00    +0.000 N 
ATOM      9  N   UNL     1       2.870   6.820  18.823  0.00  0.00    +0.000 NA
ATOM     10  C   UNL     1       2.049   7.618  19.608  0.00  0.00    +0.000 A 
ATOM     11  H   UNL     1       4.052   7.450  15.881  0.00  0.00    +0.000 HD
ENDROOT
BRANCH   8  12
ATOM     12  C   UNL     1       5.243   6.238  17.016  0.00  0.00    +0.000 A 
ATOM     13  C   UNL     1       6.471   6.869  17.322  0.00  0.00    +0.000 A 
ATOM     14 CL   UNL     1       6.569   8.595  17.465  0.00  0.00    +0.000 Cl
ATOM     15  C   UNL     1       7.648   6.140  17.529  0.00  0.00    +0.000 A 
ATOM     16  C   UNL     1       7.630   4.753  17.431  0.00  0.00    +0.000 A 
ATOM     17  C   UNL     1       6.440   4.102  17.128  0.00  0.00    +0.000 A 
ATOM     18  C   UNL     1       5.257   4.828  16.922  0.00  0.00    +0.000 A 
ATOM     19 CL   UNL     1       3.827   3.866  16.714  0.00  0.00    +0.000 Cl
ENDBRANCH   8  12
BRANCH   1  20
ATOM     20  N   UNL     1       1.567   6.018  21.394  0.00  0.00    +0.000 N 
ATOM     21  H   UNL     1       2.004   6.062  22.310  0.00  0.00    +0.000 HD
BRANCH  20  26
ATOM     22  C   UNL     1       3.047   2.847  20.046  0.00  0.00    +0.000 A 
ATOM     23  C   UNL     1       1.907   2.257  19.496  0.00  0.00    +0.000 A 
ATOM     24  C   UNL     1       0.691   2.939  19.516  0.00  0.00    +0.000 A 
ATOM     25  C   UNL     1       0.599   4.200  20.114  0.00  0.00    +0.000 A 
ATOM     26  C   UNL     1       1.715   4.795  20.717  0.00  0.00    +0.000 A 
ATOM     27  C   UNL     1       2.935   4.117  20.635  0.00  0.00    +0.000 A 
BRANCH  22  29
ATOM     28  F   UNL     1       4.733   1.638  21.257  0.00  0.00    +0.000 F 
ATOM     29  C   UNL     1       4.388   2.162  20.047  0.00  0.00    +0.000 C 
ATOM     30  F   UNL     1       5.406   3.002  19.704  0.00  0.00    +0.000 F 
ATOM     31  F   UNL     1       4.448   1.125  19.165  0.00  0.00    +0.000 F 
ENDBRANCH  22  29
ENDBRANCH  20  26
ENDBRANCH   1  20
TORSDOF 4
ENDMDL
MODEL 7
REMARK VINA RESULT:      -7.2      7.660     10.339
REMARK  Name = 
REMARK  4 active torsions:
REMARK  status: ('A' for Active; 'I' for Inactive)
REMARK    1  A    between atoms: C_2  and  C_5
REMARK    2  A    between atoms: C_9  and  N_10
REMARK    3  A    between atoms: N_10  and  C_11
REMARK    4  A    between atoms: N_18  and  C_19
REMARK                            x       y       z     vdW  Elec       q    Type
REMARK                         _______ _______ _______ _____ _____    ______ ____
ROOT
ATOM      1  C   UNL     1      -0.233  11.659  18.976  0.00  0.00    +0.000 A 
ATOM      2  N   UNL     1       0.165  10.513  19.589  0.00  0.00    +0.000 NA
ATOM      3  C   UNL     1       0.815  10.577  20.761  0.00  0.00    +0.000 A 
ATOM      4  N   UNL     1       1.126  11.671  21.460  0.00  0.00    +0.000 NA
ATOM      5  C   UNL     1       0.741  12.787  20.822  0.00  0.00    +0.000 A 
ATOM      6  S   UNL     1       0.962  14.338  21.484  0.00  0.00    +0.000 S 
ATOM      7  C   UNL     1       0.320  15.031  20.040  0.00  0.00    +0.000 A 
ATOM      8  N   UNL     1       0.322  16.372  19.897  0.00  0.00    +0.000 N 
ATOM      9  N   UNL     1      -0.165  14.171  19.169  0.00  0.00    +0.000 NA
ATOM     10  C   UNL     1       0.099  12.878  19.599  0.00  0.00    +0.000 A 
ATOM     11  H   UNL     1       0.378  16.949  20.730  0.00  0.00    +0.000 HD
ENDROOT
BRANCH   8  12
ATOM     12  C   UNL     1       0.468  17.105  18.695  0.00  0.00    +0.000 A 
ATOM     13  C   UNL     1      -0.664  17.770  18.172  0.00  0.00    +0.000 A 
ATOM     14 CL   UNL     1      -2.189  17.705  18.997  0.00  0.00    +0.000 Cl
ATOM     15  C   UNL     1      -0.608  18.510  16.986  0.00  0.00    +0.000 A 
ATOM     16  C   UNL     1       0.588  18.602  16.282  0.00  0.00    +0.000 A 
ATOM     17  C   UNL     1       1.720  17.957  16.767  0.00  0.00    +0.000 A 
ATOM     18  C   UNL     1       1.669  17.215  17.958  0.00  0.00    +0.000 A 
ATOM     19 CL   UNL     1       3.196  16.607  18.513  0.00  0.00    +0.000 Cl
ENDBRANCH   8  12
BRANCH   1  20
ATOM     20  N   UNL     1      -0.997  11.650  17.790  0.00  0.00    +0.000 N 
ATOM     21  H   UNL     1      -0.543  12.202  17.067  0.00  0.00    +0.000 HD
BRANCH  20  26
ATOM     22  C   UNL     1      -4.672  11.735  18.529  0.00  0.00    +0.000 A 
ATOM     23  C   UNL     1      -5.185  11.404  17.273  0.00  0.00    +0.000 A 
ATOM     24  C   UNL     1      -4.317  11.093  16.226  0.00  0.00    +0.000 A 
ATOM     25  C   UNL     1      -2.933  11.141  16.420  0.00  0.00    +0.000 A 
ATOM     26  C   UNL     1      -2.390  11.517  17.656  0.00  0.00    +0.000 A 
ATOM     27  C   UNL     1      -3.279  11.770  18.705  0.00  0.00    +0.000 A 
BRANCH  22  29
ATOM     28  F   UNL     1      -6.385  11.054  20.070  0.00  0.00    +0.000 F 
ATOM     29  C   UNL     1      -5.560  12.073  19.698  0.00  0.00    +0.000 C 
ATOM     30  F   UNL     1      -6.374  13.137  19.447  0.00  0.00    +0.000 F 
ATOM     31  F   UNL     1      -4.852  12.402  20.815  0.00  0.00    +0.000 F 
ENDBRANCH  22  29
ENDBRANCH  20  26
ENDBRANCH   1  20
TORSDOF 4
ENDMDL
MODEL 8
REMARK VINA RESULT:      -7.1      8.671     11.781
REMARK  Name = 
REMARK  4 active torsions:
REMARK  status: ('A' for Active; 'I' for Inactive)
REMARK    1  A    between atoms: C_2  and  C_5
REMARK    2  A    between atoms: C_9  and  N_10
REMARK    3  A    between atoms: N_10  and  C_11
REMARK    4  A    between atoms: N_18  and  C_19
REMARK                            x       y       z     vdW  Elec       q    Type
REMARK                         _______ _______ _______ _____ _____    ______ ____
ROOT
ATOM      1  C   UNL     1      -5.916  11.859  19.965  0.00  0.00    +0.000 A 
ATOM      2  N   UNL     1      -6.676  10.796  19.589  0.00  0.00    +0.000 NA
ATOM      3  C   UNL     1      -7.596  10.304  20.433  0.00  0.00    +0.000 A 
ATOM      4  N   UNL     1      -7.901  10.750  21.654  0.00  0.00    +0.000 NA
ATOM      5  C   UNL     1      -7.122  11.785  22.007  0.00  0.00    +0.000 A 
ATOM      6  S   UNL     1      -7.302  12.596  23.491  0.00  0.00    +0.000 S 
ATOM      7  C   UNL     1      -5.938  13.578  23.104  0.00  0.00    +0.000 A 
ATOM      8  N   UNL     1      -5.471  14.447  24.023  0.00  0.00    +0.000 N 
ATOM      9  N   UNL     1      -5.457  13.422  21.888  0.00  0.00    +0.000 NA
ATOM     10  C   UNL     1      -6.115  12.372  21.261  0.00  0.00    +0.000 A 
ATOM     11  H   UNL     1      -6.093  14.750  24.766  0.00  0.00    +0.000 HD
ENDROOT
BRANCH   8  12
ATOM     12  C   UNL     1      -4.127  14.846  24.220  0.00  0.00    +0.000 A 
ATOM     13  C   UNL     1      -3.871  16.194  24.562  0.00  0.00    +0.000 A 
ATOM     14 CL   UNL     1      -5.174  17.323  24.755  0.00  0.00    +0.000 Cl
ATOM     15  C   UNL     1      -2.571  16.673  24.766  0.00  0.00    +0.000 A 
ATOM     16  C   UNL     1      -1.486  15.814  24.629  0.00  0.00    +0.000 A 
ATOM     17  C   UNL     1      -1.704  14.483  24.290  0.00  0.00    +0.000 A 
ATOM     18  C   UNL     1      -3.005  13.998  24.086  0.00  0.00    +0.000 A 
ATOM     19 CL   UNL     1      -3.121  12.285  23.830  0.00  0.00    +0.000 Cl
ENDBRANCH   8  12
BRANCH   1  20
ATOM     20  N   UNL     1      -4.999  12.473  19.088  0.00  0.00    +0.000 N 
ATOM     21  H   UNL     1      -5.350  13.375  18.776  0.00  0.00    +0.000 HD
BRANCH  20  26
ATOM     22  C   UNL     1      -1.917  10.787  17.777  0.00  0.00    +0.000 A 
ATOM     23  C   UNL     1      -2.344  10.458  16.488  0.00  0.00    +0.000 A 
ATOM     24  C   UNL     1      -3.608  10.856  16.051  0.00  0.00    +0.000 A 
ATOM     25  C   UNL     1      -4.463  11.556  16.908  0.00  0.00    +0.000 A 
ATOM     26  C   UNL     1      -4.079  11.856  18.222  0.00  0.00    +0.000 A 
ATOM     27  C   UNL     1      -2.788  11.497  18.619  0.00  0.00    +0.000 A 
BRANCH  22  29
ATOM     28  F   UNL     1      -0.598   9.841  19.548  0.00  0.00    +0.000 F 
ATOM     29  C   UNL     1      -0.562  10.391  18.301  0.00  0.00    +0.000 C 
ATOM     30  F   UNL     1       0.296  11.447  18.387  0.00  0.00    +0.000 F 
ATOM     31  F   UNL     1       0.058   9.471  17.510  0.00  0.00    +0.000 F 
ENDBRANCH  22  29
ENDBRANCH  20  26
ENDBRANCH   1  20
TORSDOF 4
ENDMDL
MODEL 9
REMARK VINA RESULT:      -7.1      8.181     10.141
REMARK  Name = 
REMARK  4 active torsions:
REMARK  status: ('A' for Active; 'I' for Inactive)
REMARK    1  A    between atoms: C_2  and  C_5
REMARK    2  A    between atoms: C_9  and  N_10
REMARK    3  A    between atoms: N_10  and  C_11
REMARK    4  A    between atoms: N_18  and  C_19
REMARK                            x       y       z     vdW  Elec       q    Type
REMARK                         _______ _______ _______ _____ _____    ______ ____
ROOT
ATOM      1  C   UNL     1      -3.652  11.611  17.850  0.00  0.00    +0.000 A 
ATOM      2  N   UNL     1      -3.724  11.006  16.635  0.00  0.00    +0.000 NA
ATOM      3  C   UNL     1      -2.738  10.186  16.241  0.00  0.00    +0.000 A 
ATOM      4  N   UNL     1      -1.642   9.845  16.924  0.00  0.00    +0.000 NA
ATOM      5  C   UNL     1      -1.587  10.472  18.109  0.00  0.00    +0.000 A 
ATOM      6  S   UNL     1      -0.329  10.207  19.223  0.00  0.00    +0.000 S 
ATOM      7  C   UNL     1      -1.013  11.406  20.259  0.00  0.00    +0.000 A 
ATOM      8  N   UNL     1      -0.352  11.760  21.380  0.00  0.00    +0.000 N 
ATOM      9  N   UNL     1      -2.182  11.879  19.880  0.00  0.00    +0.000 NA
ATOM     10  C   UNL     1      -2.505  11.367  18.630  0.00  0.00    +0.000 A 
ATOM     11  H   UNL     1       0.331  11.116  21.766  0.00  0.00    +0.000 HD
ENDROOT
BRANCH   8  12
ATOM     12  C   UNL     1      -0.330  13.035  21.994  0.00  0.00    +0.000 A 
ATOM     13  C   UNL     1      -1.307  13.325  22.974  0.00  0.00    +0.000 A 
ATOM     14 CL   UNL     1      -2.488  12.137  23.426  0.00  0.00    +0.000 Cl
ATOM     15  C   UNL     1      -1.361  14.563  23.624  0.00  0.00    +0.000 A 
ATOM     16  C   UNL     1      -0.439  15.554  23.307  0.00  0.00    +0.000 A 
ATOM     17  C   UNL     1       0.533  15.303  22.344  0.00  0.00    +0.000 A 
ATOM     18  C   UNL     1       0.593  14.062  21.691  0.00  0.00    +0.000 A 
ATOM     19 CL   UNL     1       1.955  13.848  20.638  0.00  0.00    +0.000 Cl
ENDBRANCH   8  12
BRANCH   1  20
ATOM     20  N   UNL     1      -4.699  12.411  18.354  0.00  0.00    +0.000 N 
ATOM     21  H   UNL     1      -4.499  13.397  18.208  0.00  0.00    +0.000 HD
BRANCH  20  26
ATOM     22  C   UNL     1      -6.411  12.531  21.688  0.00  0.00    +0.000 A 
ATOM     23  C   UNL     1      -7.466  11.646  21.456  0.00  0.00    +0.000 A 
ATOM     24  C   UNL     1      -7.558  10.975  20.237  0.00  0.00    +0.000 A 
ATOM     25  C   UNL     1      -6.614  11.208  19.231  0.00  0.00    +0.000 A 
ATOM     26  C   UNL     1      -5.573  12.128  19.418  0.00  0.00    +0.000 A 
ATOM     27  C   UNL     1      -5.470  12.745  20.668  0.00  0.00    +0.000 A 
BRANCH  22  29
ATOM     28  F   UNL     1      -6.151  12.465  24.076  0.00  0.00    +0.000 F 
ATOM     29  C   UNL     1      -6.257  13.278  22.987  0.00  0.00    +0.000 C 
ATOM     30  F   UNL     1      -7.308  14.106  23.243  0.00  0.00    +0.000 F 
ATOM     31  F   UNL     1      -5.147  14.069  23.008  0.00  0.00    +0.000 F 
ENDBRANCH  22  29
ENDBRANCH  20  26
ENDBRANCH   1  20
TORSDOF 4
ENDMDL
