MODEL 1
REMARK VINA RESULT:      -8.4      0.000      0.000
REMARK  Name = 
REMARK  4 active torsions:
REMARK  status: ('A' for Active; 'I' for Inactive)
REMARK    1  A    between atoms: C_1  and  C_2
REMARK    2  A    between atoms: C_4  and  N_5
REMARK    3  A    between atoms: C_12  and  C_13
REMARK    4  A    between atoms: N_18  and  C_19
REMARK                            x       y       z     vdW  Elec       q    Type
REMARK                         _______ _______ _______ _____ _____    ______ ____
ROOT
ATOM      1  C   UNL     1       4.891   7.154  15.321  0.00  0.00    +0.000 C 
ATOM      2  C   UNL     1       5.470   6.091  16.257  0.00  0.00    +0.000 C 
ATOM      3  C   UNL     1       4.502   5.821  17.415  0.00  0.00    +0.000 C 
ATOM      4  C   UNL     1       4.853   4.396  17.839  0.00  0.00    +0.000 C 
ATOM      5  C   UNL     1       5.253   3.747  16.516  0.00  0.00    +0.000 C 
ATOM      6  O   UNL     1       5.311   2.542  16.311  0.00  0.00    +0.000 OA
ATOM      7  N   UNL     1       5.621   4.785  15.649  0.00  0.00    +0.000 N 
ENDROOT
BRANCH   4   8
ATOM      8  N   UNL     1       3.825   3.603  18.483  0.00  0.00    +0.000 N 
ATOM      9  C   UNL     1       4.037   2.803  19.571  0.00  0.00    +0.000 C 
ATOM     10  O   UNL     1       5.117   2.558  20.094  0.00  0.00    +0.000 OA
ATOM     11  N   UNL     1       2.810   2.426  20.105  0.00  0.00    +0.000 N 
ATOM     12  C   UNL     1       2.662   2.415  21.546  0.00  0.00    +0.000 C 
ATOM     13  C   UNL     1       1.290   3.029  21.793  0.00  0.00    +0.000 C 
ATOM     14  C   UNL     1       1.069   3.922  20.568  0.00  0.00    +0.000 C 
ATOM     15  C   UNL     1       1.720   3.123  19.440  0.00  0.00    +0.000 C 
ATOM     16  C   UNL     1       0.767   2.153  18.751  0.00  0.00    +0.000 C 
ATOM     17  C   UNL     1       2.497   3.949  18.413  0.00  0.00    +0.000 C 
ATOM     18  O   UNL     1       1.999   4.769  17.653  0.00  0.00    +0.000 OA
ENDBRANCH   4   8
BRANCH   7  19
ATOM     19  C   UNL     1       6.154   4.563  14.366  0.00  0.00    +0.000 A 
ATOM     20  C   UNL     1       5.469   3.732  13.474  0.00  0.00    +0.000 A 
ATOM     21  C   UNL     1       5.954   3.532  12.181  0.00  0.00    +0.000 A 
ATOM     22  C   UNL     1       7.153   4.122  11.791  0.00  0.00    +0.000 A 
ATOM     23  C   UNL     1       7.855   4.932  12.683  0.00  0.00    +0.000 A 
ATOM     24  C   UNL     1       7.344   5.174  13.962  0.00  0.00    +0.000 A 
ENDBRANCH   7  19
TORSDOF 2
ENDMDL
MODEL 2
REMARK VINA RESULT:      -8.3      2.097      3.604
REMARK  Name = 
REMARK  4 active torsions:
REMARK  status: ('A' for Active; 'I' for Inactive)
REMARK    1  A    between atoms: C_1  and  C_2
REMARK    2  A    between atoms: C_4  and  N_5
REMARK    3  A    between atoms: C_12  and  C_13
REMARK    4  A    between atoms: N_18  and  C_19
REMARK                            x       y       z     vdW  Elec       q    Type
REMARK                         _______ _______ _______ _____ _____    ______ ____
ROOT
ATOM      1  C   UNL     1       7.433   4.690  15.635  0.00  0.00    +0.000 C 
ATOM      2  C   UNL     1       6.029   5.208  15.954  0.00  0.00    +0.000 C 
ATOM      3  C   UNL     1       5.062   4.033  16.147  0.00  0.00    +0.000 C 
ATOM      4  C   UNL     1       3.976   4.618  17.048  0.00  0.00    +0.000 C 
ATOM      5  C   UNL     1       4.761   5.601  17.915  0.00  0.00    +0.000 C 
ATOM      6  O   UNL     1       4.374   6.066  18.978  0.00  0.00    +0.000 OA
ATOM      7  N   UNL     1       5.931   5.919  17.212  0.00  0.00    +0.000 N 
ENDROOT
BRANCH   4   8
ATOM      8  N   UNL     1       3.227   3.709  17.893  0.00  0.00    +0.000 N 
ATOM      9  C   UNL     1       3.764   3.006  18.934  0.00  0.00    +0.000 C 
ATOM     10  O   UNL     1       4.947   2.956  19.245  0.00  0.00    +0.000 OA
ATOM     11  N   UNL     1       2.734   2.472  19.701  0.00  0.00    +0.000 N 
ATOM     12  C   UNL     1       2.862   2.510  21.144  0.00  0.00    +0.000 C 
ATOM     13  C   UNL     1       1.479   2.917  21.638  0.00  0.00    +0.000 C 
ATOM     14  C   UNL     1       0.893   3.704  20.461  0.00  0.00    +0.000 C 
ATOM     15  C   UNL     1       1.442   2.959  19.245  0.00  0.00    +0.000 C 
ATOM     16  C   UNL     1       0.545   1.822  18.770  0.00  0.00    +0.000 C 
ATOM     17  C   UNL     1       1.872   3.843  18.072  0.00  0.00    +0.000 C 
ATOM     18  O   UNL     1       1.115   4.538  17.406  0.00  0.00    +0.000 OA
ENDBRANCH   4   8
BRANCH   7  19
ATOM     19  C   UNL     1       6.854   6.885  17.652  0.00  0.00    +0.000 A 
ATOM     20  C   UNL     1       6.828   8.163  17.085  0.00  0.00    +0.000 A 
ATOM     21  C   UNL     1       7.704   9.153  17.536  0.00  0.00    +0.000 A 
ATOM     22  C   UNL     1       8.642   8.853  18.520  0.00  0.00    +0.000 A 
ATOM     23  C   UNL     1       8.691   7.573  19.071  0.00  0.00    +0.000 A 
ATOM     24  C   UNL     1       7.780   6.596  18.656  0.00  0.00    +0.000 A 
ENDBRANCH   7  19
TORSDOF 2
ENDMDL
MODEL 3
REMARK VINA RESULT:      -7.8      1.271      2.235
REMARK  Name = 
REMARK  4 active torsions:
REMARK  status: ('A' for Active; 'I' for Inactive)
REMARK    1  A    between atoms: C_1  and  C_2
REMARK    2  A    between atoms: C_4  and  N_5
REMARK    3  A    between atoms: C_12  and  C_13
REMARK    4  A    between atoms: N_18  and  C_19
REMARK                            x       y       z     vdW  Elec       q    Type
REMARK                         _______ _______ _______ _____ _____    ______ ____
ROOT
ATOM      1  C   UNL     1       7.370   7.142  16.680  0.00  0.00    +0.000 C 
ATOM      2  C   UNL     1       7.211   5.726  17.238  0.00  0.00    +0.000 C 
ATOM      3  C   UNL     1       6.309   5.745  18.478  0.00  0.00    +0.000 C 
ATOM      4  C   UNL     1       5.734   4.330  18.515  0.00  0.00    +0.000 C 
ATOM      5  C   UNL     1       5.623   3.981  17.031  0.00  0.00    +0.000 C 
ATOM      6  O   UNL     1       4.933   3.083  16.569  0.00  0.00    +0.000 OA
ATOM      7  N   UNL     1       6.522   4.813  16.350  0.00  0.00    +0.000 N 
ENDROOT
BRANCH   4   8
ATOM      8  N   UNL     1       4.453   4.130  19.163  0.00  0.00    +0.000 N 
ATOM      9  C   UNL     1       3.299   4.764  18.800  0.00  0.00    +0.000 C 
ATOM     10  O   UNL     1       3.188   5.650  17.962  0.00  0.00    +0.000 OA
ATOM     11  N   UNL     1       2.222   4.136  19.416  0.00  0.00    +0.000 N 
ATOM     12  C   UNL     1       1.013   3.930  18.643  0.00  0.00    +0.000 C 
ATOM     13  C   UNL     1       0.570   2.516  19.001  0.00  0.00    +0.000 C 
ATOM     14  C   UNL     1       1.874   1.820  19.404  0.00  0.00    +0.000 C 
ATOM     15  C   UNL     1       2.651   2.932  20.108  0.00  0.00    +0.000 C 
ATOM     16  C   UNL     1       2.377   3.012  21.605  0.00  0.00    +0.000 C 
ATOM     17  C   UNL     1       4.154   2.964  19.824  0.00  0.00    +0.000 C 
ATOM     18  O   UNL     1       4.947   2.090  20.153  0.00  0.00    +0.000 OA
ENDBRANCH   4   8
BRANCH   7  19
ATOM     19  C   UNL     1       6.777   4.703  14.971  0.00  0.00    +0.000 A 
ATOM     20  C   UNL     1       5.986   3.850  14.195  0.00  0.00    +0.000 A 
ATOM     21  C   UNL     1       6.191   3.757  12.817  0.00  0.00    +0.000 A 
ATOM     22  C   UNL     1       7.219   4.480  12.218  0.00  0.00    +0.000 A 
ATOM     23  C   UNL     1       8.027   5.314  12.990  0.00  0.00    +0.000 A 
ATOM     24  C   UNL     1       7.791   5.446  14.362  0.00  0.00    +0.000 A 
ENDBRANCH   7  19
TORSDOF 2
ENDMDL
MODEL 4
REMARK VINA RESULT:      -7.6      4.742      7.100
REMARK  Name = 
REMARK  4 active torsions:
REMARK  status: ('A' for Active; 'I' for Inactive)
REMARK    1  A    between atoms: C_1  and  C_2
REMARK    2  A    between atoms: C_4  and  N_5
REMARK    3  A    between atoms: C_12  and  C_13
REMARK    4  A    between atoms: N_18  and  C_19
REMARK                            x       y       z     vdW  Elec       q    Type
REMARK                         _______ _______ _______ _____ _____    ______ ____
ROOT
ATOM      1  C   UNL     1      -0.235   9.235  21.855  0.00  0.00    +0.000 C 
ATOM      2  C   UNL     1       1.075   9.038  21.089  0.00  0.00    +0.000 C 
ATOM      3  C   UNL     1       1.493   7.563  21.126  0.00  0.00    +0.000 C 
ATOM      4  C   UNL     1       2.351   7.411  19.872  0.00  0.00    +0.000 C 
ATOM      5  C   UNL     1       1.686   8.382  18.897  0.00  0.00    +0.000 C 
ATOM      6  O   UNL     1       1.832   8.371  17.683  0.00  0.00    +0.000 OA
ATOM      7  N   UNL     1       0.979   9.313  19.670  0.00  0.00    +0.000 N 
ENDROOT
BRANCH   4   8
ATOM      8  N   UNL     1       2.448   6.098  19.265  0.00  0.00    +0.000 N 
ATOM      9  C   UNL     1       3.505   5.675  18.510  0.00  0.00    +0.000 C 
ATOM     10  O   UNL     1       4.461   6.351  18.152  0.00  0.00    +0.000 OA
ATOM     11  N   UNL     1       3.418   4.298  18.336  0.00  0.00    +0.000 N 
ATOM     12  C   UNL     1       4.633   3.515  18.431  0.00  0.00    +0.000 C 
ATOM     13  C   UNL     1       4.233   2.287  19.240  0.00  0.00    +0.000 C 
ATOM     14  C   UNL     1       3.050   2.779  20.080  0.00  0.00    +0.000 C 
ATOM     15  C   UNL     1       2.336   3.743  19.134  0.00  0.00    +0.000 C 
ATOM     16  C   UNL     1       1.279   3.072  18.264  0.00  0.00    +0.000 C 
ATOM     17  C   UNL     1       1.784   5.013  19.784  0.00  0.00    +0.000 C 
ATOM     18  O   UNL     1       0.888   5.040  20.618  0.00  0.00    +0.000 OA
ENDBRANCH   4   8
BRANCH   7  19
ATOM     19  C   UNL     1       0.326  10.431  19.121  0.00  0.00    +0.000 A 
ATOM     20  C   UNL     1      -0.916  10.261  18.500  0.00  0.00    +0.000 A 
ATOM     21  C   UNL     1      -1.605  11.362  17.987  0.00  0.00    +0.000 A 
ATOM     22  C   UNL     1      -1.032  12.629  18.048  0.00  0.00    +0.000 A 
ATOM     23  C   UNL     1       0.218  12.802  18.643  0.00  0.00    +0.000 A 
ATOM     24  C   UNL     1       0.886  11.708  19.202  0.00  0.00    +0.000 A 
ENDBRANCH   7  19
TORSDOF 2
ENDMDL
MODEL 5
REMARK VINA RESULT:      -7.2      4.578      6.461
REMARK  Name = 
REMARK  4 active torsions:
REMARK  status: ('A' for Active; 'I' for Inactive)
REMARK    1  A    between atoms: C_1  and  C_2
REMARK    2  A    between atoms: C_4  and  N_5
REMARK    3  A    between atoms: C_12  and  C_13
REMARK    4  A    between atoms: N_18  and  C_19
REMARK                            x       y       z     vdW  Elec       q    Type
REMARK                         _______ _______ _______ _____ _____    ______ ____
ROOT
ATOM      1  C   UNL     1       4.596   5.995  16.547  0.00  0.00    +0.000 C 
ATOM      2  C   UNL     1       4.277   6.401  17.988  0.00  0.00    +0.000 C 
ATOM      3  C   UNL     1       3.567   7.760  18.010  0.00  0.00    +0.000 C 
ATOM      4  C   UNL     1       2.772   7.718  19.314  0.00  0.00    +0.000 C 
ATOM      5  C   UNL     1       2.404   6.240  19.428  0.00  0.00    +0.000 C 
ATOM      6  O   UNL     1       1.516   5.788  20.138  0.00  0.00    +0.000 OA
ATOM      7  N   UNL     1       3.329   5.529  18.652  0.00  0.00    +0.000 N 
ENDROOT
BRANCH   4   8
ATOM      8  N   UNL     1       1.575   8.530  19.410  0.00  0.00    +0.000 N 
ATOM      9  C   UNL     1       0.993   8.907  20.587  0.00  0.00    +0.000 C 
ATOM     10  O   UNL     1       1.321   8.545  21.710  0.00  0.00    +0.000 OA
ATOM     11  N   UNL     1       0.057   9.904  20.333  0.00  0.00    +0.000 N 
ATOM     12  C   UNL     1      -0.019  11.024  21.249  0.00  0.00    +0.000 C 
ATOM     13  C   UNL     1      -0.169  12.243  20.347  0.00  0.00    +0.000 C 
ATOM     14  C   UNL     1       0.489  11.805  19.035  0.00  0.00    +0.000 C 
ATOM     15  C   UNL     1       0.115  10.326  18.943  0.00  0.00    +0.000 C 
ATOM     16  C   UNL     1      -1.204  10.075  18.221  0.00  0.00    +0.000 C 
ATOM     17  C   UNL     1       1.213   9.402  18.412  0.00  0.00    +0.000 C 
ATOM     18  O   UNL     1       1.672   9.441  17.278  0.00  0.00    +0.000 OA
ENDBRANCH   4   8
BRANCH   7  19
ATOM     19  C   UNL     1       3.374   4.124  18.602  0.00  0.00    +0.000 A 
ATOM     20  C   UNL     1       4.243   3.436  19.454  0.00  0.00    +0.000 A 
ATOM     21  C   UNL     1       4.273   2.040  19.455  0.00  0.00    +0.000 A 
ATOM     22  C   UNL     1       3.469   1.329  18.569  0.00  0.00    +0.000 A 
ATOM     23  C   UNL     1       2.618   2.009  17.699  0.00  0.00    +0.000 A 
ATOM     24  C   UNL     1       2.550   3.405  17.732  0.00  0.00    +0.000 A 
ENDBRANCH   7  19
TORSDOF 2
ENDMDL
MODEL 6
REMARK VINA RESULT:      -6.7      5.669      8.194
REMARK  Name = 
REMARK  4 active torsions:
REMARK  status: ('A' for Active; 'I' for Inactive)
REMARK    1  A    between atoms: C_1  and  C_2
REMARK    2  A    between atoms: C_4  and  N_5
REMARK    3  A    between atoms: C_12  and  C_13
REMARK    4  A    between atoms: N_18  and  C_19
REMARK                            x       y       z     vdW  Elec       q    Type
REMARK                         _______ _______ _______ _____ _____    ______ ____
ROOT
ATOM      1  C   UNL     1       2.990   6.054  17.731  0.00  0.00    +0.000 C 
ATOM      2  C   UNL     1       2.911   6.896  19.006  0.00  0.00    +0.000 C 
ATOM      3  C   UNL     1       2.385   8.300  18.682  0.00  0.00    +0.000 C 
ATOM      4  C   UNL     1       1.765   8.754  20.002  0.00  0.00    +0.000 C 
ATOM      5  C   UNL     1       1.233   7.446  20.584  0.00  0.00    +0.000 C 
ATOM      6  O   UNL     1       0.394   7.359  21.470  0.00  0.00    +0.000 OA
ATOM      7  N   UNL     1       1.956   6.408  19.980  0.00  0.00    +0.000 N 
ENDROOT
BRANCH   4   8
ATOM      8  N   UNL     1       0.700   9.737  19.954  0.00  0.00    +0.000 N 
ATOM      9  C   UNL     1       0.474  10.675  20.920  0.00  0.00    +0.000 C 
ATOM     10  O   UNL     1       1.053  10.766  21.996  0.00  0.00    +0.000 OA
ATOM     11  N   UNL     1      -0.415  11.626  20.433  0.00  0.00    +0.000 N 
ATOM     12  C   UNL     1      -0.164  13.021  20.736  0.00  0.00    +0.000 C 
ATOM     13  C   UNL     1      -0.448  13.751  19.429  0.00  0.00    +0.000 C 
ATOM     14  C   UNL     1      -0.189  12.687  18.357  0.00  0.00    +0.000 C 
ATOM     15  C   UNL     1      -0.687  11.405  19.021  0.00  0.00    +0.000 C 
ATOM     16  C   UNL     1      -2.164  11.122  18.768  0.00  0.00    +0.000 C 
ATOM     17  C   UNL     1       0.161  10.158  18.762  0.00  0.00    +0.000 C 
ATOM     18  O   UNL     1       0.312   9.630  17.669  0.00  0.00    +0.000 OA
ENDBRANCH   4   8
BRANCH   7  19
ATOM     19  C   UNL     1       1.819   5.058  20.349  0.00  0.00    +0.000 A 
ATOM     20  C   UNL     1       0.981   4.226  19.599  0.00  0.00    +0.000 A 
ATOM     21  C   UNL     1       0.863   2.872  19.918  0.00  0.00    +0.000 A 
ATOM     22  C   UNL     1       1.542   2.356  21.018  0.00  0.00    +0.000 A 
ATOM     23  C   UNL     1       2.359   3.186  21.786  0.00  0.00    +0.000 A 
ATOM     24  C   UNL     1       2.518   4.531  21.437  0.00  0.00    +0.000 A 
ENDBRANCH   7  19
TORSDOF 2
ENDMDL
MODEL 7
REMARK VINA RESULT:      -6.7      3.704      7.557
REMARK  Name = 
REMARK  4 active torsions:
REMARK  status: ('A' for Active; 'I' for Inactive)
REMARK    1  A    between atoms: C_1  and  C_2
REMARK    2  A    between atoms: C_4  and  N_5
REMARK    3  A    between atoms: C_12  and  C_13
REMARK    4  A    between atoms: N_18  and  C_19
REMARK                            x       y       z     vdW  Elec       q    Type
REMARK                         _______ _______ _______ _____ _____    ______ ____
ROOT
ATOM      1  C   UNL     1       1.852  10.320  18.483  0.00  0.00    +0.000 C 
ATOM      2  C   UNL     1       1.577   8.818  18.382  0.00  0.00    +0.000 C 
ATOM      3  C   UNL     1       2.640   8.143  17.506  0.00  0.00    +0.000 C 
ATOM      4  C   UNL     1       2.643   6.701  18.009  0.00  0.00    +0.000 C 
ATOM      5  C   UNL     1       2.331   6.869  19.495  0.00  0.00    +0.000 C 
ATOM      6  O   UNL     1       2.537   6.026  20.358  0.00  0.00    +0.000 OA
ATOM      7  N   UNL     1       1.694   8.109  19.639  0.00  0.00    +0.000 N 
ENDROOT
BRANCH   4   8
ATOM      8  N   UNL     1       3.856   5.924  17.847  0.00  0.00    +0.000 N 
ATOM      9  C   UNL     1       3.888   4.622  17.433  0.00  0.00    +0.000 C 
ATOM     10  O   UNL     1       2.920   3.898  17.237  0.00  0.00    +0.000 OA
ATOM     11  N   UNL     1       5.195   4.280  17.107  0.00  0.00    +0.000 N 
ATOM     12  C   UNL     1       5.419   3.475  15.923  0.00  0.00    +0.000 C 
ATOM     13  C   UNL     1       6.631   4.113  15.254  0.00  0.00    +0.000 C 
ATOM     14  C   UNL     1       6.580   5.569  15.727  0.00  0.00    +0.000 C 
ATOM     15  C   UNL     1       6.063   5.445  17.160  0.00  0.00    +0.000 C 
ATOM     16  C   UNL     1       7.171   5.278  18.194  0.00  0.00    +0.000 C 
ATOM     17  C   UNL     1       5.067   6.521  17.594  0.00  0.00    +0.000 C 
ATOM     18  O   UNL     1       5.327   7.712  17.705  0.00  0.00    +0.000 OA
ENDBRANCH   4   8
BRANCH   7  19
ATOM     19  C   UNL     1       1.159   8.561  20.859  0.00  0.00    +0.000 A 
ATOM     20  C   UNL     1      -0.228   8.558  21.041  0.00  0.00    +0.000 A 
ATOM     21  C   UNL     1      -0.781   8.960  22.258  0.00  0.00    +0.000 A 
ATOM     22  C   UNL     1       0.047   9.414  23.280  0.00  0.00    +0.000 A 
ATOM     23  C   UNL     1       1.429   9.445  23.097  0.00  0.00    +0.000 A 
ATOM     24  C   UNL     1       1.988   8.995  21.896  0.00  0.00    +0.000 A 
ENDBRANCH   7  19
TORSDOF 2
ENDMDL
MODEL 8
REMARK VINA RESULT:      -6.6      0.851      2.073
REMARK  Name = 
REMARK  4 active torsions:
REMARK  status: ('A' for Active; 'I' for Inactive)
REMARK    1  A    between atoms: C_1  and  C_2
REMARK    2  A    between atoms: C_4  and  N_5
REMARK    3  A    between atoms: C_12  and  C_13
REMARK    4  A    between atoms: N_18  and  C_19
REMARK                            x       y       z     vdW  Elec       q    Type
REMARK                         _______ _______ _______ _____ _____    ______ ____
ROOT
ATOM      1  C   UNL     1       5.196   7.450  15.213  0.00  0.00    +0.000 C 
ATOM      2  C   UNL     1       5.666   6.420  16.242  0.00  0.00    +0.000 C 
ATOM      3  C   UNL     1       4.762   6.458  17.481  0.00  0.00    +0.000 C 
ATOM      4  C   UNL     1       4.907   5.054  18.063  0.00  0.00    +0.000 C 
ATOM      5  C   UNL     1       5.087   4.195  16.812  0.00  0.00    +0.000 C 
ATOM      6  O   UNL     1       4.930   2.983  16.761  0.00  0.00    +0.000 OA
ATOM      7  N   UNL     1       5.550   5.045  15.799  0.00  0.00    +0.000 N 
ENDROOT
BRANCH   4   8
ATOM      8  N   UNL     1       3.817   4.531  18.863  0.00  0.00    +0.000 N 
ATOM      9  C   UNL     1       2.495   4.752  18.602  0.00  0.00    +0.000 C 
ATOM     10  O   UNL     1       2.037   5.488  17.737  0.00  0.00    +0.000 OA
ATOM     11  N   UNL     1       1.728   3.882  19.370  0.00  0.00    +0.000 N 
ATOM     12  C   UNL     1       0.576   3.255  18.753  0.00  0.00    +0.000 C 
ATOM     13  C   UNL     1       0.629   1.809  19.233  0.00  0.00    +0.000 C 
ATOM     14  C   UNL     1       2.116   1.578  19.519  0.00  0.00    +0.000 C 
ATOM     15  C   UNL     1       2.572   2.928  20.071  0.00  0.00    +0.000 C 
ATOM     16  C   UNL     1       2.427   3.049  21.583  0.00  0.00    +0.000 C 
ATOM     17  C   UNL     1       3.958   3.390  19.615  0.00  0.00    +0.000 C 
ATOM     18  O   UNL     1       5.009   2.829  19.896  0.00  0.00    +0.000 OA
ENDBRANCH   4   8
BRANCH   7  19
ATOM     19  C   UNL     1       5.935   4.587  14.526  0.00  0.00    +0.000 A 
ATOM     20  C   UNL     1       5.028   3.844  13.763  0.00  0.00    +0.000 A 
ATOM     21  C   UNL     1       5.371   3.416  12.479  0.00  0.00    +0.000 A 
ATOM     22  C   UNL     1       6.639   3.686  11.973  0.00  0.00    +0.000 A 
ATOM     23  C   UNL     1       7.558   4.404  12.739  0.00  0.00    +0.000 A 
ATOM     24  C   UNL     1       7.198   4.877  14.004  0.00  0.00    +0.000 A 
ENDBRANCH   7  19
TORSDOF 2
ENDMDL
MODEL 9
REMARK VINA RESULT:      -6.6      3.892      5.296
REMARK  Name = 
REMARK  4 active torsions:
REMARK  status: ('A' for Active; 'I' for Inactive)
REMARK    1  A    between atoms: C_1  and  C_2
REMARK    2  A    between atoms: C_4  and  N_5
REMARK    3  A    between atoms: C_12  and  C_13
REMARK    4  A    between atoms: N_18  and  C_19
REMARK                            x       y       z     vdW  Elec       q    Type
REMARK                         _______ _______ _______ _____ _____    ______ ____
ROOT
ATOM      1  C   UNL     1       3.172   3.181  18.395  0.00  0.00    +0.000 C 
ATOM      2  C   UNL     1       2.734   4.504  17.763  0.00  0.00    +0.000 C 
ATOM      3  C   UNL     1       1.847   5.288  18.737  0.00  0.00    +0.000 C 
ATOM      4  C   UNL     1       2.036   6.737  18.294  0.00  0.00    +0.000 C 
ATOM      5  C   UNL     1       3.486   6.749  17.813  0.00  0.00    +0.000 C 
ATOM      6  O   UNL     1       4.170   7.752  17.661  0.00  0.00    +0.000 OA
ATOM      7  N   UNL     1       3.821   5.425  17.501  0.00  0.00    +0.000 N 
ENDROOT
BRANCH   4   8
ATOM      8  N   UNL     1       1.837   7.784  19.276  0.00  0.00    +0.000 N 
ATOM      9  C   UNL     1       1.464   9.063  18.975  0.00  0.00    +0.000 C 
ATOM     10  O   UNL     1       1.341   9.540  17.853  0.00  0.00    +0.000 OA
ATOM     11  N   UNL     1       1.082   9.714  20.143  0.00  0.00    +0.000 N 
ATOM     12  C   UNL     1      -0.086  10.571  20.101  0.00  0.00    +0.000 C 
ATOM     13  C   UNL     1      -0.836  10.254  21.389  0.00  0.00    +0.000 C 
ATOM     14  C   UNL     1      -0.409   8.818  21.712  0.00  0.00    +0.000 C 
ATOM     15  C   UNL     1       1.052   8.788  21.264  0.00  0.00    +0.000 C 
ATOM     16  C   UNL     1       2.033   9.194  22.358  0.00  0.00    +0.000 C 
ATOM     17  C   UNL     1       1.502   7.497  20.578  0.00  0.00    +0.000 C 
ATOM     18  O   UNL     1       1.561   6.401  21.119  0.00  0.00    +0.000 OA
ENDBRANCH   4   8
BRANCH   7  19
ATOM     19  C   UNL     1       5.049   5.058  16.920  0.00  0.00    +0.000 A 
ATOM     20  C   UNL     1       5.109   4.812  15.545  0.00  0.00    +0.000 A 
ATOM     21  C   UNL     1       6.324   4.490  14.938  0.00  0.00    +0.000 A 
ATOM     22  C   UNL     1       7.475   4.366  15.712  0.00  0.00    +0.000 A 
ATOM     23  C   UNL     1       7.418   4.585  17.088  0.00  0.00    +0.000 A 
ATOM     24  C   UNL     1       6.211   4.957  17.689  0.00  0.00    +0.000 A 
ENDBRANCH   7  19
TORSDOF 2
ENDMDL
