MODEL 1
REMARK VINA RESULT:      -8.0      0.000      0.000
REMARK  Name = 
REMARK  7 active torsions:
REMARK  status: ('A' for Active; 'I' for Inactive)
REMARK    1  A    between atoms: C_2  and  C_3
REMARK    2  A    between atoms: C_2  and  C_11
REMARK    3  A    between atoms: C_3  and  C_4
REMARK    4  A    between atoms: C_4  and  C_6
REMARK    5  A    between atoms: C_14  and  O_15
REMARK    6  A    between atoms: O_15  and  C_16
REMARK    7  A    between atoms: C_16  and  C_17
REMARK                            x       y       z     vdW  Elec       q    Type
REMARK                         _______ _______ _______ _____ _____    ______ ____
ROOT
ATOM      1  C   UNL     1       6.103   5.312  17.479  0.00  0.00    +0.000 A 
ATOM      2  C   UNL     1       6.092   6.541  16.807  0.00  0.00    +0.000 A 
ATOM      3  C   UNL     1       6.969   7.562  17.179  0.00  0.00    +0.000 A 
ATOM      4  C   UNL     1       7.850   7.371  18.244  0.00  0.00    +0.000 A 
ATOM      5  C   UNL     1       7.894   6.138  18.891  0.00  0.00    +0.000 A 
ATOM      6  C   UNL     1       7.013   5.116  18.526  0.00  0.00    +0.000 A 
ENDROOT
BRANCH   1   8
ATOM      7  O   UNL     1       4.898   4.108  15.846  0.00  0.00    +0.000 OA
ATOM      8  C   UNL     1       5.123   4.266  17.046  0.00  0.00    +0.000 C 
BRANCH   8   9
ATOM      9  C   UNL     1       4.379   3.463  18.079  0.00  0.00    +0.000 C 
BRANCH   9  10
ATOM     10  C   UNL     1       3.230   4.193  18.728  0.00  0.00    +0.000 C 
ATOM     11  O   UNL     1       2.725   5.204  18.243  0.00  0.00    +0.000 OA
BRANCH  10  12
ATOM     12  C   UNL     1       2.724   3.612  19.944  0.00  0.00    +0.000 A 
ATOM     13  N   UNL     1       3.449   3.021  20.869  0.00  0.00    +0.000 NA
ATOM     14  N   UNL     1       2.595   2.570  21.848  0.00  0.00    +0.000 NA
ATOM     15  C   UNL     1       1.373   2.894  21.495  0.00  0.00    +0.000 A 
ATOM     16  N   UNL     1       1.405   3.553  20.307  0.00  0.00    +0.000 N 
ATOM     17  H   UNL     1       0.628   3.919  19.774  0.00  0.00    +0.000 HD
ENDBRANCH  10  12
ENDBRANCH   9  10
ENDBRANCH   8   9
ENDBRANCH   1   8
BRANCH   4  18
ATOM     18  O   UNL     1       8.707   8.320  18.727  0.00  0.00    +0.000 OA
BRANCH  18  19
ATOM     19  C   UNL     1       8.511   9.631  18.191  0.00  0.00    +0.000 C 
BRANCH  19  20
ATOM     20  C   UNL     1       9.463  10.586  18.864  0.00  0.00    +0.000 A 
ATOM     21  C   UNL     1       9.352  10.857  20.233  0.00  0.00    +0.000 A 
ATOM     22  C   UNL     1      10.240  11.739  20.849  0.00  0.00    +0.000 A 
ATOM     23  C   UNL     1      11.246  12.353  20.106  0.00  0.00    +0.000 A 
ATOM     24  C   UNL     1      11.365  12.092  18.742  0.00  0.00    +0.000 A 
ATOM     25  C   UNL     1      10.475  11.213  18.124  0.00  0.00    +0.000 A 
ENDBRANCH  19  20
ENDBRANCH  18  19
ENDBRANCH   4  18
TORSDOF 7
ENDMDL
MODEL 2
REMARK VINA RESULT:      -8.0      0.454      1.270
REMARK  Name = 
REMARK  7 active torsions:
REMARK  status: ('A' for Active; 'I' for Inactive)
REMARK    1  A    between atoms: C_2  and  C_3
REMARK    2  A    between atoms: C_2  and  C_11
REMARK    3  A    between atoms: C_3  and  C_4
REMARK    4  A    between atoms: C_4  and  C_6
REMARK    5  A    between atoms: C_14  and  O_15
REMARK    6  A    between atoms: O_15  and  C_16
REMARK    7  A    between atoms: C_16  and  C_17
REMARK                            x       y       z     vdW  Elec       q    Type
REMARK                         _______ _______ _______ _____ _____    ______ ____
ROOT
ATOM      1  C   UNL     1       6.193   5.240  17.396  0.00  0.00    +0.000 A 
ATOM      2  C   UNL     1       6.111   6.483  16.759  0.00  0.00    +0.000 A 
ATOM      3  C   UNL     1       6.934   7.540  17.155  0.00  0.00    +0.000 A 
ATOM      4  C   UNL     1       7.832   7.367  18.209  0.00  0.00    +0.000 A 
ATOM      5  C   UNL     1       7.947   6.121  18.820  0.00  0.00    +0.000 A 
ATOM      6  C   UNL     1       7.120   5.063  18.431  0.00  0.00    +0.000 A 
ENDROOT
BRANCH   1   8
ATOM      7  O   UNL     1       5.145   3.932  15.734  0.00  0.00    +0.000 OA
ATOM      8  C   UNL     1       5.268   4.154  16.939  0.00  0.00    +0.000 C 
BRANCH   8   9
ATOM      9  C   UNL     1       4.454   3.389  17.947  0.00  0.00    +0.000 C 
BRANCH   9  10
ATOM     10  C   UNL     1       3.145   4.042  18.317  0.00  0.00    +0.000 C 
ATOM     11  O   UNL     1       2.629   4.928  17.638  0.00  0.00    +0.000 OA
BRANCH  10  12
ATOM     12  C   UNL     1       2.506   3.537  19.504  0.00  0.00    +0.000 A 
ATOM     13  N   UNL     1       1.245   3.721  19.832  0.00  0.00    +0.000 NA
ATOM     14  N   UNL     1       1.034   3.115  21.048  0.00  0.00    +0.000 NA
ATOM     15  C   UNL     1       2.169   2.578  21.431  0.00  0.00    +0.000 A 
ATOM     16  N   UNL     1       3.122   2.815  20.491  0.00  0.00    +0.000 N 
ATOM     17  H   UNL     1       4.094   2.539  20.504  0.00  0.00    +0.000 HD
ENDBRANCH  10  12
ENDBRANCH   9  10
ENDBRANCH   8   9
ENDBRANCH   1   8
BRANCH   4  18
ATOM     18  O   UNL     1       8.639   8.348  18.713  0.00  0.00    +0.000 OA
BRANCH  18  19
ATOM     19  C   UNL     1       8.482   9.629  18.098  0.00  0.00    +0.000 C 
BRANCH  19  20
ATOM     20  C   UNL     1       9.461  10.595  18.712  0.00  0.00    +0.000 A 
ATOM     21  C   UNL     1      10.377  11.289  17.912  0.00  0.00    +0.000 A 
ATOM     22  C   UNL     1      11.277  12.185  18.489  0.00  0.00    +0.000 A 
ATOM     23  C   UNL     1      11.268  12.397  19.866  0.00  0.00    +0.000 A 
ATOM     24  C   UNL     1      10.362  11.711  20.673  0.00  0.00    +0.000 A 
ATOM     25  C   UNL     1       9.463  10.812  20.098  0.00  0.00    +0.000 A 
ENDBRANCH  19  20
ENDBRANCH  18  19
ENDBRANCH   4  18
TORSDOF 7
ENDMDL
MODEL 3
REMARK VINA RESULT:      -7.8      1.050      1.578
REMARK  Name = 
REMARK  7 active torsions:
REMARK  status: ('A' for Active; 'I' for Inactive)
REMARK    1  A    between atoms: C_2  and  C_3
REMARK    2  A    between atoms: C_2  and  C_11
REMARK    3  A    between atoms: C_3  and  C_4
REMARK    4  A    between atoms: C_4  and  C_6
REMARK    5  A    between atoms: C_14  and  O_15
REMARK    6  A    between atoms: O_15  and  C_16
REMARK    7  A    between atoms: C_16  and  C_17
REMARK                            x       y       z     vdW  Elec       q    Type
REMARK                         _______ _______ _______ _____ _____    ______ ____
ROOT
ATOM      1  C   UNL     1       6.404   5.394  17.327  0.00  0.00    +0.000 A 
ATOM      2  C   UNL     1       6.236   6.670  16.776  0.00  0.00    +0.000 A 
ATOM      3  C   UNL     1       7.005   7.745  17.228  0.00  0.00    +0.000 A 
ATOM      4  C   UNL     1       7.932   7.557  18.254  0.00  0.00    +0.000 A 
ATOM      5  C   UNL     1       8.132   6.282  18.778  0.00  0.00    +0.000 A 
ATOM      6  C   UNL     1       7.360   5.205  18.333  0.00  0.00    +0.000 A 
ENDROOT
BRANCH   1   8
ATOM      7  O   UNL     1       5.962   3.541  15.934  0.00  0.00    +0.000 OA
ATOM      8  C   UNL     1       5.534   4.287  16.814  0.00  0.00    +0.000 C 
BRANCH   8   9
ATOM      9  C   UNL     1       4.129   4.137  17.331  0.00  0.00    +0.000 C 
BRANCH   9  10
ATOM     10  C   UNL     1       4.027   3.445  18.668  0.00  0.00    +0.000 C 
ATOM     11  O   UNL     1       5.009   3.021  19.274  0.00  0.00    +0.000 OA
BRANCH  10  12
ATOM     12  C   UNL     1       2.701   3.340  19.220  0.00  0.00    +0.000 A 
ATOM     13  N   UNL     1       1.731   2.589  18.746  0.00  0.00    +0.000 NA
ATOM     14  N   UNL     1       0.619   2.795  19.528  0.00  0.00    +0.000 NA
ATOM     15  C   UNL     1       0.937   3.667  20.455  0.00  0.00    +0.000 A 
ATOM     16  N   UNL     1       2.236   4.036  20.304  0.00  0.00    +0.000 N 
ATOM     17  H   UNL     1       2.766   4.697  20.855  0.00  0.00    +0.000 HD
ENDBRANCH  10  12
ENDBRANCH   9  10
ENDBRANCH   8   9
ENDBRANCH   1   8
BRANCH   4  18
ATOM     18  O   UNL     1       8.692   8.548  18.810  0.00  0.00    +0.000 OA
BRANCH  18  19
ATOM     19  C   UNL     1       8.585   9.818  18.162  0.00  0.00    +0.000 C 
BRANCH  19  20
ATOM     20  C   UNL     1       9.593  10.763  18.762  0.00  0.00    +0.000 A 
ATOM     21  C   UNL     1      10.514  11.435  17.948  0.00  0.00    +0.000 A 
ATOM     22  C   UNL     1      11.441  12.312  18.512  0.00  0.00    +0.000 A 
ATOM     23  C   UNL     1      11.455  12.528  19.888  0.00  0.00    +0.000 A 
ATOM     24  C   UNL     1      10.544  11.864  20.708  0.00  0.00    +0.000 A 
ATOM     25  C   UNL     1       9.618  10.984  20.146  0.00  0.00    +0.000 A 
ENDBRANCH  19  20
ENDBRANCH  18  19
ENDBRANCH   4  18
TORSDOF 7
ENDMDL
MODEL 4
REMARK VINA RESULT:      -7.8      0.999      1.050
REMARK  Name = 
REMARK  7 active torsions:
REMARK  status: ('A' for Active; 'I' for Inactive)
REMARK    1  A    between atoms: C_2  and  C_3
REMARK    2  A    between atoms: C_2  and  C_11
REMARK    3  A    between atoms: C_3  and  C_4
REMARK    4  A    between atoms: C_4  and  C_6
REMARK    5  A    between atoms: C_14  and  O_15
REMARK    6  A    between atoms: O_15  and  C_16
REMARK    7  A    between atoms: C_16  and  C_17
REMARK                            x       y       z     vdW  Elec       q    Type
REMARK                         _______ _______ _______ _____ _____    ______ ____
ROOT
ATOM      1  C   UNL     1       6.373   5.399  17.462  0.00  0.00    +0.000 A 
ATOM      2  C   UNL     1       6.344   6.626  16.788  0.00  0.00    +0.000 A 
ATOM      3  C   UNL     1       7.167   7.678  17.195  0.00  0.00    +0.000 A 
ATOM      4  C   UNL     1       8.009   7.520  18.296  0.00  0.00    +0.000 A 
ATOM      5  C   UNL     1       8.071   6.290  18.946  0.00  0.00    +0.000 A 
ATOM      6  C   UNL     1       7.245   5.236  18.546  0.00  0.00    +0.000 A 
ENDROOT
BRANCH   1   8
ATOM      7  O   UNL     1       5.801   3.585  16.064  0.00  0.00    +0.000 OA
ATOM      8  C   UNL     1       5.451   4.317  16.991  0.00  0.00    +0.000 C 
BRANCH   8   9
ATOM      9  C   UNL     1       4.086   4.173  17.607  0.00  0.00    +0.000 C 
BRANCH   9  10
ATOM     10  C   UNL     1       4.063   3.395  18.899  0.00  0.00    +0.000 C 
ATOM     11  O   UNL     1       5.069   2.876  19.380  0.00  0.00    +0.000 OA
BRANCH  10  12
ATOM     12  C   UNL     1       2.790   3.324  19.567  0.00  0.00    +0.000 A 
ATOM     13  N   UNL     1       2.560   3.668  20.816  0.00  0.00    +0.000 NA
ATOM     14  N   UNL     1       1.234   3.420  21.083  0.00  0.00    +0.000 NA
ATOM     15  C   UNL     1       0.690   2.930  19.994  0.00  0.00    +0.000 A 
ATOM     16  N   UNL     1       1.628   2.855  19.013  0.00  0.00    +0.000 N 
ATOM     17  H   UNL     1       1.519   2.512  18.069  0.00  0.00    +0.000 HD
ENDBRANCH  10  12
ENDBRANCH   9  10
ENDBRANCH   8   9
ENDBRANCH   1   8
BRANCH   4  18
ATOM     18  O   UNL     1       8.809   8.501  18.813  0.00  0.00    +0.000 OA
BRANCH  18  19
ATOM     19  C   UNL     1       8.544   9.814  18.314  0.00  0.00    +0.000 C 
BRANCH  19  20
ATOM     20  C   UNL     1       9.592  10.761  18.840  0.00  0.00    +0.000 A 
ATOM     21  C   UNL     1       9.672  11.048  20.208  0.00  0.00    +0.000 A 
ATOM     22  C   UNL     1      10.649  11.922  20.686  0.00  0.00    +0.000 A 
ATOM     23  C   UNL     1      11.552  12.514  19.805  0.00  0.00    +0.000 A 
ATOM     24  C   UNL     1      11.479  12.237  18.441  0.00  0.00    +0.000 A 
ATOM     25  C   UNL     1      10.502  11.365  17.961  0.00  0.00    +0.000 A 
ENDBRANCH  19  20
ENDBRANCH  18  19
ENDBRANCH   4  18
TORSDOF 7
ENDMDL
MODEL 5
REMARK VINA RESULT:      -7.7      1.144      1.538
REMARK  Name = 
REMARK  7 active torsions:
REMARK  status: ('A' for Active; 'I' for Inactive)
REMARK    1  A    between atoms: C_2  and  C_3
REMARK    2  A    between atoms: C_2  and  C_11
REMARK    3  A    between atoms: C_3  and  C_4
REMARK    4  A    between atoms: C_4  and  C_6
REMARK    5  A    between atoms: C_14  and  O_15
REMARK    6  A    between atoms: O_15  and  C_16
REMARK    7  A    between atoms: C_16  and  C_17
REMARK                            x       y       z     vdW  Elec       q    Type
REMARK                         _______ _______ _______ _____ _____    ______ ____
ROOT
ATOM      1  C   UNL     1       5.941   5.267  18.301  0.00  0.00    +0.000 A 
ATOM      2  C   UNL     1       7.112   5.408  19.056  0.00  0.00    +0.000 A 
ATOM      3  C   UNL     1       7.962   6.497  18.851  0.00  0.00    +0.000 A 
ATOM      4  C   UNL     1       7.660   7.443  17.872  0.00  0.00    +0.000 A 
ATOM      5  C   UNL     1       6.476   7.331  17.146  0.00  0.00    +0.000 A 
ATOM      6  C   UNL     1       5.626   6.239  17.343  0.00  0.00    +0.000 A 
ENDROOT
BRANCH   1   8
ATOM      7  O   UNL     1       5.274   3.388  19.564  0.00  0.00    +0.000 OA
ATOM      8  C   UNL     1       5.083   4.066  18.554  0.00  0.00    +0.000 C 
BRANCH   8   9
ATOM      9  C   UNL     1       4.042   3.664  17.545  0.00  0.00    +0.000 C 
BRANCH   9  10
ATOM     10  C   UNL     1       2.618   3.849  18.009  0.00  0.00    +0.000 C 
ATOM     11  O   UNL     1       1.715   4.209  17.257  0.00  0.00    +0.000 OA
BRANCH  10  12
ATOM     12  C   UNL     1       2.365   3.540  19.393  0.00  0.00    +0.000 A 
ATOM     13  N   UNL     1       1.991   2.368  19.859  0.00  0.00    +0.000 NA
ATOM     14  N   UNL     1       1.818   2.491  21.218  0.00  0.00    +0.000 NA
ATOM     15  C   UNL     1       2.087   3.734  21.545  0.00  0.00    +0.000 A 
ATOM     16  N   UNL     1       2.439   4.429  20.431  0.00  0.00    +0.000 N 
ATOM     17  H   UNL     1       2.690   5.406  20.357  0.00  0.00    +0.000 HD
ENDBRANCH  10  12
ENDBRANCH   9  10
ENDBRANCH   8   9
ENDBRANCH   1   8
BRANCH   4  18
ATOM     18  O   UNL     1       8.449   8.512  17.550  0.00  0.00    +0.000 OA
BRANCH  18  19
ATOM     19  C   UNL     1       7.995   9.768  18.062  0.00  0.00    +0.000 C 
BRANCH  19  20
ATOM     20  C   UNL     1       9.168  10.520  18.635  0.00  0.00    +0.000 A 
ATOM     21  C   UNL     1       9.262  10.754  20.012  0.00  0.00    +0.000 A 
ATOM     22  C   UNL     1      10.354  11.447  20.534  0.00  0.00    +0.000 A 
ATOM     23  C   UNL     1      11.361  11.908  19.688  0.00  0.00    +0.000 A 
ATOM     24  C   UNL     1      11.277  11.682  18.316  0.00  0.00    +0.000 A 
ATOM     25  C   UNL     1      10.184  10.992  17.791  0.00  0.00    +0.000 A 
ENDBRANCH  19  20
ENDBRANCH  18  19
ENDBRANCH   4  18
TORSDOF 7
ENDMDL
MODEL 6
REMARK VINA RESULT:      -7.7      6.339      9.438
REMARK  Name = 
REMARK  7 active torsions:
REMARK  status: ('A' for Active; 'I' for Inactive)
REMARK    1  A    between atoms: C_2  and  C_3
REMARK    2  A    between atoms: C_2  and  C_11
REMARK    3  A    between atoms: C_3  and  C_4
REMARK    4  A    between atoms: C_4  and  C_6
REMARK    5  A    between atoms: C_14  and  O_15
REMARK    6  A    between atoms: O_15  and  C_16
REMARK    7  A    between atoms: C_16  and  C_17
REMARK                            x       y       z     vdW  Elec       q    Type
REMARK                         _______ _______ _______ _____ _____    ______ ____
ROOT
ATOM      1  C   UNL     1       0.664   9.834  19.566  0.00  0.00    +0.000 A 
ATOM      2  C   UNL     1       1.029   9.736  18.218  0.00  0.00    +0.000 A 
ATOM      3  C   UNL     1       1.851   8.695  17.779  0.00  0.00    +0.000 A 
ATOM      4  C   UNL     1       2.334   7.757  18.690  0.00  0.00    +0.000 A 
ATOM      5  C   UNL     1       1.942   7.825  20.025  0.00  0.00    +0.000 A 
ATOM      6  C   UNL     1       1.125   8.869  20.470  0.00  0.00    +0.000 A 
ENDROOT
BRANCH   1   8
ATOM      7  O   UNL     1      -0.484  11.135  21.166  0.00  0.00    +0.000 OA
ATOM      8  C   UNL     1      -0.202  10.986  19.977  0.00  0.00    +0.000 C 
BRANCH   8   9
ATOM      9  C   UNL     1      -0.768  11.908  18.932  0.00  0.00    +0.000 C 
BRANCH   9  10
ATOM     10  C   UNL     1      -2.229  11.687  18.631  0.00  0.00    +0.000 C 
ATOM     11  O   UNL     1      -3.128  12.077  19.374  0.00  0.00    +0.000 OA
BRANCH  10  12
ATOM     12  C   UNL     1      -2.519  11.020  17.388  0.00  0.00    +0.000 A 
ATOM     13  N   UNL     1      -2.881   9.762  17.261  0.00  0.00    +0.000 NA
ATOM     14  N   UNL     1      -3.027   9.500  15.918  0.00  0.00    +0.000 NA
ATOM     15  C   UNL     1      -2.749  10.602  15.262  0.00  0.00    +0.000 A 
ATOM     16  N   UNL     1      -2.427  11.585  16.144  0.00  0.00    +0.000 N 
ATOM     17  H   UNL     1      -2.156  12.539  15.945  0.00  0.00    +0.000 HD
ENDBRANCH  10  12
ENDBRANCH   9  10
ENDBRANCH   8   9
ENDBRANCH   1   8
BRANCH   4  18
ATOM     18  O   UNL     1       3.189   6.736  18.379  0.00  0.00    +0.000 OA
BRANCH  18  19
ATOM     19  C   UNL     1       3.429   5.811  19.442  0.00  0.00    +0.000 C 
BRANCH  19  20
ATOM     20  C   UNL     1       2.606   4.570  19.211  0.00  0.00    +0.000 A 
ATOM     21  C   UNL     1       1.550   4.243  20.070  0.00  0.00    +0.000 A 
ATOM     22  C   UNL     1       0.791   3.095  19.845  0.00  0.00    +0.000 A 
ATOM     23  C   UNL     1       1.077   2.266  18.762  0.00  0.00    +0.000 A 
ATOM     24  C   UNL     1       2.127   2.581  17.901  0.00  0.00    +0.000 A 
ATOM     25  C   UNL     1       2.890   3.728  18.126  0.00  0.00    +0.000 A 
ENDBRANCH  19  20
ENDBRANCH  18  19
ENDBRANCH   4  18
TORSDOF 7
ENDMDL
MODEL 7
REMARK VINA RESULT:      -7.7      5.675      7.768
REMARK  Name = 
REMARK  7 active torsions:
REMARK  status: ('A' for Active; 'I' for Inactive)
REMARK    1  A    between atoms: C_2  and  C_3
REMARK    2  A    between atoms: C_2  and  C_11
REMARK    3  A    between atoms: C_3  and  C_4
REMARK    4  A    between atoms: C_4  and  C_6
REMARK    5  A    between atoms: C_14  and  O_15
REMARK    6  A    between atoms: O_15  and  C_16
REMARK    7  A    between atoms: C_16  and  C_17
REMARK                            x       y       z     vdW  Elec       q    Type
REMARK                         _______ _______ _______ _____ _____    ______ ____
ROOT
ATOM      1  C   UNL     1       3.322   4.941  18.610  0.00  0.00    +0.000 A 
ATOM      2  C   UNL     1       2.693   4.877  19.859  0.00  0.00    +0.000 A 
ATOM      3  C   UNL     1       2.076   6.007  20.401  0.00  0.00    +0.000 A 
ATOM      4  C   UNL     1       2.103   7.217  19.708  0.00  0.00    +0.000 A 
ATOM      5  C   UNL     1       2.692   7.277  18.447  0.00  0.00    +0.000 A 
ATOM      6  C   UNL     1       3.317   6.150  17.904  0.00  0.00    +0.000 A 
ENDROOT
BRANCH   1   8
ATOM      7  O   UNL     1       4.012   2.692  18.798  0.00  0.00    +0.000 OA
ATOM      8  C   UNL     1       3.984   3.701  18.093  0.00  0.00    +0.000 C 
BRANCH   8   9
ATOM      9  C   UNL     1       4.661   3.717  16.749  0.00  0.00    +0.000 C 
BRANCH   9  10
ATOM     10  C   UNL     1       6.057   4.290  16.761  0.00  0.00    +0.000 C 
ATOM     11  O   UNL     1       6.688   4.482  17.798  0.00  0.00    +0.000 OA
BRANCH  10  12
ATOM     12  C   UNL     1       6.632   4.566  15.470  0.00  0.00    +0.000 A 
ATOM     13  N   UNL     1       7.595   5.429  15.230  0.00  0.00    +0.000 NA
ATOM     14  N   UNL     1       7.835   5.426  13.875  0.00  0.00    +0.000 NA
ATOM     15  C   UNL     1       7.012   4.564  13.325  0.00  0.00    +0.000 A 
ATOM     16  N   UNL     1       6.240   3.996  14.288  0.00  0.00    +0.000 N 
ATOM     17  H   UNL     1       5.508   3.307  14.177  0.00  0.00    +0.000 HD
ENDBRANCH  10  12
ENDBRANCH   9  10
ENDBRANCH   8   9
ENDBRANCH   1   8
BRANCH   4  18
ATOM     18  O   UNL     1       1.583   8.393  20.172  0.00  0.00    +0.000 OA
BRANCH  18  19
ATOM     19  C   UNL     1       0.977   8.311  21.464  0.00  0.00    +0.000 C 
BRANCH  19  20
ATOM     20  C   UNL     1       0.204   9.578  21.727  0.00  0.00    +0.000 A 
ATOM     21  C   UNL     1       0.181  10.609  20.781  0.00  0.00    +0.000 A 
ATOM     22  C   UNL     1      -0.541  11.776  21.030  0.00  0.00    +0.000 A 
ATOM     23  C   UNL     1      -1.247  11.921  22.223  0.00  0.00    +0.000 A 
ATOM     24  C   UNL     1      -1.231  10.902  23.173  0.00  0.00    +0.000 A 
ATOM     25  C   UNL     1      -0.507   9.735  22.926  0.00  0.00    +0.000 A 
ENDBRANCH  19  20
ENDBRANCH  18  19
ENDBRANCH   4  18
TORSDOF 7
ENDMDL
MODEL 8
REMARK VINA RESULT:      -7.7      5.015      7.475
REMARK  Name = 
REMARK  7 active torsions:
REMARK  status: ('A' for Active; 'I' for Inactive)
REMARK    1  A    between atoms: C_2  and  C_3
REMARK    2  A    between atoms: C_2  and  C_11
REMARK    3  A    between atoms: C_3  and  C_4
REMARK    4  A    between atoms: C_4  and  C_6
REMARK    5  A    between atoms: C_14  and  O_15
REMARK    6  A    between atoms: O_15  and  C_16
REMARK    7  A    between atoms: C_16  and  C_17
REMARK                            x       y       z     vdW  Elec       q    Type
REMARK                         _______ _______ _______ _____ _____    ______ ____
ROOT
ATOM      1  C   UNL     1       2.368   5.277  18.643  0.00  0.00    +0.000 A 
ATOM      2  C   UNL     1       1.921   5.185  19.967  0.00  0.00    +0.000 A 
ATOM      3  C   UNL     1       1.664   6.339  20.711  0.00  0.00    +0.000 A 
ATOM      4  C   UNL     1       1.876   7.596  20.144  0.00  0.00    +0.000 A 
ATOM      5  C   UNL     1       2.282   7.695  18.816  0.00  0.00    +0.000 A 
ATOM      6  C   UNL     1       2.546   6.542  18.069  0.00  0.00    +0.000 A 
ENDROOT
BRANCH   1   8
ATOM      7  O   UNL     1       1.762   3.502  17.211  0.00  0.00    +0.000 OA
ATOM      8  C   UNL     1       2.646   4.004  17.906  0.00  0.00    +0.000 C 
BRANCH   8   9
ATOM      9  C   UNL     1       3.975   3.318  18.069  0.00  0.00    +0.000 C 
BRANCH   9  10
ATOM     10  C   UNL     1       5.125   4.015  17.386  0.00  0.00    +0.000 C 
ATOM     11  O   UNL     1       5.176   4.176  16.168  0.00  0.00    +0.000 OA
BRANCH  10  12
ATOM     12  C   UNL     1       6.155   4.524  18.254  0.00  0.00    +0.000 A 
ATOM     13  N   UNL     1       5.961   5.056  19.441  0.00  0.00    +0.000 NA
ATOM     14  N   UNL     1       7.185   5.450  19.931  0.00  0.00    +0.000 NA
ATOM     15  C   UNL     1       8.092   5.151  19.030  0.00  0.00    +0.000 A 
ATOM     16  N   UNL     1       7.492   4.565  17.960  0.00  0.00    +0.000 N 
ATOM     17  H   UNL     1       7.921   4.234  17.107  0.00  0.00    +0.000 HD
ENDBRANCH  10  12
ENDBRANCH   9  10
ENDBRANCH   8   9
ENDBRANCH   1   8
BRANCH   4  18
ATOM     18  O   UNL     1       1.713   8.785  20.801  0.00  0.00    +0.000 OA
BRANCH  18  19
ATOM     19  C   UNL     1       0.844   8.728  21.935  0.00  0.00    +0.000 C 
BRANCH  19  20
ATOM     20  C   UNL     1      -0.076   9.921  21.911  0.00  0.00    +0.000 A 
ATOM     21  C   UNL     1      -0.298  10.627  20.723  0.00  0.00    +0.000 A 
ATOM     22  C   UNL     1      -1.155  11.727  20.709  0.00  0.00    +0.000 A 
ATOM     23  C   UNL     1      -1.798  12.129  21.879  0.00  0.00    +0.000 A 
ATOM     24  C   UNL     1      -1.583  11.434  23.067  0.00  0.00    +0.000 A 
ATOM     25  C   UNL     1      -0.724  10.335  23.084  0.00  0.00    +0.000 A 
ENDBRANCH  19  20
ENDBRANCH  18  19
ENDBRANCH   4  18
TORSDOF 7
ENDMDL
MODEL 9
REMARK VINA RESULT:      -7.7      5.094      7.536
REMARK  Name = 
REMARK  7 active torsions:
REMARK  status: ('A' for Active; 'I' for Inactive)
REMARK    1  A    between atoms: C_2  and  C_3
REMARK    2  A    between atoms: C_2  and  C_11
REMARK    3  A    between atoms: C_3  and  C_4
REMARK    4  A    between atoms: C_4  and  C_6
REMARK    5  A    between atoms: C_14  and  O_15
REMARK    6  A    between atoms: O_15  and  C_16
REMARK    7  A    between atoms: C_16  and  C_17
REMARK                            x       y       z     vdW  Elec       q    Type
REMARK                         _______ _______ _______ _____ _____    ______ ____
ROOT
ATOM      1  C   UNL     1       3.767   5.335  18.069  0.00  0.00    +0.000 A 
ATOM      2  C   UNL     1       3.190   4.750  19.203  0.00  0.00    +0.000 A 
ATOM      3  C   UNL     1       2.402   5.509  20.071  0.00  0.00    +0.000 A 
ATOM      4  C   UNL     1       2.205   6.868  19.826  0.00  0.00    +0.000 A 
ATOM      5  C   UNL     1       2.743   7.447  18.679  0.00  0.00    +0.000 A 
ATOM      6  C   UNL     1       3.537   6.693  17.811  0.00  0.00    +0.000 A 
ENDROOT
BRANCH   1   8
ATOM      7  O   UNL     1       4.312   3.293  17.021  0.00  0.00    +0.000 OA
ATOM      8  C   UNL     1       4.618   4.473  17.189  0.00  0.00    +0.000 C 
BRANCH   8   9
ATOM      9  C   UNL     1       5.869   5.037  16.572  0.00  0.00    +0.000 C 
BRANCH   9  10
ATOM     10  C   UNL     1       7.007   5.239  17.541  0.00  0.00    +0.000 C 
ATOM     11  O   UNL     1       7.552   4.307  18.130  0.00  0.00    +0.000 OA
BRANCH  10  12
ATOM     12  C   UNL     1       7.452   6.597  17.712  0.00  0.00    +0.000 A 
ATOM     13  N   UNL     1       7.214   7.591  16.883  0.00  0.00    +0.000 NA
ATOM     14  N   UNL     1       7.836   8.712  17.381  0.00  0.00    +0.000 NA
ATOM     15  C   UNL     1       8.437   8.375  18.498  0.00  0.00    +0.000 A 
ATOM     16  N   UNL     1       8.221   7.056  18.748  0.00  0.00    +0.000 N 
ATOM     17  H   UNL     1       8.561   6.503  19.523  0.00  0.00    +0.000 HD
ENDBRANCH  10  12
ENDBRANCH   9  10
ENDBRANCH   8   9
ENDBRANCH   1   8
BRANCH   4  18
ATOM     18  O   UNL     1       1.503   7.713  20.640  0.00  0.00    +0.000 OA
BRANCH  18  19
ATOM     19  C   UNL     1       1.096   8.937  20.023  0.00  0.00    +0.000 C 
BRANCH  19  20
ATOM     20  C   UNL     1       0.348   9.771  21.030  0.00  0.00    +0.000 A 
ATOM     21  C   UNL     1      -0.063   9.219  22.250  0.00  0.00    +0.000 A 
ATOM     22  C   UNL     1      -0.751  10.000  23.179  0.00  0.00    +0.000 A 
ATOM     23  C   UNL     1      -1.032  11.336  22.899  0.00  0.00    +0.000 A 
ATOM     24  C   UNL     1      -0.630  11.896  21.688  0.00  0.00    +0.000 A 
ATOM     25  C   UNL     1       0.056  11.115  20.757  0.00  0.00    +0.000 A 
ENDBRANCH  19  20
ENDBRANCH  18  19
ENDBRANCH   4  18
TORSDOF 7
ENDMDL
