MODEL 1
REMARK VINA RESULT:      -7.2      0.000      0.000
REMARK  Name = 
REMARK  6 active torsions:
REMARK  status: ('A' for Active; 'I' for Inactive)
REMARK    1  A    between atoms: C_1  and  O_2
REMARK    2  A    between atoms: O_2  and  C_3
REMARK    3  A    between atoms: C_8  and  C_9
REMARK    4  A    between atoms: C_15  and  C_16
REMARK    5  A    between atoms: C_16  and  C_17
REMARK    6  A    between atoms: C_17  and  O_19
REMARK                            x       y       z     vdW  Elec       q    Type
REMARK                         _______ _______ _______ _____ _____    ______ ____
ROOT
ATOM      1  C   UNL     1       3.949   3.286  17.562  0.00  0.00    +0.000 C 
ATOM      2  N   UNL     1       5.339   3.637  17.609  0.00  0.00    +0.000 N 
ATOM      3  C   UNL     1       5.814   4.836  18.015  0.00  0.00    +0.000 C 
ATOM      4  S   UNL     1       7.446   5.133  18.089  0.00  0.00    +0.000 S 
ATOM      5  N   UNL     1       4.902   5.783  18.356  0.00  0.00    +0.000 N 
ATOM      6  C   UNL     1       3.546   5.616  18.279  0.00  0.00    +0.000 C 
ATOM      7  C   UNL     1       3.031   4.431  17.893  0.00  0.00    +0.000 C 
ATOM      8  H   UNL     1       6.006   2.935  17.324  0.00  0.00    +0.000 HD
ATOM      9  H   UNL     1       5.269   6.684  18.653  0.00  0.00    +0.000 HD
ENDROOT
BRANCH   6  10
ATOM     10  C   UNL     1       2.696   6.750  18.648  0.00  0.00    +0.000 A 
ATOM     11  C   UNL     1       2.416   7.760  17.717  0.00  0.00    +0.000 A 
ATOM     12  C   UNL     1       1.750   8.918  18.119  0.00  0.00    +0.000 A 
ATOM     13  C   UNL     1       1.353   9.069  19.448  0.00  0.00    +0.000 A 
ATOM     14  C   UNL     1       1.597   8.051  20.371  0.00  0.00    +0.000 A 
ATOM     15  C   UNL     1       2.263   6.893  19.974  0.00  0.00    +0.000 A 
ENDBRANCH   6  10
BRANCH   1  17
ATOM     16  C   UNL     1       4.323   2.254  19.706  0.00  0.00    +0.000 C 
ATOM     17  O   UNL     1       3.708   2.170  18.423  0.00  0.00    +0.000 OA
ENDBRANCH   1  17
BRANCH   7  18
ATOM     18  C   UNL     1       1.551   4.122  17.797  0.00  0.00    +0.000 C 
BRANCH  18  19
ATOM     19  C   UNL     1       1.026   3.297  18.960  0.00  0.00    +0.000 C 
ATOM     20  O   UNL     1       0.809   3.709  20.089  0.00  0.00    +0.000 OA
BRANCH  19  21
ATOM     21  O   UNL     1       0.827   2.000  18.620  0.00  0.00    +0.000 OA
ATOM     22  H   UNL     1       1.613   1.561  18.243  0.00  0.00    +0.000 HD
ENDBRANCH  19  21
ENDBRANCH  18  19
ENDBRANCH   7  18
TORSDOF 5
ENDMDL
MODEL 2
REMARK VINA RESULT:      -7.1      0.274      1.142
REMARK  Name = 
REMARK  6 active torsions:
REMARK  status: ('A' for Active; 'I' for Inactive)
REMARK    1  A    between atoms: C_1  and  O_2
REMARK    2  A    between atoms: O_2  and  C_3
REMARK    3  A    between atoms: C_8  and  C_9
REMARK    4  A    between atoms: C_15  and  C_16
REMARK    5  A    between atoms: C_16  and  C_17
REMARK    6  A    between atoms: C_17  and  O_19
REMARK                            x       y       z     vdW  Elec       q    Type
REMARK                         _______ _______ _______ _____ _____    ______ ____
ROOT
ATOM      1  C   UNL     1       3.822   3.298  17.427  0.00  0.00    +0.000 C 
ATOM      2  N   UNL     1       5.241   3.506  17.420  0.00  0.00    +0.000 N 
ATOM      3  C   UNL     1       5.850   4.651  17.803  0.00  0.00    +0.000 C 
ATOM      4  S   UNL     1       7.505   4.782  17.813  0.00  0.00    +0.000 S 
ATOM      5  N   UNL     1       5.052   5.685  18.176  0.00  0.00    +0.000 N 
ATOM      6  C   UNL     1       3.684   5.656  18.151  0.00  0.00    +0.000 C 
ATOM      7  C   UNL     1       3.038   4.528  17.789  0.00  0.00    +0.000 C 
ATOM      8  H   UNL     1       5.823   2.741  17.111  0.00  0.00    +0.000 HD
ATOM      9  H   UNL     1       5.518   6.544  18.456  0.00  0.00    +0.000 HD
ENDROOT
BRANCH   6  10
ATOM     10  C   UNL     1       2.967   6.870  18.549  0.00  0.00    +0.000 A 
ATOM     11  C   UNL     1       2.411   6.977  19.831  0.00  0.00    +0.000 A 
ATOM     12  C   UNL     1       1.587   8.057  20.148  0.00  0.00    +0.000 A 
ATOM     13  C   UNL     1       1.322   9.037  19.192  0.00  0.00    +0.000 A 
ATOM     14  C   UNL     1       1.902   8.954  17.925  0.00  0.00    +0.000 A 
ATOM     15  C   UNL     1       2.725   7.876  17.603  0.00  0.00    +0.000 A 
ENDBRANCH   6  10
BRANCH   1  17
ATOM     16  C   UNL     1       4.195   2.215  19.546  0.00  0.00    +0.000 C 
ATOM     17  O   UNL     1       3.503   2.210  18.300  0.00  0.00    +0.000 OA
ENDBRANCH   1  17
BRANCH   7  18
ATOM     18  C   UNL     1       1.532   4.371  17.750  0.00  0.00    +0.000 C 
BRANCH  18  19
ATOM     19  C   UNL     1       0.977   3.551  18.904  0.00  0.00    +0.000 C 
ATOM     20  O   UNL     1       0.906   3.912  20.069  0.00  0.00    +0.000 OA
BRANCH  19  21
ATOM     21  O   UNL     1       0.564   2.322  18.508  0.00  0.00    +0.000 OA
ATOM     22  H   UNL     1       0.537   2.202  17.540  0.00  0.00    +0.000 HD
ENDBRANCH  19  21
ENDBRANCH  18  19
ENDBRANCH   7  18
TORSDOF 5
ENDMDL
MODEL 3
REMARK VINA RESULT:      -7.0      2.367      4.625
REMARK  Name = 
REMARK  6 active torsions:
REMARK  status: ('A' for Active; 'I' for Inactive)
REMARK    1  A    between atoms: C_1  and  O_2
REMARK    2  A    between atoms: O_2  and  C_3
REMARK    3  A    between atoms: C_8  and  C_9
REMARK    4  A    between atoms: C_15  and  C_16
REMARK    5  A    between atoms: C_16  and  C_17
REMARK    6  A    between atoms: C_17  and  O_19
REMARK                            x       y       z     vdW  Elec       q    Type
REMARK                         _______ _______ _______ _____ _____    ______ ____
ROOT
ATOM      1  C   UNL     1       2.613   4.419  20.605  0.00  0.00    +0.000 C 
ATOM      2  N   UNL     1       2.163   5.779  20.524  0.00  0.00    +0.000 N 
ATOM      3  C   UNL     1       2.548   6.659  19.572  0.00  0.00    +0.000 C 
ATOM      4  S   UNL     1       1.931   8.199  19.526  0.00  0.00    +0.000 S 
ATOM      5  N   UNL     1       3.460   6.230  18.662  0.00  0.00    +0.000 N 
ATOM      6  C   UNL     1       4.037   4.989  18.669  0.00  0.00    +0.000 C 
ATOM      7  C   UNL     1       3.670   4.077  19.592  0.00  0.00    +0.000 C 
ATOM      8  H   UNL     1       1.509   6.095  21.225  0.00  0.00    +0.000 HD
ATOM      9  H   UNL     1       3.750   6.900  17.954  0.00  0.00    +0.000 HD
ENDROOT
BRANCH   6  10
ATOM     10  C   UNL     1       5.035   4.693  17.637  0.00  0.00    +0.000 A 
ATOM     11  C   UNL     1       6.403   4.767  17.931  0.00  0.00    +0.000 A 
ATOM     12  C   UNL     1       7.346   4.653  16.909  0.00  0.00    +0.000 A 
ATOM     13  C   UNL     1       6.927   4.453  15.593  0.00  0.00    +0.000 A 
ATOM     14  C   UNL     1       5.568   4.342  15.300  0.00  0.00    +0.000 A 
ATOM     15  C   UNL     1       4.622   4.458  16.318  0.00  0.00    +0.000 A 
ENDBRANCH   6  10
BRANCH   1  17
ATOM     16  C   UNL     1       1.278   2.692  21.623  0.00  0.00    +0.000 C 
ATOM     17  O   UNL     1       1.492   3.538  20.496  0.00  0.00    +0.000 OA
ENDBRANCH   1  17
BRANCH   7  18
ATOM     18  C   UNL     1       4.218   2.668  19.680  0.00  0.00    +0.000 C 
BRANCH  18  19
ATOM     19  C   UNL     1       3.647   1.727  18.632  0.00  0.00    +0.000 C 
ATOM     20  O   UNL     1       2.646   1.926  17.960  0.00  0.00    +0.000 OA
BRANCH  19  21
ATOM     21  O   UNL     1       4.372   0.586  18.517  0.00  0.00    +0.000 OA
ATOM     22  H   UNL     1       5.301   0.728  18.257  0.00  0.00    +0.000 HD
ENDBRANCH  19  21
ENDBRANCH  18  19
ENDBRANCH   7  18
TORSDOF 5
ENDMDL
MODEL 4
REMARK VINA RESULT:      -7.0      2.427      4.540
REMARK  Name = 
REMARK  6 active torsions:
REMARK  status: ('A' for Active; 'I' for Inactive)
REMARK    1  A    between atoms: C_1  and  O_2
REMARK    2  A    between atoms: O_2  and  C_3
REMARK    3  A    between atoms: C_8  and  C_9
REMARK    4  A    between atoms: C_15  and  C_16
REMARK    5  A    between atoms: C_16  and  C_17
REMARK    6  A    between atoms: C_17  and  O_19
REMARK                            x       y       z     vdW  Elec       q    Type
REMARK                         _______ _______ _______ _____ _____    ______ ____
ROOT
ATOM      1  C   UNL     1       2.621   4.406  20.644  0.00  0.00    +0.000 C 
ATOM      2  N   UNL     1       2.110   5.746  20.649  0.00  0.00    +0.000 N 
ATOM      3  C   UNL     1       2.437   6.696  19.745  0.00  0.00    +0.000 C 
ATOM      4  S   UNL     1       1.751   8.207  19.799  0.00  0.00    +0.000 S 
ATOM      5  N   UNL     1       3.351   6.363  18.796  0.00  0.00    +0.000 N 
ATOM      6  C   UNL     1       3.983   5.152  18.721  0.00  0.00    +0.000 C 
ATOM      7  C   UNL     1       3.674   4.172  19.595  0.00  0.00    +0.000 C 
ATOM      8  H   UNL     1       1.455   5.991  21.377  0.00  0.00    +0.000 HD
ATOM      9  H   UNL     1       3.597   7.086  18.125  0.00  0.00    +0.000 HD
ENDROOT
BRANCH   6  10
ATOM     10  C   UNL     1       4.973   4.962  17.658  0.00  0.00    +0.000 A 
ATOM     11  C   UNL     1       4.565   4.631  16.359  0.00  0.00    +0.000 A 
ATOM     12  C   UNL     1       5.511   4.285  15.395  0.00  0.00    +0.000 A 
ATOM     13  C   UNL     1       6.867   4.277  15.720  0.00  0.00    +0.000 A 
ATOM     14  C   UNL     1       7.282   4.641  17.001  0.00  0.00    +0.000 A 
ATOM     15  C   UNL     1       6.340   4.986  17.969  0.00  0.00    +0.000 A 
ENDBRANCH   6  10
BRANCH   1  17
ATOM     16  C   UNL     1       1.326   2.626  21.620  0.00  0.00    +0.000 C 
ATOM     17  O   UNL     1       1.540   3.482  20.501  0.00  0.00    +0.000 OA
ENDBRANCH   1  17
BRANCH   7  18
ATOM     18  C   UNL     1       4.287   2.787  19.592  0.00  0.00    +0.000 C 
BRANCH  18  19
ATOM     19  C   UNL     1       3.652   1.844  18.583  0.00  0.00    +0.000 C 
ATOM     20  O   UNL     1       2.656   2.075  17.915  0.00  0.00    +0.000 OA
BRANCH  19  21
ATOM     21  O   UNL     1       4.311   0.661  18.500  0.00  0.00    +0.000 OA
ATOM     22  H   UNL     1       5.233   0.695  18.819  0.00  0.00    +0.000 HD
ENDBRANCH  19  21
ENDBRANCH  18  19
ENDBRANCH   7  18
TORSDOF 5
ENDMDL
MODEL 5
REMARK VINA RESULT:      -6.7      2.821      4.629
REMARK  Name = 
REMARK  6 active torsions:
REMARK  status: ('A' for Active; 'I' for Inactive)
REMARK    1  A    between atoms: C_1  and  O_2
REMARK    2  A    between atoms: O_2  and  C_3
REMARK    3  A    between atoms: C_8  and  C_9
REMARK    4  A    between atoms: C_15  and  C_16
REMARK    5  A    between atoms: C_16  and  C_17
REMARK    6  A    between atoms: C_17  and  O_19
REMARK                            x       y       z     vdW  Elec       q    Type
REMARK                         _______ _______ _______ _____ _____    ______ ____
ROOT
ATOM      1  C   UNL     1       4.458   6.696  17.069  0.00  0.00    +0.000 C 
ATOM      2  N   UNL     1       3.722   7.925  17.138  0.00  0.00    +0.000 N 
ATOM      3  C   UNL     1       2.641   8.129  17.926  0.00  0.00    +0.000 C 
ATOM      4  S   UNL     1       1.885   9.606  17.981  0.00  0.00    +0.000 S 
ATOM      5  N   UNL     1       2.202   7.076  18.663  0.00  0.00    +0.000 N 
ATOM      6  C   UNL     1       2.754   5.825  18.633  0.00  0.00    +0.000 C 
ATOM      7  C   UNL     1       3.842   5.583  17.872  0.00  0.00    +0.000 C 
ATOM      8  H   UNL     1       4.039   8.690  16.562  0.00  0.00    +0.000 HD
ATOM      9  H   UNL     1       1.385   7.237  19.247  0.00  0.00    +0.000 HD
ENDROOT
BRANCH   6  10
ATOM     10  C   UNL     1       2.139   4.785  19.462  0.00  0.00    +0.000 A 
ATOM     11  C   UNL     1       2.447   4.691  20.826  0.00  0.00    +0.000 A 
ATOM     12  C   UNL     1       1.995   3.603  21.572  0.00  0.00    +0.000 A 
ATOM     13  C   UNL     1       1.227   2.610  20.963  0.00  0.00    +0.000 A 
ATOM     14  C   UNL     1       0.886   2.718  19.614  0.00  0.00    +0.000 A 
ATOM     15  C   UNL     1       1.337   3.803  18.864  0.00  0.00    +0.000 A 
ENDBRANCH   6  10
BRANCH   1  17
ATOM     16  C   UNL     1       6.797   6.489  16.534  0.00  0.00    +0.000 C 
ATOM     17  O   UNL     1       5.812   6.927  17.467  0.00  0.00    +0.000 OA
ENDBRANCH   1  17
BRANCH   7  18
ATOM     18  C   UNL     1       4.553   4.249  17.780  0.00  0.00    +0.000 C 
BRANCH  18  19
ATOM     19  C   UNL     1       5.385   3.917  19.008  0.00  0.00    +0.000 C 
ATOM     20  O   UNL     1       6.253   4.625  19.496  0.00  0.00    +0.000 OA
BRANCH  19  21
ATOM     21  O   UNL     1       5.076   2.703  19.525  0.00  0.00    +0.000 OA
ATOM     22  H   UNL     1       5.777   2.317  20.084  0.00  0.00    +0.000 HD
ENDBRANCH  19  21
ENDBRANCH  18  19
ENDBRANCH   7  18
TORSDOF 5
ENDMDL
MODEL 6
REMARK VINA RESULT:      -6.7      1.040      1.206
REMARK  Name = 
REMARK  6 active torsions:
REMARK  status: ('A' for Active; 'I' for Inactive)
REMARK    1  A    between atoms: C_1  and  O_2
REMARK    2  A    between atoms: O_2  and  C_3
REMARK    3  A    between atoms: C_8  and  C_9
REMARK    4  A    between atoms: C_15  and  C_16
REMARK    5  A    between atoms: C_16  and  C_17
REMARK    6  A    between atoms: C_17  and  O_19
REMARK                            x       y       z     vdW  Elec       q    Type
REMARK                         _______ _______ _______ _____ _____    ______ ____
ROOT
ATOM      1  C   UNL     1       4.135   3.240  19.267  0.00  0.00    +0.000 C 
ATOM      2  N   UNL     1       5.465   3.593  18.865  0.00  0.00    +0.000 N 
ATOM      3  C   UNL     1       5.878   4.854  18.602  0.00  0.00    +0.000 C 
ATOM      4  S   UNL     1       7.455   5.175  18.196  0.00  0.00    +0.000 S 
ATOM      5  N   UNL     1       4.949   5.842  18.682  0.00  0.00    +0.000 N 
ATOM      6  C   UNL     1       3.626   5.640  18.971  0.00  0.00    +0.000 C 
ATOM      7  C   UNL     1       3.177   4.400  19.255  0.00  0.00    +0.000 C 
ATOM      8  H   UNL     1       6.139   2.847  18.779  0.00  0.00    +0.000 HD
ATOM      9  H   UNL     1       5.266   6.785  18.476  0.00  0.00    +0.000 HD
ENDROOT
BRANCH   6  10
ATOM     10  C   UNL     1       2.743   6.808  18.982  0.00  0.00    +0.000 A 
ATOM     11  C   UNL     1       2.572   7.579  17.824  0.00  0.00    +0.000 A 
ATOM     12  C   UNL     1       1.869   8.783  17.882  0.00  0.00    +0.000 A 
ATOM     13  C   UNL     1       1.325   9.215  19.092  0.00  0.00    +0.000 A 
ATOM     14  C   UNL     1       1.460   8.433  20.239  0.00  0.00    +0.000 A 
ATOM     15  C   UNL     1       2.164   7.231  20.187  0.00  0.00    +0.000 A 
ENDBRANCH   6  10
BRANCH   1  17
ATOM     16  C   UNL     1       4.929   1.414  20.622  0.00  0.00    +0.000 C 
ATOM     17  O   UNL     1       4.173   2.621  20.556  0.00  0.00    +0.000 OA
ENDBRANCH   1  17
BRANCH   7  18
ATOM     18  C   UNL     1       1.746   4.061  19.614  0.00  0.00    +0.000 C 
BRANCH  18  19
ATOM     19  C   UNL     1       1.031   3.240  18.554  0.00  0.00    +0.000 C 
ATOM     20  O   UNL     1       0.384   2.222  18.753  0.00  0.00    +0.000 OA
BRANCH  19  21
ATOM     21  O   UNL     1       1.197   3.751  17.309  0.00  0.00    +0.000 OA
ATOM     22  H   UNL     1       1.996   4.303  17.208  0.00  0.00    +0.000 HD
ENDBRANCH  19  21
ENDBRANCH  18  19
ENDBRANCH   7  18
TORSDOF 5
ENDMDL
MODEL 7
REMARK VINA RESULT:      -6.7      2.628      4.397
REMARK  Name = 
REMARK  6 active torsions:
REMARK  status: ('A' for Active; 'I' for Inactive)
REMARK    1  A    between atoms: C_1  and  O_2
REMARK    2  A    between atoms: O_2  and  C_3
REMARK    3  A    between atoms: C_8  and  C_9
REMARK    4  A    between atoms: C_15  and  C_16
REMARK    5  A    between atoms: C_16  and  C_17
REMARK    6  A    between atoms: C_17  and  O_19
REMARK                            x       y       z     vdW  Elec       q    Type
REMARK                         _______ _______ _______ _____ _____    ______ ____
ROOT
ATOM      1  C   UNL     1       2.044   3.917  19.560  0.00  0.00    +0.000 C 
ATOM      2  N   UNL     1       1.455   5.019  20.264  0.00  0.00    +0.000 N 
ATOM      3  C   UNL     1       2.002   6.253  20.352  0.00  0.00    +0.000 C 
ATOM      4  S   UNL     1       1.220   7.485  21.143  0.00  0.00    +0.000 S 
ATOM      5  N   UNL     1       3.215   6.438  19.769  0.00  0.00    +0.000 N 
ATOM      6  C   UNL     1       3.929   5.457  19.138  0.00  0.00    +0.000 C 
ATOM      7  C   UNL     1       3.413   4.216  19.016  0.00  0.00    +0.000 C 
ATOM      8  H   UNL     1       0.569   4.861  20.719  0.00  0.00    +0.000 HD
ATOM      9  H   UNL     1       3.622   7.367  19.846  0.00  0.00    +0.000 HD
ENDROOT
BRANCH   6  10
ATOM     10  C   UNL     1       5.243   5.809  18.592  0.00  0.00    +0.000 A 
ATOM     11  C   UNL     1       6.413   5.475  19.288  0.00  0.00    +0.000 A 
ATOM     12  C   UNL     1       7.647   5.959  18.854  0.00  0.00    +0.000 A 
ATOM     13  C   UNL     1       7.720   6.769  17.721  0.00  0.00    +0.000 A 
ATOM     14  C   UNL     1       6.562   7.075  17.004  0.00  0.00    +0.000 A 
ATOM     15  C   UNL     1       5.326   6.595  17.434  0.00  0.00    +0.000 A 
ENDBRANCH   6  10
BRANCH   1  17
ATOM     16  C   UNL     1       0.575   2.204  18.719  0.00  0.00    +0.000 C 
ATOM     17  O   UNL     1       1.161   3.488  18.520  0.00  0.00    +0.000 OA
ENDBRANCH   1  17
BRANCH   7  18
ATOM     18  C   UNL     1       4.099   3.061  18.316  0.00  0.00    +0.000 C 
BRANCH  18  19
ATOM     19  C   UNL     1       4.341   1.862  19.218  0.00  0.00    +0.000 C 
ATOM     20  O   UNL     1       4.833   1.895  20.336  0.00  0.00    +0.000 OA
BRANCH  19  21
ATOM     21  O   UNL     1       3.961   0.697  18.638  0.00  0.00    +0.000 OA
ATOM     22  H   UNL     1       4.683   0.050  18.531  0.00  0.00    +0.000 HD
ENDBRANCH  19  21
ENDBRANCH  18  19
ENDBRANCH   7  18
TORSDOF 5
ENDMDL
MODEL 8
REMARK VINA RESULT:      -6.6      3.326      4.903
REMARK  Name = 
REMARK  6 active torsions:
REMARK  status: ('A' for Active; 'I' for Inactive)
REMARK    1  A    between atoms: C_1  and  O_2
REMARK    2  A    between atoms: O_2  and  C_3
REMARK    3  A    between atoms: C_8  and  C_9
REMARK    4  A    between atoms: C_15  and  C_16
REMARK    5  A    between atoms: C_16  and  C_17
REMARK    6  A    between atoms: C_17  and  O_19
REMARK                            x       y       z     vdW  Elec       q    Type
REMARK                         _______ _______ _______ _____ _____    ______ ____
ROOT
ATOM      1  C   UNL     1       6.856   5.844  16.572  0.00  0.00    +0.000 C 
ATOM      2  N   UNL     1       7.109   5.345  15.251  0.00  0.00    +0.000 N 
ATOM      3  C   UNL     1       6.292   4.501  14.580  0.00  0.00    +0.000 C 
ATOM      4  S   UNL     1       6.640   4.019  13.031  0.00  0.00    +0.000 S 
ATOM      5  N   UNL     1       5.181   4.065  15.229  0.00  0.00    +0.000 N 
ATOM      6  C   UNL     1       4.858   4.391  16.518  0.00  0.00    +0.000 C 
ATOM      7  C   UNL     1       5.638   5.242  17.217  0.00  0.00    +0.000 C 
ATOM      8  H   UNL     1       7.953   5.652  14.792  0.00  0.00    +0.000 HD
ATOM      9  H   UNL     1       4.577   3.425  14.720  0.00  0.00    +0.000 HD
ENDROOT
BRANCH   6  10
ATOM     10  C   UNL     1       3.642   3.806  17.087  0.00  0.00    +0.000 A 
ATOM     11  C   UNL     1       2.526   4.611  17.355  0.00  0.00    +0.000 A 
ATOM     12  C   UNL     1       1.436   4.087  18.051  0.00  0.00    +0.000 A 
ATOM     13  C   UNL     1       1.451   2.758  18.473  0.00  0.00    +0.000 A 
ATOM     14  C   UNL     1       2.544   1.942  18.177  0.00  0.00    +0.000 A 
ATOM     15  C   UNL     1       3.636   2.461  17.483  0.00  0.00    +0.000 A 
ENDBRANCH   6  10
BRANCH   1  17
ATOM     16  C   UNL     1       7.641   7.955  17.425  0.00  0.00    +0.000 C 
ATOM     17  O   UNL     1       6.763   7.271  16.534  0.00  0.00    +0.000 OA
ENDBRANCH   1  17
BRANCH   7  18
ATOM     18  C   UNL     1       5.366   5.694  18.636  0.00  0.00    +0.000 C 
BRANCH  18  19
ATOM     19  C   UNL     1       6.147   4.917  19.682  0.00  0.00    +0.000 C 
ATOM     20  O   UNL     1       7.217   5.248  20.170  0.00  0.00    +0.000 OA
BRANCH  19  21
ATOM     21  O   UNL     1       5.530   3.760  20.029  0.00  0.00    +0.000 OA
ATOM     22  H   UNL     1       5.106   3.295  19.283  0.00  0.00    +0.000 HD
ENDBRANCH  19  21
ENDBRANCH  18  19
ENDBRANCH   7  18
TORSDOF 5
ENDMDL
MODEL 9
REMARK VINA RESULT:      -6.5      2.879      4.592
REMARK  Name = 
REMARK  6 active torsions:
REMARK  status: ('A' for Active; 'I' for Inactive)
REMARK    1  A    between atoms: C_1  and  O_2
REMARK    2  A    between atoms: O_2  and  C_3
REMARK    3  A    between atoms: C_8  and  C_9
REMARK    4  A    between atoms: C_15  and  C_16
REMARK    5  A    between atoms: C_16  and  C_17
REMARK    6  A    between atoms: C_17  and  O_19
REMARK                            x       y       z     vdW  Elec       q    Type
REMARK                         _______ _______ _______ _____ _____    ______ ____
ROOT
ATOM      1  C   UNL     1       4.535   6.800  17.036  0.00  0.00    +0.000 C 
ATOM      2  N   UNL     1       3.720   7.976  17.132  0.00  0.00    +0.000 N 
ATOM      3  C   UNL     1       2.622   8.087  17.913  0.00  0.00    +0.000 C 
ATOM      4  S   UNL     1       1.771   9.510  18.002  0.00  0.00    +0.000 S 
ATOM      5  N   UNL     1       2.245   6.987  18.615  0.00  0.00    +0.000 N 
ATOM      6  C   UNL     1       2.877   5.775  18.555  0.00  0.00    +0.000 C 
ATOM      7  C   UNL     1       3.986   5.627  17.800  0.00  0.00    +0.000 C 
ATOM      8  H   UNL     1       3.992   8.777  16.581  0.00  0.00    +0.000 HD
ATOM      9  H   UNL     1       1.414   7.077  19.194  0.00  0.00    +0.000 HD
ENDROOT
BRANCH   6  10
ATOM     10  C   UNL     1       2.323   4.674  19.348  0.00  0.00    +0.000 A 
ATOM     11  C   UNL     1       1.438   3.757  18.765  0.00  0.00    +0.000 A 
ATOM     12  C   UNL     1       0.783   2.816  19.560  0.00  0.00    +0.000 A 
ATOM     13  C   UNL     1       1.015   2.781  20.935  0.00  0.00    +0.000 A 
ATOM     14  C   UNL     1       1.923   3.668  21.514  0.00  0.00    +0.000 A 
ATOM     15  C   UNL     1       2.579   4.611  20.724  0.00  0.00    +0.000 A 
ENDBRANCH   6  10
BRANCH   1  17
ATOM     16  C   UNL     1       6.894   6.654  16.576  0.00  0.00    +0.000 C 
ATOM     17  O   UNL     1       5.868   7.106  17.455  0.00  0.00    +0.000 OA
ENDBRANCH   1  17
BRANCH   7  18
ATOM     18  C   UNL     1       4.782   4.344  17.678  0.00  0.00    +0.000 C 
BRANCH  18  19
ATOM     19  C   UNL     1       5.567   3.995  18.931  0.00  0.00    +0.000 C 
ATOM     20  O   UNL     1       6.398   4.706  19.477  0.00  0.00    +0.000 OA
BRANCH  19  21
ATOM     21  O   UNL     1       5.263   2.760  19.401  0.00  0.00    +0.000 OA
ATOM     22  H   UNL     1       5.935   2.081  19.203  0.00  0.00    +0.000 HD
ENDBRANCH  19  21
ENDBRANCH  18  19
ENDBRANCH   7  18
TORSDOF 5
ENDMDL
