MODEL 1
REMARK VINA RESULT:      -9.1      0.000      0.000
REMARK  Name = 
REMARK  12 active torsions:
REMARK  status: ('A' for Active; 'I' for Inactive)
REMARK    1  A    between atoms: C_1  and  C_2
REMARK    2  A    between atoms: C_2  and  C_3
REMARK    3  A    between atoms: C_6  and  C_7
REMARK    4  A    between atoms: C_9  and  C_10
REMARK    5  A    between atoms: N_13  and  C_14
REMARK    6  A    between atoms: C_14  and  C_15
REMARK    7  A    between atoms: C_18  and  C_19
REMARK    8  A    between atoms: C_19  and  C_20
REMARK    9  A    between atoms: C_19  and  C_26
REMARK   10  A    between atoms: C_26  and  C_27
REMARK   11  A    between atoms: C_26  and  C_30
REMARK   12  A    between atoms: C_27  and  O_29
REMARK                            x       y       z     vdW  Elec       q    Type
REMARK                         _______ _______ _______ _____ _____    ______ ____
ROOT
ATOM      1  C   UNL     1       1.298   8.953  20.018  0.00  0.00    +0.000 A 
ATOM      2  C   UNL     1       1.684   9.092  18.673  0.00  0.00    +0.000 A 
ATOM      3  C   UNL     1       2.329   8.040  17.996  0.00  0.00    +0.000 A 
ATOM      4  C   UNL     1       2.637   6.835  18.654  0.00  0.00    +0.000 A 
ATOM      5  C   UNL     1       2.259   6.716  19.998  0.00  0.00    +0.000 A 
ATOM      6  C   UNL     1       1.548   7.731  20.645  0.00  0.00    +0.000 A 
ENDROOT
BRANCH   1   7
ATOM      7  C   UNL     1       0.782  10.115  20.841  0.00  0.00    +0.000 C 
BRANCH   7  18
ATOM      8  C   UNL     1      -0.726  11.470  19.243  0.00  0.00    +0.000 A 
ATOM      9  N   UNL     1      -0.773  12.715  18.813  0.00  0.00    +0.000 NA
ATOM     10  C   UNL     1       0.266  13.355  19.408  0.00  0.00    +0.000 A 
ATOM     11  C   UNL     1       0.653  14.696  19.290  0.00  0.00    +0.000 A 
ATOM     12  C   UNL     1      -0.058  15.660  18.399  0.00  0.00    +0.000 C 
ATOM     13  C   UNL     1       1.748  15.076  20.079  0.00  0.00    +0.000 A 
ATOM     14  C   UNL     1       2.388  14.141  20.898  0.00  0.00    +0.000 A 
ATOM     15  C   UNL     1       3.544  14.602  21.757  0.00  0.00    +0.000 C 
ATOM     16  N   UNL     1       2.043  12.833  20.999  0.00  0.00    +0.000 NA
ATOM     17  C   UNL     1       0.985  12.510  20.223  0.00  0.00    +0.000 A 
ATOM     18  N   UNL     1       0.376  11.280  20.072  0.00  0.00    +0.000 N 
BRANCH   8  20
ATOM     19  C   UNL     1      -1.628  10.108  17.347  0.00  0.00    +0.000 C 
ATOM     20  C   UNL     1      -1.768  10.497  18.812  0.00  0.00    +0.000 C 
ENDBRANCH   8  20
ENDBRANCH   7  18
ENDBRANCH   1   7
BRANCH   4  21
ATOM     21  C   UNL     1       3.423   5.726  17.935  0.00  0.00    +0.000 C 
BRANCH  21  22
ATOM     22  C   UNL     1       4.933   5.956  18.119  0.00  0.00    +0.000 A 
ATOM     23  C   UNL     1       5.645   5.414  19.203  0.00  0.00    +0.000 A 
ATOM     24  C   UNL     1       7.020   5.619  19.334  0.00  0.00    +0.000 A 
ATOM     25  C   UNL     1       7.712   6.377  18.393  0.00  0.00    +0.000 A 
ATOM     26  C   UNL     1       7.024   6.933  17.318  0.00  0.00    +0.000 A 
ATOM     27  C   UNL     1       5.646   6.730  17.183  0.00  0.00    +0.000 A 
ENDBRANCH  21  22
BRANCH  21  28
ATOM     28  C   UNL     1       2.962   4.284  18.288  0.00  0.00    +0.000 C 
BRANCH  28  29
ATOM     29  C   UNL     1       3.612   3.203  17.442  0.00  0.00    +0.000 C 
ATOM     30  F   UNL     1       4.028   3.674  16.240  0.00  0.00    +0.000 F 
ATOM     31  F   UNL     1       4.703   2.696  18.066  0.00  0.00    +0.000 F 
ATOM     32  F   UNL     1       2.797   2.169  17.162  0.00  0.00    +0.000 F 
ENDBRANCH  28  29
BRANCH  28  33
ATOM     33  C   UNL     1       1.487   4.006  18.243  0.00  0.00    +0.000 C 
ATOM     34  O   UNL     1       0.905   3.493  19.190  0.00  0.00    +0.000 OA
BRANCH  33  35
ATOM     35  O   UNL     1       0.826   4.298  17.105  0.00  0.00    +0.000 OA
ATOM     36  H   UNL     1      -0.083   3.985  16.973  0.00  0.00    +0.000 HD
ENDBRANCH  33  35
ENDBRANCH  28  33
ENDBRANCH  21  28
ENDBRANCH   4  21
TORSDOF 9
ENDMDL
MODEL 2
REMARK VINA RESULT:      -9.1      0.310      1.450
REMARK  Name = 
REMARK  12 active torsions:
REMARK  status: ('A' for Active; 'I' for Inactive)
REMARK    1  A    between atoms: C_1  and  C_2
REMARK    2  A    between atoms: C_2  and  C_3
REMARK    3  A    between atoms: C_6  and  C_7
REMARK    4  A    between atoms: C_9  and  C_10
REMARK    5  A    between atoms: N_13  and  C_14
REMARK    6  A    between atoms: C_14  and  C_15
REMARK    7  A    between atoms: C_18  and  C_19
REMARK    8  A    between atoms: C_19  and  C_20
REMARK    9  A    between atoms: C_19  and  C_26
REMARK   10  A    between atoms: C_26  and  C_27
REMARK   11  A    between atoms: C_26  and  C_30
REMARK   12  A    between atoms: C_27  and  O_29
REMARK                            x       y       z     vdW  Elec       q    Type
REMARK                         _______ _______ _______ _____ _____    ______ ____
ROOT
ATOM      1  C   UNL     1       1.165   8.974  19.953  0.00  0.00    +0.000 A 
ATOM      2  C   UNL     1       1.638   7.844  20.643  0.00  0.00    +0.000 A 
ATOM      3  C   UNL     1       2.403   6.865  19.982  0.00  0.00    +0.000 A 
ATOM      4  C   UNL     1       2.686   6.970  18.608  0.00  0.00    +0.000 A 
ATOM      5  C   UNL     1       2.196   8.095  17.930  0.00  0.00    +0.000 A 
ATOM      6  C   UNL     1       1.505   9.105  18.606  0.00  0.00    +0.000 A 
ENDROOT
BRANCH   1   7
ATOM      7  C   UNL     1       0.181   9.949  20.565  0.00  0.00    +0.000 C 
BRANCH   7  18
ATOM      8  C   UNL     1      -1.075  11.475  18.905  0.00  0.00    +0.000 A 
ATOM      9  N   UNL     1      -0.959  12.720  18.489  0.00  0.00    +0.000 NA
ATOM     10  C   UNL     1       0.109  13.237  19.150  0.00  0.00    +0.000 A 
ATOM     11  C   UNL     1       0.649  14.527  19.071  0.00  0.00    +0.000 A 
ATOM     12  C   UNL     1       0.100  15.570  18.154  0.00  0.00    +0.000 C 
ATOM     13  C   UNL     1       1.732  14.777  19.924  0.00  0.00    +0.000 A 
ATOM     14  C   UNL     1       2.217  13.771  20.765  0.00  0.00    +0.000 A 
ATOM     15  C   UNL     1       3.367  14.094  21.693  0.00  0.00    +0.000 C 
ATOM     16  N   UNL     1       1.725  12.509  20.830  0.00  0.00    +0.000 NA
ATOM     17  C   UNL     1       0.683  12.311  19.992  0.00  0.00    +0.000 A 
ATOM     18  N   UNL     1      -0.049  11.158  19.791  0.00  0.00    +0.000 N 
BRANCH   8  20
ATOM     19  C   UNL     1      -1.846   9.924  17.098  0.00  0.00    +0.000 C 
ATOM     20  C   UNL     1      -2.192  10.626  18.403  0.00  0.00    +0.000 C 
ENDBRANCH   8  20
ENDBRANCH   7  18
ENDBRANCH   1   7
BRANCH   4  21
ATOM     21  C   UNL     1       3.444   5.852  17.874  0.00  0.00    +0.000 C 
BRANCH  21  22
ATOM     22  C   UNL     1       4.960   6.054  18.044  0.00  0.00    +0.000 A 
ATOM     23  C   UNL     1       5.713   6.843  17.157  0.00  0.00    +0.000 A 
ATOM     24  C   UNL     1       7.084   7.028  17.346  0.00  0.00    +0.000 A 
ATOM     25  C   UNL     1       7.735   6.422  18.419  0.00  0.00    +0.000 A 
ATOM     26  C   UNL     1       7.010   5.627  19.302  0.00  0.00    +0.000 A 
ATOM     27  C   UNL     1       5.636   5.440  19.116  0.00  0.00    +0.000 A 
ENDBRANCH  21  22
BRANCH  21  28
ATOM     28  C   UNL     1       2.961   4.416  18.220  0.00  0.00    +0.000 C 
BRANCH  28  29
ATOM     29  C   UNL     1       3.603   3.328  17.379  0.00  0.00    +0.000 C 
ATOM     30  F   UNL     1       2.754   2.298  17.138  0.00  0.00    +0.000 F 
ATOM     31  F   UNL     1       3.985   3.814  16.173  0.00  0.00    +0.000 F 
ATOM     32  F   UNL     1       4.691   2.773  17.947  0.00  0.00    +0.000 F 
ENDBRANCH  28  29
BRANCH  28  33
ATOM     33  C   UNL     1       1.482   4.159  18.161  0.00  0.00    +0.000 C 
ATOM     34  O   UNL     1       0.833   4.397  17.152  0.00  0.00    +0.000 OA
BRANCH  33  35
ATOM     35  O   UNL     1       0.880   3.697  19.275  0.00  0.00    +0.000 OA
ATOM     36  H   UNL     1       1.211   3.951  20.152  0.00  0.00    +0.000 HD
ENDBRANCH  33  35
ENDBRANCH  28  33
ENDBRANCH  21  28
ENDBRANCH   4  21
TORSDOF 9
ENDMDL
MODEL 3
REMARK VINA RESULT:      -9.0      2.552      4.680
REMARK  Name = 
REMARK  12 active torsions:
REMARK  status: ('A' for Active; 'I' for Inactive)
REMARK    1  A    between atoms: C_1  and  C_2
REMARK    2  A    between atoms: C_2  and  C_3
REMARK    3  A    between atoms: C_6  and  C_7
REMARK    4  A    between atoms: C_9  and  C_10
REMARK    5  A    between atoms: N_13  and  C_14
REMARK    6  A    between atoms: C_14  and  C_15
REMARK    7  A    between atoms: C_18  and  C_19
REMARK    8  A    between atoms: C_19  and  C_20
REMARK    9  A    between atoms: C_19  and  C_26
REMARK   10  A    between atoms: C_26  and  C_27
REMARK   11  A    between atoms: C_26  and  C_30
REMARK   12  A    between atoms: C_27  and  O_29
REMARK                            x       y       z     vdW  Elec       q    Type
REMARK                         _______ _______ _______ _____ _____    ______ ____
ROOT
ATOM      1  C   UNL     1       1.191   9.884  18.734  0.00  0.00    +0.000 A 
ATOM      2  C   UNL     1       1.781   9.358  17.572  0.00  0.00    +0.000 A 
ATOM      3  C   UNL     1       2.432   8.110  17.596  0.00  0.00    +0.000 A 
ATOM      4  C   UNL     1       2.541   7.372  18.789  0.00  0.00    +0.000 A 
ATOM      5  C   UNL     1       1.961   7.916  19.943  0.00  0.00    +0.000 A 
ATOM      6  C   UNL     1       1.246   9.117  19.898  0.00  0.00    +0.000 A 
ENDROOT
BRANCH   1   7
ATOM      7  C   UNL     1       0.654  11.299  18.806  0.00  0.00    +0.000 C 
BRANCH   7  18
ATOM      8  C   UNL     1      -1.334  11.867  20.352  0.00  0.00    +0.000 A 
ATOM      9  N   UNL     1      -2.646  11.888  20.238  0.00  0.00    +0.000 NA
ATOM     10  C   UNL     1      -2.917  11.498  18.966  0.00  0.00    +0.000 A 
ATOM     11  C   UNL     1      -4.161  11.360  18.337  0.00  0.00    +0.000 A 
ATOM     12  C   UNL     1      -5.450  11.609  19.049  0.00  0.00    +0.000 C 
ATOM     13  C   UNL     1      -4.113  10.986  16.987  0.00  0.00    +0.000 A 
ATOM     14  C   UNL     1      -2.885  10.759  16.360  0.00  0.00    +0.000 A 
ATOM     15  C   UNL     1      -2.877  10.389  14.894  0.00  0.00    +0.000 C 
ATOM     16  N   UNL     1      -1.674  10.858  16.963  0.00  0.00    +0.000 NA
ATOM     17  C   UNL     1      -1.766  11.220  18.262  0.00  0.00    +0.000 A 
ATOM     18  N   UNL     1      -0.748  11.406  19.176  0.00  0.00    +0.000 N 
BRANCH   8  20
ATOM     19  C   UNL     1      -0.875  11.266  22.738  0.00  0.00    +0.000 C 
ATOM     20  C   UNL     1      -0.693  12.291  21.628  0.00  0.00    +0.000 C 
ENDBRANCH   8  20
ENDBRANCH   7  18
ENDBRANCH   1   7
BRANCH   4  21
ATOM     21  C   UNL     1       3.332   6.054  18.828  0.00  0.00    +0.000 C 
BRANCH  21  22
ATOM     22  C   UNL     1       2.474   4.952  19.474  0.00  0.00    +0.000 A 
ATOM     23  C   UNL     1       1.434   4.311  18.779  0.00  0.00    +0.000 A 
ATOM     24  C   UNL     1       0.685   3.298  19.381  0.00  0.00    +0.000 A 
ATOM     25  C   UNL     1       0.950   2.911  20.692  0.00  0.00    +0.000 A 
ATOM     26  C   UNL     1       1.967   3.541  21.403  0.00  0.00    +0.000 A 
ATOM     27  C   UNL     1       2.720   4.556  20.803  0.00  0.00    +0.000 A 
ENDBRANCH  21  22
BRANCH  21  28
ATOM     28  C   UNL     1       3.957   5.642  17.466  0.00  0.00    +0.000 C 
BRANCH  28  29
ATOM     29  C   UNL     1       4.553   4.246  17.456  0.00  0.00    +0.000 C 
ATOM     30  F   UNL     1       5.014   3.877  18.677  0.00  0.00    +0.000 F 
ATOM     31  F   UNL     1       3.623   3.329  17.093  0.00  0.00    +0.000 F 
ATOM     32  F   UNL     1       5.597   4.106  16.618  0.00  0.00    +0.000 F 
ENDBRANCH  28  29
BRANCH  28  33
ATOM     33  C   UNL     1       5.017   6.543  16.899  0.00  0.00    +0.000 C 
ATOM     34  O   UNL     1       5.884   7.034  17.610  0.00  0.00    +0.000 OA
BRANCH  33  35
ATOM     35  O   UNL     1       4.959   6.832  15.584  0.00  0.00    +0.000 OA
ATOM     36  H   UNL     1       4.597   6.186  14.957  0.00  0.00    +0.000 HD
ENDBRANCH  33  35
ENDBRANCH  28  33
ENDBRANCH  21  28
ENDBRANCH   4  21
TORSDOF 9
ENDMDL
MODEL 4
REMARK VINA RESULT:      -8.7      2.111      3.623
REMARK  Name = 
REMARK  12 active torsions:
REMARK  status: ('A' for Active; 'I' for Inactive)
REMARK    1  A    between atoms: C_1  and  C_2
REMARK    2  A    between atoms: C_2  and  C_3
REMARK    3  A    between atoms: C_6  and  C_7
REMARK    4  A    between atoms: C_9  and  C_10
REMARK    5  A    between atoms: N_13  and  C_14
REMARK    6  A    between atoms: C_14  and  C_15
REMARK    7  A    between atoms: C_18  and  C_19
REMARK    8  A    between atoms: C_19  and  C_20
REMARK    9  A    between atoms: C_19  and  C_26
REMARK   10  A    between atoms: C_26  and  C_27
REMARK   11  A    between atoms: C_26  and  C_30
REMARK   12  A    between atoms: C_27  and  O_29
REMARK                            x       y       z     vdW  Elec       q    Type
REMARK                         _______ _______ _______ _____ _____    ______ ____
ROOT
ATOM      1  C   UNL     1       1.189   9.628  18.955  0.00  0.00    +0.000 A 
ATOM      2  C   UNL     1       1.316   8.789  20.076  0.00  0.00    +0.000 A 
ATOM      3  C   UNL     1       2.093   7.617  20.014  0.00  0.00    +0.000 A 
ATOM      4  C   UNL     1       2.734   7.234  18.822  0.00  0.00    +0.000 A 
ATOM      5  C   UNL     1       2.587   8.072  17.709  0.00  0.00    +0.000 A 
ATOM      6  C   UNL     1       1.881   9.276  17.795  0.00  0.00    +0.000 A 
ENDROOT
BRANCH   1   7
ATOM      7  C   UNL     1       0.215  10.786  18.911  0.00  0.00    +0.000 C 
BRANCH   7  18
ATOM      8  C   UNL     1      -0.080  11.964  21.190  0.00  0.00    +0.000 A 
ATOM      9  N   UNL     1       0.467  12.995  21.801  0.00  0.00    +0.000 NA
ATOM     10  C   UNL     1       1.393  13.491  20.940  0.00  0.00    +0.000 A 
ATOM     11  C   UNL     1       2.254  14.583  21.112  0.00  0.00    +0.000 A 
ATOM     12  C   UNL     1       2.239  15.428  22.342  0.00  0.00    +0.000 C 
ATOM     13  C   UNL     1       3.142  14.818  20.053  0.00  0.00    +0.000 A 
ATOM     14  C   UNL     1       3.121  14.004  18.917  0.00  0.00    +0.000 A 
ATOM     15  C   UNL     1       4.119  14.273  17.813  0.00  0.00    +0.000 C 
ATOM     16  N   UNL     1       2.273  12.963  18.724  0.00  0.00    +0.000 NA
ATOM     17  C   UNL     1       1.434  12.771  19.767  0.00  0.00    +0.000 A 
ATOM     18  N   UNL     1       0.444  11.820  19.908  0.00  0.00    +0.000 N 
BRANCH   8  20
ATOM     19  C   UNL     1      -0.526  10.246  22.956  0.00  0.00    +0.000 C 
ATOM     20  C   UNL     1      -1.118  11.154  21.887  0.00  0.00    +0.000 C 
ENDBRANCH   8  20
ENDBRANCH   7  18
ENDBRANCH   1   7
BRANCH   4  21
ATOM     21  C   UNL     1       3.506   5.907  18.737  0.00  0.00    +0.000 C 
BRANCH  21  22
ATOM     22  C   UNL     1       2.654   4.771  19.329  0.00  0.00    +0.000 A 
ATOM     23  C   UNL     1       1.527   4.257  18.663  0.00  0.00    +0.000 A 
ATOM     24  C   UNL     1       0.783   3.211  19.213  0.00  0.00    +0.000 A 
ATOM     25  C   UNL     1       1.141   2.661  20.441  0.00  0.00    +0.000 A 
ATOM     26  C   UNL     1       2.246   3.163  21.123  0.00  0.00    +0.000 A 
ATOM     27  C   UNL     1       2.994   4.211  20.575  0.00  0.00    +0.000 A 
ENDBRANCH  21  22
BRANCH  21  28
ATOM     28  C   UNL     1       4.079   5.589  17.327  0.00  0.00    +0.000 C 
BRANCH  28  29
ATOM     29  C   UNL     1       4.683   4.202  17.203  0.00  0.00    +0.000 C 
ATOM     30  F   UNL     1       5.567   4.117  16.177  0.00  0.00    +0.000 F 
ATOM     31  F   UNL     1       5.357   3.868  18.331  0.00  0.00    +0.000 F 
ATOM     32  F   UNL     1       3.777   3.232  16.980  0.00  0.00    +0.000 F 
ENDBRANCH  28  29
BRANCH  28  33
ATOM     33  C   UNL     1       5.109   6.534  16.778  0.00  0.00    +0.000 C 
ATOM     34  O   UNL     1       5.999   6.990  17.485  0.00  0.00    +0.000 OA
BRANCH  33  35
ATOM     35  O   UNL     1       4.999   6.903  15.487  0.00  0.00    +0.000 OA
ATOM     36  H   UNL     1       4.137   7.167  15.125  0.00  0.00    +0.000 HD
ENDBRANCH  33  35
ENDBRANCH  28  33
ENDBRANCH  21  28
ENDBRANCH   4  21
TORSDOF 9
ENDMDL
MODEL 5
REMARK VINA RESULT:      -8.7      2.117      3.618
REMARK  Name = 
REMARK  12 active torsions:
REMARK  status: ('A' for Active; 'I' for Inactive)
REMARK    1  A    between atoms: C_1  and  C_2
REMARK    2  A    between atoms: C_2  and  C_3
REMARK    3  A    between atoms: C_6  and  C_7
REMARK    4  A    between atoms: C_9  and  C_10
REMARK    5  A    between atoms: N_13  and  C_14
REMARK    6  A    between atoms: C_14  and  C_15
REMARK    7  A    between atoms: C_18  and  C_19
REMARK    8  A    between atoms: C_19  and  C_20
REMARK    9  A    between atoms: C_19  and  C_26
REMARK   10  A    between atoms: C_26  and  C_27
REMARK   11  A    between atoms: C_26  and  C_30
REMARK   12  A    between atoms: C_27  and  O_29
REMARK                            x       y       z     vdW  Elec       q    Type
REMARK                         _______ _______ _______ _____ _____    ______ ____
ROOT
ATOM      1  C   UNL     1       1.144   9.552  18.989  0.00  0.00    +0.000 A 
ATOM      2  C   UNL     1       1.318   8.711  20.101  0.00  0.00    +0.000 A 
ATOM      3  C   UNL     1       2.121   7.558  20.013  0.00  0.00    +0.000 A 
ATOM      4  C   UNL     1       2.742   7.197  18.803  0.00  0.00    +0.000 A 
ATOM      5  C   UNL     1       2.548   8.038  17.699  0.00  0.00    +0.000 A 
ATOM      6  C   UNL     1       1.816   9.224  17.810  0.00  0.00    +0.000 A 
ENDROOT
BRANCH   1   7
ATOM      7  C   UNL     1       0.142  10.688  18.976  0.00  0.00    +0.000 C 
BRANCH   7  18
ATOM      8  C   UNL     1      -0.098  11.862  21.263  0.00  0.00    +0.000 A 
ATOM      9  N   UNL     1       0.444  12.909  21.852  0.00  0.00    +0.000 NA
ATOM     10  C   UNL     1       1.324  13.427  20.956  0.00  0.00    +0.000 A 
ATOM     11  C   UNL     1       2.161  14.541  21.094  0.00  0.00    +0.000 A 
ATOM     12  C   UNL     1       2.170  15.389  22.323  0.00  0.00    +0.000 C 
ATOM     13  C   UNL     1       3.003  14.798  20.003  0.00  0.00    +0.000 A 
ATOM     14  C   UNL     1       2.960  13.981  18.870  0.00  0.00    +0.000 A 
ATOM     15  C   UNL     1       3.908  14.274  17.729  0.00  0.00    +0.000 C 
ATOM     16  N   UNL     1       2.133  12.917  18.709  0.00  0.00    +0.000 NA
ATOM     17  C   UNL     1       1.340  12.706  19.783  0.00  0.00    +0.000 A 
ATOM     18  N   UNL     1       0.381  11.729  19.963  0.00  0.00    +0.000 N 
BRANCH   8  20
ATOM     19  C   UNL     1      -0.429  10.115  23.025  0.00  0.00    +0.000 C 
ATOM     20  C   UNL     1      -1.087  11.026  22.000  0.00  0.00    +0.000 C 
ENDBRANCH   8  20
ENDBRANCH   7  18
ENDBRANCH   1   7
BRANCH   4  21
ATOM     21  C   UNL     1       3.542   5.889  18.690  0.00  0.00    +0.000 C 
BRANCH  21  22
ATOM     22  C   UNL     1       2.722   4.726  19.275  0.00  0.00    +0.000 A 
ATOM     23  C   UNL     1       3.047   4.128  20.505  0.00  0.00    +0.000 A 
ATOM     24  C   UNL     1       2.273   3.087  21.025  0.00  0.00    +0.000 A 
ATOM     25  C   UNL     1       1.166   2.616  20.324  0.00  0.00    +0.000 A 
ATOM     26  C   UNL     1       0.834   3.186  19.099  0.00  0.00    +0.000 A 
ATOM     27  C   UNL     1       1.606   4.228  18.575  0.00  0.00    +0.000 A 
ENDBRANCH  21  22
BRANCH  21  28
ATOM     28  C   UNL     1       4.107   5.605  17.270  0.00  0.00    +0.000 C 
BRANCH  28  29
ATOM     29  C   UNL     1       4.750   4.237  17.123  0.00  0.00    +0.000 C 
ATOM     30  F   UNL     1       5.382   3.843  18.257  0.00  0.00    +0.000 F 
ATOM     31  F   UNL     1       3.817   3.295  16.844  0.00  0.00    +0.000 F 
ATOM     32  F   UNL     1       5.680   4.175  16.152  0.00  0.00    +0.000 F 
ENDBRANCH  28  29
BRANCH  28  33
ATOM     33  C   UNL     1       5.103   6.585  16.721  0.00  0.00    +0.000 C 
ATOM     34  O   UNL     1       5.959   7.093  17.433  0.00  0.00    +0.000 OA
BRANCH  33  35
ATOM     35  O   UNL     1       4.997   6.928  15.421  0.00  0.00    +0.000 OA
ATOM     36  H   UNL     1       5.529   7.656  15.062  0.00  0.00    +0.000 HD
ENDBRANCH  33  35
ENDBRANCH  28  33
ENDBRANCH  21  28
ENDBRANCH   4  21
TORSDOF 9
ENDMDL
MODEL 6
REMARK VINA RESULT:      -8.6      2.284      3.960
REMARK  Name = 
REMARK  12 active torsions:
REMARK  status: ('A' for Active; 'I' for Inactive)
REMARK    1  A    between atoms: C_1  and  C_2
REMARK    2  A    between atoms: C_2  and  C_3
REMARK    3  A    between atoms: C_6  and  C_7
REMARK    4  A    between atoms: C_9  and  C_10
REMARK    5  A    between atoms: N_13  and  C_14
REMARK    6  A    between atoms: C_14  and  C_15
REMARK    7  A    between atoms: C_18  and  C_19
REMARK    8  A    between atoms: C_19  and  C_20
REMARK    9  A    between atoms: C_19  and  C_26
REMARK   10  A    between atoms: C_26  and  C_27
REMARK   11  A    between atoms: C_26  and  C_30
REMARK   12  A    between atoms: C_27  and  O_29
REMARK                            x       y       z     vdW  Elec       q    Type
REMARK                         _______ _______ _______ _____ _____    ______ ____
ROOT
ATOM      1  C   UNL     1       1.116   9.508  18.990  0.00  0.00    +0.000 A 
ATOM      2  C   UNL     1       1.321   8.684  20.110  0.00  0.00    +0.000 A 
ATOM      3  C   UNL     1       2.126   7.533  20.019  0.00  0.00    +0.000 A 
ATOM      4  C   UNL     1       2.718   7.155  18.800  0.00  0.00    +0.000 A 
ATOM      5  C   UNL     1       2.493   7.979  17.689  0.00  0.00    +0.000 A 
ATOM      6  C   UNL     1       1.759   9.164  17.800  0.00  0.00    +0.000 A 
ENDROOT
BRANCH   1   7
ATOM      7  C   UNL     1       0.109  10.640  18.986  0.00  0.00    +0.000 C 
BRANCH   7  18
ATOM      8  C   UNL     1       1.491  12.795  19.317  0.00  0.00    +0.000 A 
ATOM      9  N   UNL     1       1.500  13.791  20.180  0.00  0.00    +0.000 NA
ATOM     10  C   UNL     1       0.512  13.522  21.072  0.00  0.00    +0.000 A 
ATOM     11  C   UNL     1       0.105  14.272  22.183  0.00  0.00    +0.000 A 
ATOM     12  C   UNL     1       0.780  15.542  22.582  0.00  0.00    +0.000 C 
ATOM     13  C   UNL     1      -0.991  13.754  22.886  0.00  0.00    +0.000 A 
ATOM     14  C   UNL     1      -1.592  12.560  22.480  0.00  0.00    +0.000 A 
ATOM     15  C   UNL     1      -2.793  12.055  23.249  0.00  0.00    +0.000 C 
ATOM     16  N   UNL     1      -1.191  11.807  21.426  0.00  0.00    +0.000 NA
ATOM     17  C   UNL     1      -0.133  12.341  20.776  0.00  0.00    +0.000 A 
ATOM     18  N   UNL     1       0.538  11.846  19.675  0.00  0.00    +0.000 N 
BRANCH   8  20
ATOM     19  C   UNL     1       3.256  14.083  18.096  0.00  0.00    +0.000 C 
ATOM     20  C   UNL     1       2.435  12.803  18.165  0.00  0.00    +0.000 C 
ENDBRANCH   8  20
ENDBRANCH   7  18
ENDBRANCH   1   7
BRANCH   4  21
ATOM     21  C   UNL     1       3.520   5.849  18.687  0.00  0.00    +0.000 C 
BRANCH  21  22
ATOM     22  C   UNL     1       2.683   4.676  19.228  0.00  0.00    +0.000 A 
ATOM     23  C   UNL     1       2.995   4.032  20.437  0.00  0.00    +0.000 A 
ATOM     24  C   UNL     1       2.205   2.984  20.917  0.00  0.00    +0.000 A 
ATOM     25  C   UNL     1       1.095   2.551  20.196  0.00  0.00    +0.000 A 
ATOM     26  C   UNL     1       0.776   3.168  18.990  0.00  0.00    +0.000 A 
ATOM     27  C   UNL     1       1.564   4.218  18.506  0.00  0.00    +0.000 A 
ENDBRANCH  21  22
BRANCH  21  28
ATOM     28  C   UNL     1       4.125   5.589  17.279  0.00  0.00    +0.000 C 
BRANCH  28  29
ATOM     29  C   UNL     1       4.791   4.232  17.133  0.00  0.00    +0.000 C 
ATOM     30  F   UNL     1       3.896   3.248  16.867  0.00  0.00    +0.000 F 
ATOM     31  F   UNL     1       5.681   4.241  16.111  0.00  0.00    +0.000 F 
ATOM     32  F   UNL     1       5.454   3.830  18.233  0.00  0.00    +0.000 F 
ENDBRANCH  28  29
BRANCH  28  33
ATOM     33  C   UNL     1       5.120   6.590  16.766  0.00  0.00    +0.000 C 
ATOM     34  O   UNL     1       5.970   7.079  17.499  0.00  0.00    +0.000 OA
BRANCH  33  35
ATOM     35  O   UNL     1       5.021   6.971  15.477  0.00  0.00    +0.000 OA
ATOM     36  H   UNL     1       5.308   6.375  14.767  0.00  0.00    +0.000 HD
ENDBRANCH  33  35
ENDBRANCH  28  33
ENDBRANCH  21  28
ENDBRANCH   4  21
TORSDOF 9
ENDMDL
MODEL 7
REMARK VINA RESULT:      -8.6      2.292      4.048
REMARK  Name = 
REMARK  12 active torsions:
REMARK  status: ('A' for Active; 'I' for Inactive)
REMARK    1  A    between atoms: C_1  and  C_2
REMARK    2  A    between atoms: C_2  and  C_3
REMARK    3  A    between atoms: C_6  and  C_7
REMARK    4  A    between atoms: C_9  and  C_10
REMARK    5  A    between atoms: N_13  and  C_14
REMARK    6  A    between atoms: C_14  and  C_15
REMARK    7  A    between atoms: C_18  and  C_19
REMARK    8  A    between atoms: C_19  and  C_20
REMARK    9  A    between atoms: C_19  and  C_26
REMARK   10  A    between atoms: C_26  and  C_27
REMARK   11  A    between atoms: C_26  and  C_30
REMARK   12  A    between atoms: C_27  and  O_29
REMARK                            x       y       z     vdW  Elec       q    Type
REMARK                         _______ _______ _______ _____ _____    ______ ____
ROOT
ATOM      1  C   UNL     1       1.094   9.498  18.987  0.00  0.00    +0.000 A 
ATOM      2  C   UNL     1       1.336   8.705  20.121  0.00  0.00    +0.000 A 
ATOM      3  C   UNL     1       2.138   7.550  20.035  0.00  0.00    +0.000 A 
ATOM      4  C   UNL     1       2.688   7.140  18.807  0.00  0.00    +0.000 A 
ATOM      5  C   UNL     1       2.426   7.934  17.682  0.00  0.00    +0.000 A 
ATOM      6  C   UNL     1       1.696   9.122  17.786  0.00  0.00    +0.000 A 
ENDROOT
BRANCH   1   7
ATOM      7  C   UNL     1       0.087  10.630  18.986  0.00  0.00    +0.000 C 
BRANCH   7  18
ATOM      8  C   UNL     1       1.474  12.785  19.300  0.00  0.00    +0.000 A 
ATOM      9  N   UNL     1       1.490  13.785  20.158  0.00  0.00    +0.000 NA
ATOM     10  C   UNL     1       0.506  13.522  21.056  0.00  0.00    +0.000 A 
ATOM     11  C   UNL     1       0.107  14.277  22.166  0.00  0.00    +0.000 A 
ATOM     12  C   UNL     1       0.786  15.548  22.556  0.00  0.00    +0.000 C 
ATOM     13  C   UNL     1      -0.986  13.765  22.878  0.00  0.00    +0.000 A 
ATOM     14  C   UNL     1      -1.592  12.570  22.481  0.00  0.00    +0.000 A 
ATOM     15  C   UNL     1      -2.789  12.071  23.259  0.00  0.00    +0.000 C 
ATOM     16  N   UNL     1      -1.197  11.812  21.428  0.00  0.00    +0.000 NA
ATOM     17  C   UNL     1      -0.142  12.341  20.770  0.00  0.00    +0.000 A 
ATOM     18  N   UNL     1       0.522  11.839  19.668  0.00  0.00    +0.000 N 
BRANCH   8  20
ATOM     19  C   UNL     1       3.302  14.021  18.117  0.00  0.00    +0.000 C 
ATOM     20  C   UNL     1       2.413  12.786  18.143  0.00  0.00    +0.000 C 
ENDBRANCH   8  20
ENDBRANCH   7  18
ENDBRANCH   1   7
BRANCH   4  21
ATOM     21  C   UNL     1       3.486   5.830  18.702  0.00  0.00    +0.000 C 
BRANCH  21  22
ATOM     22  C   UNL     1       2.654   4.668  19.271  0.00  0.00    +0.000 A 
ATOM     23  C   UNL     1       1.536   4.149  18.595  0.00  0.00    +0.000 A 
ATOM     24  C   UNL     1       0.811   3.078  19.123  0.00  0.00    +0.000 A 
ATOM     25  C   UNL     1       1.179   2.509  20.340  0.00  0.00    +0.000 A 
ATOM     26  C   UNL     1       2.276   3.016  21.031  0.00  0.00    +0.000 A 
ATOM     27  C   UNL     1       3.005   4.088  20.505  0.00  0.00    +0.000 A 
ENDBRANCH  21  22
BRANCH  21  28
ATOM     28  C   UNL     1       4.071   5.548  17.289  0.00  0.00    +0.000 C 
BRANCH  28  29
ATOM     29  C   UNL     1       4.736   4.190  17.155  0.00  0.00    +0.000 C 
ATOM     30  F   UNL     1       5.373   3.816  18.293  0.00  0.00    +0.000 F 
ATOM     31  F   UNL     1       3.818   3.230  16.885  0.00  0.00    +0.000 F 
ATOM     32  F   UNL     1       5.667   4.134  16.185  0.00  0.00    +0.000 F 
ENDBRANCH  28  29
BRANCH  28  33
ATOM     33  C   UNL     1       5.058   6.542  16.746  0.00  0.00    +0.000 C 
ATOM     34  O   UNL     1       5.002   6.928  15.586  0.00  0.00    +0.000 OA
BRANCH  33  35
ATOM     35  O   UNL     1       6.041   6.963  17.566  0.00  0.00    +0.000 OA
ATOM     36  H   UNL     1       6.632   6.321  17.992  0.00  0.00    +0.000 HD
ENDBRANCH  33  35
ENDBRANCH  28  33
ENDBRANCH  21  28
ENDBRANCH   4  21
TORSDOF 9
ENDMDL
MODEL 8
REMARK VINA RESULT:      -8.5      2.504      4.651
REMARK  Name = 
REMARK  12 active torsions:
REMARK  status: ('A' for Active; 'I' for Inactive)
REMARK    1  A    between atoms: C_1  and  C_2
REMARK    2  A    between atoms: C_2  and  C_3
REMARK    3  A    between atoms: C_6  and  C_7
REMARK    4  A    between atoms: C_9  and  C_10
REMARK    5  A    between atoms: N_13  and  C_14
REMARK    6  A    between atoms: C_14  and  C_15
REMARK    7  A    between atoms: C_18  and  C_19
REMARK    8  A    between atoms: C_19  and  C_20
REMARK    9  A    between atoms: C_19  and  C_26
REMARK   10  A    between atoms: C_26  and  C_27
REMARK   11  A    between atoms: C_26  and  C_30
REMARK   12  A    between atoms: C_27  and  O_29
REMARK                            x       y       z     vdW  Elec       q    Type
REMARK                         _______ _______ _______ _____ _____    ______ ____
ROOT
ATOM      1  C   UNL     1       1.384   9.501  18.626  0.00  0.00    +0.000 A 
ATOM      2  C   UNL     1       2.128   8.863  17.618  0.00  0.00    +0.000 A 
ATOM      3  C   UNL     1       2.804   7.655  17.877  0.00  0.00    +0.000 A 
ATOM      4  C   UNL     1       2.783   7.072  19.158  0.00  0.00    +0.000 A 
ATOM      5  C   UNL     1       2.048   7.727  20.156  0.00  0.00    +0.000 A 
ATOM      6  C   UNL     1       1.313   8.883  19.875  0.00  0.00    +0.000 A 
ENDROOT
BRANCH   1   7
ATOM      7  C   UNL     1       0.805  10.890  18.454  0.00  0.00    +0.000 C 
BRANCH   7  18
ATOM      8  C   UNL     1      -1.087  11.512  20.097  0.00  0.00    +0.000 A 
ATOM      9  N   UNL     1      -2.402  11.577  20.047  0.00  0.00    +0.000 NA
ATOM     10  C   UNL     1      -2.746  11.203  18.787  0.00  0.00    +0.000 A 
ATOM     11  C   UNL     1      -4.023  11.109  18.219  0.00  0.00    +0.000 A 
ATOM     12  C   UNL     1      -5.267  11.395  18.992  0.00  0.00    +0.000 C 
ATOM     13  C   UNL     1      -4.051  10.742  16.866  0.00  0.00    +0.000 A 
ATOM     14  C   UNL     1      -2.862  10.479  16.179  0.00  0.00    +0.000 A 
ATOM     15  C   UNL     1      -2.937  10.118  14.713  0.00  0.00    +0.000 C 
ATOM     16  N   UNL     1      -1.622  10.536  16.725  0.00  0.00    +0.000 NA
ATOM     17  C   UNL     1      -1.640  10.893  18.028  0.00  0.00    +0.000 A 
ATOM     18  N   UNL     1      -0.573  11.040  18.893  0.00  0.00    +0.000 N 
BRANCH   8  20
ATOM     19  C   UNL     1      -0.619  10.937  22.488  0.00  0.00    +0.000 C 
ATOM     20  C   UNL     1      -0.372  11.908  21.343  0.00  0.00    +0.000 C 
ENDBRANCH   8  20
ENDBRANCH   7  18
ENDBRANCH   1   7
BRANCH   4  21
ATOM     21  C   UNL     1       3.597   5.803  19.457  0.00  0.00    +0.000 C 
BRANCH  21  22
ATOM     22  C   UNL     1       2.673   4.717  20.035  0.00  0.00    +0.000 A 
ATOM     23  C   UNL     1       3.108   3.814  21.020  0.00  0.00    +0.000 A 
ATOM     24  C   UNL     1       2.243   2.851  21.545  0.00  0.00    +0.000 A 
ATOM     25  C   UNL     1       0.929   2.764  21.092  0.00  0.00    +0.000 A 
ATOM     26  C   UNL     1       0.481   3.641  20.109  0.00  0.00    +0.000 A 
ATOM     27  C   UNL     1       1.345   4.607  19.581  0.00  0.00    +0.000 A 
ENDBRANCH  21  22
BRANCH  21  28
ATOM     28  C   UNL     1       4.475   5.312  18.272  0.00  0.00    +0.000 C 
BRANCH  28  29
ATOM     29  C   UNL     1       3.811   4.255  17.406  0.00  0.00    +0.000 C 
ATOM     30  F   UNL     1       4.372   4.176  16.174  0.00  0.00    +0.000 F 
ATOM     31  F   UNL     1       3.926   3.029  17.971  0.00  0.00    +0.000 F 
ATOM     32  F   UNL     1       2.500   4.473  17.192  0.00  0.00    +0.000 F 
ENDBRANCH  28  29
BRANCH  28  33
ATOM     33  C   UNL     1       5.835   4.770  18.606  0.00  0.00    +0.000 C 
ATOM     34  O   UNL     1       6.266   4.789  19.751  0.00  0.00    +0.000 OA
BRANCH  33  35
ATOM     35  O   UNL     1       6.591   4.301  17.593  0.00  0.00    +0.000 OA
ATOM     36  H   UNL     1       7.558   4.276  17.675  0.00  0.00    +0.000 HD
ENDBRANCH  33  35
ENDBRANCH  28  33
ENDBRANCH  21  28
ENDBRANCH   4  21
TORSDOF 9
ENDMDL
MODEL 9
REMARK VINA RESULT:      -8.5      2.459      4.722
REMARK  Name = 
REMARK  12 active torsions:
REMARK  status: ('A' for Active; 'I' for Inactive)
REMARK    1  A    between atoms: C_1  and  C_2
REMARK    2  A    between atoms: C_2  and  C_3
REMARK    3  A    between atoms: C_6  and  C_7
REMARK    4  A    between atoms: C_9  and  C_10
REMARK    5  A    between atoms: N_13  and  C_14
REMARK    6  A    between atoms: C_14  and  C_15
REMARK    7  A    between atoms: C_18  and  C_19
REMARK    8  A    between atoms: C_19  and  C_20
REMARK    9  A    between atoms: C_19  and  C_26
REMARK   10  A    between atoms: C_26  and  C_27
REMARK   11  A    between atoms: C_26  and  C_30
REMARK   12  A    between atoms: C_27  and  O_29
REMARK                            x       y       z     vdW  Elec       q    Type
REMARK                         _______ _______ _______ _____ _____    ______ ____
ROOT
ATOM      1  C   UNL     1       1.304   9.596  18.716  0.00  0.00    +0.000 A 
ATOM      2  C   UNL     1       2.014   8.968  17.678  0.00  0.00    +0.000 A 
ATOM      3  C   UNL     1       2.687   7.751  17.898  0.00  0.00    +0.000 A 
ATOM      4  C   UNL     1       2.698   7.148  19.169  0.00  0.00    +0.000 A 
ATOM      5  C   UNL     1       1.997   7.792  20.198  0.00  0.00    +0.000 A 
ATOM      6  C   UNL     1       1.264   8.958  19.957  0.00  0.00    +0.000 A 
ENDROOT
BRANCH   1   7
ATOM      7  C   UNL     1       0.733  10.992  18.584  0.00  0.00    +0.000 C 
BRANCH   7  18
ATOM      8  C   UNL     1      -1.192  11.586  20.198  0.00  0.00    +0.000 A 
ATOM      9  N   UNL     1      -2.506  11.645  20.124  0.00  0.00    +0.000 NA
ATOM     10  C   UNL     1      -2.825  11.284  18.855  0.00  0.00    +0.000 A 
ATOM     11  C   UNL     1      -4.090  11.190  18.261  0.00  0.00    +0.000 A 
ATOM     12  C   UNL     1      -5.350  11.461  19.015  0.00  0.00    +0.000 C 
ATOM     13  C   UNL     1      -4.092  10.839  16.904  0.00  0.00    +0.000 A 
ATOM     14  C   UNL     1      -2.890  10.590  16.237  0.00  0.00    +0.000 A 
ATOM     15  C   UNL     1      -2.936  10.246  14.765  0.00  0.00    +0.000 C 
ATOM     16  N   UNL     1      -1.660  10.647  16.805  0.00  0.00    +0.000 NA
ATOM     17  C   UNL     1      -1.703  10.988  18.112  0.00  0.00    +0.000 A 
ATOM     18  N   UNL     1      -0.654  11.131  18.998  0.00  0.00    +0.000 N 
BRANCH   8  20
ATOM     19  C   UNL     1      -1.255  11.506  22.699  0.00  0.00    +0.000 C 
ATOM     20  C   UNL     1      -0.502  11.971  21.461  0.00  0.00    +0.000 C 
ENDBRANCH   8  20
ENDBRANCH   7  18
ENDBRANCH   1   7
BRANCH   4  21
ATOM     21  C   UNL     1       3.509   5.867  19.424  0.00  0.00    +0.000 C 
BRANCH  21  22
ATOM     22  C   UNL     1       2.598   4.787  20.032  0.00  0.00    +0.000 A 
ATOM     23  C   UNL     1       1.264   4.617  19.621  0.00  0.00    +0.000 A 
ATOM     24  C   UNL     1       0.464   3.614  20.174  0.00  0.00    +0.000 A 
ATOM     25  C   UNL     1       0.975   2.767  21.155  0.00  0.00    +0.000 A 
ATOM     26  C   UNL     1       2.289   2.926  21.585  0.00  0.00    +0.000 A 
ATOM     27  C   UNL     1       3.093   3.930  21.033  0.00  0.00    +0.000 A 
ENDBRANCH  21  22
BRANCH  21  28
ATOM     28  C   UNL     1       4.331   5.376  18.199  0.00  0.00    +0.000 C 
BRANCH  28  29
ATOM     29  C   UNL     1       3.667   4.256  17.418  0.00  0.00    +0.000 C 
ATOM     30  F   UNL     1       2.377   4.542  17.108  0.00  0.00    +0.000 F 
ATOM     31  F   UNL     1       4.314   4.037  16.247  0.00  0.00    +0.000 F 
ATOM     32  F   UNL     1       3.627   3.082  18.076  0.00  0.00    +0.000 F 
ENDBRANCH  28  29
BRANCH  28  33
ATOM     33  C   UNL     1       5.736   4.915  18.458  0.00  0.00    +0.000 C 
ATOM     34  O   UNL     1       6.701   5.584  18.111  0.00  0.00    +0.000 OA
BRANCH  33  35
ATOM     35  O   UNL     1       5.907   3.715  19.048  0.00  0.00    +0.000 OA
ATOM     36  H   UNL     1       5.209   3.344  19.611  0.00  0.00    +0.000 HD
ENDBRANCH  33  35
ENDBRANCH  28  33
ENDBRANCH  21  28
ENDBRANCH   4  21
TORSDOF 9
ENDMDL
