MODEL 1
REMARK VINA RESULT:      -7.7      0.000      0.000
REMARK  Name = 
REMARK  10 active torsions:
REMARK  status: ('A' for Active; 'I' for Inactive)
REMARK    1  A    between atoms: C_1  and  C_2
REMARK    2  A    between atoms: C_2  and  C_3
REMARK    3  A    between atoms: C_3  and  N_4
REMARK    4  A    between atoms: N_4  and  S_5
REMARK    5  A    between atoms: S_5  and  C_8
REMARK    6  A    between atoms: C_12  and  C_13
REMARK    7  A    between atoms: N_15  and  N_16
REMARK    8  A    between atoms: C_17  and  C_19
REMARK    9  A    between atoms: C_21  and  C_22
REMARK   10  A    between atoms: C_24  and  C_25
REMARK                            x       y       z     vdW  Elec       q    Type
REMARK                         _______ _______ _______ _____ _____    ______ ____
ROOT
ATOM      1  C   UNL     1       2.377   6.276  19.565  0.00  0.00    +0.000 C 
ATOM      2  O   UNL     1       1.898   5.839  20.610  0.00  0.00    +0.000 OA
ATOM      3  N   UNL     1       2.324   7.607  19.216  0.00  0.00    +0.000 N 
ATOM      4  H   UNL     1       2.854   8.023  18.449  0.00  0.00    +0.000 HD
ENDROOT
BRANCH   1   9
ATOM      5  C   UNL     1       4.586   4.935  16.761  0.00  0.00    +0.000 A 
ATOM      6  C   UNL     1       4.200   3.591  16.737  0.00  0.00    +0.000 A 
ATOM      7  C   UNL     1       3.249   3.131  17.648  0.00  0.00    +0.000 A 
ATOM      8  C   UNL     1       2.677   4.015  18.568  0.00  0.00    +0.000 A 
ATOM      9  C   UNL     1       3.066   5.363  18.602  0.00  0.00    +0.000 A 
ATOM     10  C   UNL     1       4.030   5.825  17.692  0.00  0.00    +0.000 A 
BRANCH   5  11
ATOM     11  S   UNL     1       5.646   5.544  15.462  0.00  0.00    +0.000 S 
ATOM     12  O   UNL     1       5.190   6.870  15.107  0.00  0.00    +0.000 OA
ATOM     13  O   UNL     1       5.747   4.476  14.495  0.00  0.00    +0.000 OA
BRANCH  11  14
ATOM     14  N   UNL     1       7.154   5.679  16.218  0.00  0.00    +0.000 NA
ATOM     15  H   UNL     1       7.908   5.834  15.551  0.00  0.00    +0.000 HD
BRANCH  14  16
ATOM     16  C   UNL     1       7.451   4.709  17.283  0.00  0.00    +0.000 C 
BRANCH  16  18
ATOM     17  C   UNL     1       7.862   6.937  18.352  0.00  0.00    +0.000 C 
ATOM     18  C   UNL     1       7.694   5.445  18.599  0.00  0.00    +0.000 C 
ENDBRANCH  16  18
ENDBRANCH  14  16
ENDBRANCH  11  14
ENDBRANCH   5  11
ENDBRANCH   1   9
BRANCH   3  19
ATOM     19  N   UNL     1       1.721   8.513  20.100  0.00  0.00    +0.000 N 
ATOM     20  C   UNL     1       1.045   9.598  19.573  0.00  0.00    +0.000 C 
ATOM     21  O   UNL     1       0.982   9.777  18.356  0.00  0.00    +0.000 OA
ATOM     22  H   UNL     1       1.812   8.313  21.092  0.00  0.00    +0.000 HD
BRANCH  20  23
ATOM     23  C   UNL     1       0.437  10.500  20.542  0.00  0.00    +0.000 A 
ATOM     24  C   UNL     1      -0.623  10.285  21.478  0.00  0.00    +0.000 A 
ATOM     25  C   UNL     1      -0.784  11.459  22.180  0.00  0.00    +0.000 A 
ATOM     26  C   UNL     1      -1.665  11.881  23.287  0.00  0.00    +0.000 C 
ATOM     27  O   UNL     1       0.087  12.396  21.725  0.00  0.00    +0.000 OA
ATOM     28  C   UNL     1       0.823  11.819  20.736  0.00  0.00    +0.000 A 
ATOM     29  C   UNL     1       1.846  12.687  20.112  0.00  0.00    +0.000 C 
ENDBRANCH  20  23
ENDBRANCH   3  19
TORSDOF 7
ENDMDL
MODEL 2
REMARK VINA RESULT:      -7.7      1.804      2.316
REMARK  Name = 
REMARK  10 active torsions:
REMARK  status: ('A' for Active; 'I' for Inactive)
REMARK    1  A    between atoms: C_1  and  C_2
REMARK    2  A    between atoms: C_2  and  C_3
REMARK    3  A    between atoms: C_3  and  N_4
REMARK    4  A    between atoms: N_4  and  S_5
REMARK    5  A    between atoms: S_5  and  C_8
REMARK    6  A    between atoms: C_12  and  C_13
REMARK    7  A    between atoms: N_15  and  N_16
REMARK    8  A    between atoms: C_17  and  C_19
REMARK    9  A    between atoms: C_21  and  C_22
REMARK   10  A    between atoms: C_24  and  C_25
REMARK                            x       y       z     vdW  Elec       q    Type
REMARK                         _______ _______ _______ _____ _____    ______ ____
ROOT
ATOM      1  C   UNL     1       2.609   7.745  18.174  0.00  0.00    +0.000 C 
ATOM      2  O   UNL     1       2.567   8.585  17.276  0.00  0.00    +0.000 OA
ATOM      3  N   UNL     1       2.029   7.939  19.408  0.00  0.00    +0.000 N 
ATOM      4  H   UNL     1       1.901   7.205  20.105  0.00  0.00    +0.000 HD
ENDROOT
BRANCH   1   9
ATOM      5  C   UNL     1       5.262   5.099  17.467  0.00  0.00    +0.000 A 
ATOM      6  C   UNL     1       4.481   3.939  17.435  0.00  0.00    +0.000 A 
ATOM      7  C   UNL     1       3.109   4.026  17.671  0.00  0.00    +0.000 A 
ATOM      8  C   UNL     1       2.520   5.270  17.921  0.00  0.00    +0.000 A 
ATOM      9  C   UNL     1       3.301   6.436  17.962  0.00  0.00    +0.000 A 
ATOM     10  C   UNL     1       4.683   6.349  17.735  0.00  0.00    +0.000 A 
BRANCH   5  11
ATOM     11  S   UNL     1       6.970   4.993  16.965  0.00  0.00    +0.000 S 
ATOM     12  O   UNL     1       7.010   4.341  15.674  0.00  0.00    +0.000 OA
ATOM     13  O   UNL     1       7.693   4.487  18.109  0.00  0.00    +0.000 OA
BRANCH  11  14
ATOM     14  N   UNL     1       7.421   6.612  16.764  0.00  0.00    +0.000 NA
ATOM     15  H   UNL     1       7.971   6.757  15.919  0.00  0.00    +0.000 HD
BRANCH  14  16
ATOM     16  C   UNL     1       7.911   7.317  17.958  0.00  0.00    +0.000 C 
BRANCH  16  18
ATOM     17  C   UNL     1       8.844   9.539  18.637  0.00  0.00    +0.000 C 
ATOM     18  C   UNL     1       7.860   8.825  17.724  0.00  0.00    +0.000 C 
ENDBRANCH  16  18
ENDBRANCH  14  16
ENDBRANCH  11  14
ENDBRANCH   5  11
ENDBRANCH   1   9
BRANCH   3  19
ATOM     19  N   UNL     1       1.336   9.134  19.647  0.00  0.00    +0.000 N 
ATOM     20  C   UNL     1       0.417   9.166  20.680  0.00  0.00    +0.000 C 
ATOM     21  O   UNL     1       0.197   8.168  21.367  0.00  0.00    +0.000 OA
ATOM     22  H   UNL     1       1.558   9.921  19.044  0.00  0.00    +0.000 HD
BRANCH  20  23
ATOM     23  C   UNL     1      -0.268  10.437  20.882  0.00  0.00    +0.000 A 
ATOM     24  C   UNL     1      -0.275  11.323  22.004  0.00  0.00    +0.000 A 
ATOM     25  C   UNL     1      -1.058  12.402  21.660  0.00  0.00    +0.000 A 
ATOM     26  C   UNL     1      -1.436  13.656  22.341  0.00  0.00    +0.000 C 
ATOM     27  O   UNL     1      -1.559  12.233  20.409  0.00  0.00    +0.000 OA
ATOM     28  C   UNL     1      -1.083  11.047  19.939  0.00  0.00    +0.000 A 
ATOM     29  C   UNL     1      -1.515  10.683  18.571  0.00  0.00    +0.000 C 
ENDBRANCH  20  23
ENDBRANCH   3  19
TORSDOF 7
ENDMDL
MODEL 3
REMARK VINA RESULT:      -7.6      1.484      1.868
REMARK  Name = 
REMARK  10 active torsions:
REMARK  status: ('A' for Active; 'I' for Inactive)
REMARK    1  A    between atoms: C_1  and  C_2
REMARK    2  A    between atoms: C_2  and  C_3
REMARK    3  A    between atoms: C_3  and  N_4
REMARK    4  A    between atoms: N_4  and  S_5
REMARK    5  A    between atoms: S_5  and  C_8
REMARK    6  A    between atoms: C_12  and  C_13
REMARK    7  A    between atoms: N_15  and  N_16
REMARK    8  A    between atoms: C_17  and  C_19
REMARK    9  A    between atoms: C_21  and  C_22
REMARK   10  A    between atoms: C_24  and  C_25
REMARK                            x       y       z     vdW  Elec       q    Type
REMARK                         _______ _______ _______ _____ _____    ______ ____
ROOT
ATOM      1  C   UNL     1       2.355   6.319  19.375  0.00  0.00    +0.000 C 
ATOM      2  O   UNL     1       1.750   5.872  20.348  0.00  0.00    +0.000 OA
ATOM      3  N   UNL     1       2.273   7.636  18.981  0.00  0.00    +0.000 N 
ATOM      4  H   UNL     1       2.887   8.071  18.292  0.00  0.00    +0.000 HD
ENDROOT
BRANCH   1   9
ATOM      5  C   UNL     1       5.248   5.011  17.263  0.00  0.00    +0.000 A 
ATOM      6  C   UNL     1       4.768   3.747  16.906  0.00  0.00    +0.000 A 
ATOM      7  C   UNL     1       3.525   3.324  17.376  0.00  0.00    +0.000 A 
ATOM      8  C   UNL     1       2.760   4.169  18.188  0.00  0.00    +0.000 A 
ATOM      9  C   UNL     1       3.241   5.435  18.556  0.00  0.00    +0.000 A 
ATOM     10  C   UNL     1       4.496   5.858  18.091  0.00  0.00    +0.000 A 
BRANCH   5  11
ATOM     11  S   UNL     1       6.740   5.609  16.490  0.00  0.00    +0.000 S 
ATOM     12  O   UNL     1       6.557   5.525  15.057  0.00  0.00    +0.000 OA
ATOM     13  O   UNL     1       7.833   4.955  17.169  0.00  0.00    +0.000 OA
BRANCH  11  14
ATOM     14  N   UNL     1       6.783   7.242  16.930  0.00  0.00    +0.000 NA
ATOM     15  H   UNL     1       6.657   7.862  16.131  0.00  0.00    +0.000 HD
BRANCH  14  16
ATOM     16  C   UNL     1       7.835   7.647  17.874  0.00  0.00    +0.000 C 
BRANCH  16  18
ATOM     17  C   UNL     1       8.988   9.622  18.896  0.00  0.00    +0.000 C 
ATOM     18  C   UNL     1       8.042   9.158  17.799  0.00  0.00    +0.000 C 
ENDBRANCH  16  18
ENDBRANCH  14  16
ENDBRANCH  11  14
ENDBRANCH   5  11
ENDBRANCH   1   9
BRANCH   3  19
ATOM     19  N   UNL     1       1.485   8.517  19.736  0.00  0.00    +0.000 N 
ATOM     20  C   UNL     1       1.083   9.705  19.153  0.00  0.00    +0.000 C 
ATOM     21  O   UNL     1       1.419   9.995  18.004  0.00  0.00    +0.000 OA
ATOM     22  H   UNL     1       1.245   8.224  20.678  0.00  0.00    +0.000 HD
BRANCH  20  23
ATOM     23  C   UNL     1       0.263  10.576  19.985  0.00  0.00    +0.000 A 
ATOM     24  C   UNL     1       0.536  11.181  21.252  0.00  0.00    +0.000 A 
ATOM     25  C   UNL     1      -0.566  11.940  21.581  0.00  0.00    +0.000 A 
ATOM     26  C   UNL     1      -0.903  12.823  22.715  0.00  0.00    +0.000 C 
ATOM     27  O   UNL     1      -1.514  11.825  20.616  0.00  0.00    +0.000 OA
ATOM     28  C   UNL     1      -1.015  11.003  19.653  0.00  0.00    +0.000 A 
ATOM     29  C   UNL     1      -1.907  10.758  18.498  0.00  0.00    +0.000 C 
ENDBRANCH  20  23
ENDBRANCH   3  19
TORSDOF 7
ENDMDL
MODEL 4
REMARK VINA RESULT:      -7.6      2.236      3.087
REMARK  Name = 
REMARK  10 active torsions:
REMARK  status: ('A' for Active; 'I' for Inactive)
REMARK    1  A    between atoms: C_1  and  C_2
REMARK    2  A    between atoms: C_2  and  C_3
REMARK    3  A    between atoms: C_3  and  N_4
REMARK    4  A    between atoms: N_4  and  S_5
REMARK    5  A    between atoms: S_5  and  C_8
REMARK    6  A    between atoms: C_12  and  C_13
REMARK    7  A    between atoms: N_15  and  N_16
REMARK    8  A    between atoms: C_17  and  C_19
REMARK    9  A    between atoms: C_21  and  C_22
REMARK   10  A    between atoms: C_24  and  C_25
REMARK                            x       y       z     vdW  Elec       q    Type
REMARK                         _______ _______ _______ _____ _____    ______ ____
ROOT
ATOM      1  C   UNL     1       2.664   7.949  18.022  0.00  0.00    +0.000 C 
ATOM      2  O   UNL     1       2.507   8.762  17.112  0.00  0.00    +0.000 OA
ATOM      3  N   UNL     1       2.143   8.129  19.284  0.00  0.00    +0.000 N 
ATOM      4  H   UNL     1       2.111   7.404  20.002  0.00  0.00    +0.000 HD
ENDROOT
BRANCH   1   9
ATOM      5  C   UNL     1       5.408   5.484  17.059  0.00  0.00    +0.000 A 
ATOM      6  C   UNL     1       4.757   4.264  17.268  0.00  0.00    +0.000 A 
ATOM      7  C   UNL     1       3.447   4.256  17.745  0.00  0.00    +0.000 A 
ATOM      8  C   UNL     1       2.787   5.463  17.996  0.00  0.00    +0.000 A 
ATOM      9  C   UNL     1       3.438   6.690  17.795  0.00  0.00    +0.000 A 
ATOM     10  C   UNL     1       4.760   6.700  17.324  0.00  0.00    +0.000 A 
BRANCH   5  11
ATOM     11  S   UNL     1       7.004   5.476  16.260  0.00  0.00    +0.000 S 
ATOM     12  O   UNL     1       7.710   4.292  16.699  0.00  0.00    +0.000 OA
ATOM     13  O   UNL     1       7.543   6.805  16.430  0.00  0.00    +0.000 OA
BRANCH  11  14
ATOM     14  N   UNL     1       6.621   5.297  14.622  0.00  0.00    +0.000 NA
ATOM     15  H   UNL     1       6.012   6.040  14.284  0.00  0.00    +0.000 HD
BRANCH  14  16
ATOM     16  C   UNL     1       6.266   3.944  14.168  0.00  0.00    +0.000 C 
BRANCH  16  18
ATOM     17  C   UNL     1       5.487   3.057  11.959  0.00  0.00    +0.000 C 
ATOM     18  C   UNL     1       6.602   3.792  12.686  0.00  0.00    +0.000 C 
ENDBRANCH  16  18
ENDBRANCH  14  16
ENDBRANCH  11  14
ENDBRANCH   5  11
ENDBRANCH   1   9
BRANCH   3  19
ATOM     19  N   UNL     1       1.377   9.275  19.541  0.00  0.00    +0.000 N 
ATOM     20  C   UNL     1       0.446   9.229  20.561  0.00  0.00    +0.000 C 
ATOM     21  O   UNL     1       0.277   8.204  21.223  0.00  0.00    +0.000 OA
ATOM     22  H   UNL     1       1.559  10.087  18.958  0.00  0.00    +0.000 HD
BRANCH  20  23
ATOM     23  C   UNL     1      -0.316  10.452  20.783  0.00  0.00    +0.000 A 
ATOM     24  C   UNL     1      -0.733  11.468  19.867  0.00  0.00    +0.000 A 
ATOM     25  C   UNL     1      -1.459  12.389  20.590  0.00  0.00    +0.000 A 
ATOM     26  C   UNL     1      -2.181  13.628  20.244  0.00  0.00    +0.000 C 
ATOM     27  O   UNL     1      -1.497  12.026  21.899  0.00  0.00    +0.000 OA
ATOM     28  C   UNL     1      -0.807  10.858  22.015  0.00  0.00    +0.000 A 
ATOM     29  C   UNL     1      -0.741  10.289  23.380  0.00  0.00    +0.000 C 
ENDBRANCH  20  23
ENDBRANCH   3  19
TORSDOF 7
ENDMDL
MODEL 5
REMARK VINA RESULT:      -7.6      3.360      9.178
REMARK  Name = 
REMARK  10 active torsions:
REMARK  status: ('A' for Active; 'I' for Inactive)
REMARK    1  A    between atoms: C_1  and  C_2
REMARK    2  A    between atoms: C_2  and  C_3
REMARK    3  A    between atoms: C_3  and  N_4
REMARK    4  A    between atoms: N_4  and  S_5
REMARK    5  A    between atoms: S_5  and  C_8
REMARK    6  A    between atoms: C_12  and  C_13
REMARK    7  A    between atoms: N_15  and  N_16
REMARK    8  A    between atoms: C_17  and  C_19
REMARK    9  A    between atoms: C_21  and  C_22
REMARK   10  A    between atoms: C_24  and  C_25
REMARK                            x       y       z     vdW  Elec       q    Type
REMARK                         _______ _______ _______ _____ _____    ______ ____
ROOT
ATOM      1  C   UNL     1       2.002   8.940  18.235  0.00  0.00    +0.000 C 
ATOM      2  O   UNL     1       2.221   9.623  17.237  0.00  0.00    +0.000 OA
ATOM      3  N   UNL     1       2.600   7.718  18.453  0.00  0.00    +0.000 N 
ATOM      4  H   UNL     1       2.570   7.213  19.339  0.00  0.00    +0.000 HD
ENDROOT
BRANCH   1   9
ATOM      5  C   UNL     1      -0.663  10.910  20.121  0.00  0.00    +0.000 A 
ATOM      6  C   UNL     1      -0.570  10.335  21.393  0.00  0.00    +0.000 A 
ATOM      7  C   UNL     1       0.335   9.297  21.615  0.00  0.00    +0.000 A 
ATOM      8  C   UNL     1       1.154   8.849  20.574  0.00  0.00    +0.000 A 
ATOM      9  C   UNL     1       1.060   9.417  19.294  0.00  0.00    +0.000 A 
ATOM     10  C   UNL     1       0.142  10.454  19.066  0.00  0.00    +0.000 A 
BRANCH   5  11
ATOM     11  S   UNL     1      -1.676  12.363  19.912  0.00  0.00    +0.000 S 
ATOM     12  O   UNL     1      -0.807  13.518  19.970  0.00  0.00    +0.000 OA
ATOM     13  O   UNL     1      -2.802  12.197  20.801  0.00  0.00    +0.000 OA
BRANCH  11  14
ATOM     14  N   UNL     1      -2.260  12.209  18.331  0.00  0.00    +0.000 NA
ATOM     15  H   UNL     1      -2.223  13.088  17.818  0.00  0.00    +0.000 HD
BRANCH  14  16
ATOM     16  C   UNL     1      -3.497  11.434  18.154  0.00  0.00    +0.000 C 
BRANCH  16  18
ATOM     17  C   UNL     1      -2.905  10.102  16.118  0.00  0.00    +0.000 C 
ATOM     18  C   UNL     1      -3.164  10.045  17.615  0.00  0.00    +0.000 C 
ENDBRANCH  16  18
ENDBRANCH  14  16
ENDBRANCH  11  14
ENDBRANCH   5  11
ENDBRANCH   1   9
BRANCH   3  19
ATOM     19  N   UNL     1       3.520   7.240  17.510  0.00  0.00    +0.000 N 
ATOM     20  C   UNL     1       4.401   6.246  17.895  0.00  0.00    +0.000 C 
ATOM     21  O   UNL     1       4.392   5.798  19.042  0.00  0.00    +0.000 OA
ATOM     22  H   UNL     1       3.481   7.653  16.582  0.00  0.00    +0.000 HD
BRANCH  20  23
ATOM     23  C   UNL     1       5.330   5.788  16.870  0.00  0.00    +0.000 A 
ATOM     24  C   UNL     1       5.129   4.919  15.752  0.00  0.00    +0.000 A 
ATOM     25  C   UNL     1       6.329   4.844  15.079  0.00  0.00    +0.000 A 
ATOM     26  C   UNL     1       6.777   4.159  13.851  0.00  0.00    +0.000 C 
ATOM     27  O   UNL     1       7.268   5.587  15.720  0.00  0.00    +0.000 OA
ATOM     28  C   UNL     1       6.666   6.157  16.800  0.00  0.00    +0.000 A 
ATOM     29  C   UNL     1       7.533   7.022  17.631  0.00  0.00    +0.000 C 
ENDBRANCH  20  23
ENDBRANCH   3  19
TORSDOF 7
ENDMDL
MODEL 6
REMARK VINA RESULT:      -7.5      1.937      2.671
REMARK  Name = 
REMARK  10 active torsions:
REMARK  status: ('A' for Active; 'I' for Inactive)
REMARK    1  A    between atoms: C_1  and  C_2
REMARK    2  A    between atoms: C_2  and  C_3
REMARK    3  A    between atoms: C_3  and  N_4
REMARK    4  A    between atoms: N_4  and  S_5
REMARK    5  A    between atoms: S_5  and  C_8
REMARK    6  A    between atoms: C_12  and  C_13
REMARK    7  A    between atoms: N_15  and  N_16
REMARK    8  A    between atoms: C_17  and  C_19
REMARK    9  A    between atoms: C_21  and  C_22
REMARK   10  A    between atoms: C_24  and  C_25
REMARK                            x       y       z     vdW  Elec       q    Type
REMARK                         _______ _______ _______ _____ _____    ______ ____
ROOT
ATOM      1  C   UNL     1       2.363   8.019  18.317  0.00  0.00    +0.000 C 
ATOM      2  O   UNL     1       2.199   8.926  17.503  0.00  0.00    +0.000 OA
ATOM      3  N   UNL     1       1.846   8.054  19.593  0.00  0.00    +0.000 N 
ATOM      4  H   UNL     1       1.819   7.254  20.225  0.00  0.00    +0.000 HD
ENDROOT
BRANCH   1   9
ATOM      5  C   UNL     1       5.144   5.686  17.149  0.00  0.00    +0.000 A 
ATOM      6  C   UNL     1       4.477   4.457  17.143  0.00  0.00    +0.000 A 
ATOM      7  C   UNL     1       3.142   4.395  17.543  0.00  0.00    +0.000 A 
ATOM      8  C   UNL     1       2.475   5.561  17.933  0.00  0.00    +0.000 A 
ATOM      9  C   UNL     1       3.142   6.796  17.949  0.00  0.00    +0.000 A 
ATOM     10  C   UNL     1       4.488   6.858  17.555  0.00  0.00    +0.000 A 
BRANCH   5  11
ATOM     11  S   UNL     1       6.780   5.775  16.443  0.00  0.00    +0.000 S 
ATOM     12  O   UNL     1       7.502   4.590  16.854  0.00  0.00    +0.000 OA
ATOM     13  O   UNL     1       7.262   7.108  16.719  0.00  0.00    +0.000 OA
BRANCH  11  14
ATOM     14  N   UNL     1       6.494   5.680  14.778  0.00  0.00    +0.000 NA
ATOM     15  H   UNL     1       5.520   5.864  14.542  0.00  0.00    +0.000 HD
BRANCH  14  16
ATOM     16  C   UNL     1       7.107   4.550  14.064  0.00  0.00    +0.000 C 
BRANCH  16  18
ATOM     17  C   UNL     1       5.511   3.608  12.379  0.00  0.00    +0.000 C 
ATOM     18  C   UNL     1       6.054   3.478  13.794  0.00  0.00    +0.000 C 
ENDBRANCH  16  18
ENDBRANCH  14  16
ENDBRANCH  11  14
ENDBRANCH   5  11
ENDBRANCH   1   9
BRANCH   3  19
ATOM     19  N   UNL     1       1.075   9.160  19.977  0.00  0.00    +0.000 N 
ATOM     20  C   UNL     1       1.025   9.494  21.318  0.00  0.00    +0.000 C 
ATOM     21  O   UNL     1       1.629   8.829  22.162  0.00  0.00    +0.000 OA
ATOM     22  H   UNL     1       0.597   9.665  19.237  0.00  0.00    +0.000 HD
BRANCH  20  23
ATOM     23  C   UNL     1       0.212  10.655  21.655  0.00  0.00    +0.000 A 
ATOM     24  C   UNL     1      -0.923  10.780  22.516  0.00  0.00    +0.000 A 
ATOM     25  C   UNL     1      -1.292  12.107  22.507  0.00  0.00    +0.000 A 
ATOM     26  C   UNL     1      -2.339  12.887  23.195  0.00  0.00    +0.000 C 
ATOM     27  O   UNL     1      -0.477  12.810  21.677  0.00  0.00    +0.000 OA
ATOM     28  C   UNL     1       0.430  11.935  21.163  0.00  0.00    +0.000 A 
ATOM     29  C   UNL     1       1.422  12.517  20.232  0.00  0.00    +0.000 C 
ENDBRANCH  20  23
ENDBRANCH   3  19
TORSDOF 7
ENDMDL
MODEL 7
REMARK VINA RESULT:      -7.5      2.138      2.816
REMARK  Name = 
REMARK  10 active torsions:
REMARK  status: ('A' for Active; 'I' for Inactive)
REMARK    1  A    between atoms: C_1  and  C_2
REMARK    2  A    between atoms: C_2  and  C_3
REMARK    3  A    between atoms: C_3  and  N_4
REMARK    4  A    between atoms: N_4  and  S_5
REMARK    5  A    between atoms: S_5  and  C_8
REMARK    6  A    between atoms: C_12  and  C_13
REMARK    7  A    between atoms: N_15  and  N_16
REMARK    8  A    between atoms: C_17  and  C_19
REMARK    9  A    between atoms: C_21  and  C_22
REMARK   10  A    between atoms: C_24  and  C_25
REMARK                            x       y       z     vdW  Elec       q    Type
REMARK                         _______ _______ _______ _____ _____    ______ ____
ROOT
ATOM      1  C   UNL     1       2.431   6.825  19.111  0.00  0.00    +0.000 C 
ATOM      2  O   UNL     1       2.116   6.725  20.296  0.00  0.00    +0.000 OA
ATOM      3  N   UNL     1       2.111   7.921  18.341  0.00  0.00    +0.000 N 
ATOM      4  H   UNL     1       2.500   8.108  17.416  0.00  0.00    +0.000 HD
ENDROOT
BRANCH   1   9
ATOM      5  C   UNL     1       5.238   4.821  17.486  0.00  0.00    +0.000 A 
ATOM      6  C   UNL     1       4.536   3.702  17.024  0.00  0.00    +0.000 A 
ATOM      7  C   UNL     1       3.167   3.600  17.270  0.00  0.00    +0.000 A 
ATOM      8  C   UNL     1       2.502   4.618  17.961  0.00  0.00    +0.000 A 
ATOM      9  C   UNL     1       3.203   5.739  18.433  0.00  0.00    +0.000 A 
ATOM     10  C   UNL     1       4.583   5.839  18.194  0.00  0.00    +0.000 A 
BRANCH   5  11
ATOM     11  S   UNL     1       6.938   5.028  16.987  0.00  0.00    +0.000 S 
ATOM     12  O   UNL     1       7.774   4.466  18.025  0.00  0.00    +0.000 OA
ATOM     13  O   UNL     1       7.063   6.400  16.553  0.00  0.00    +0.000 OA
BRANCH  11  14
ATOM     14  N   UNL     1       7.064   4.054  15.609  0.00  0.00    +0.000 NA
ATOM     15  H   UNL     1       7.871   3.433  15.648  0.00  0.00    +0.000 HD
BRANCH  14  16
ATOM     16  C   UNL     1       6.841   4.709  14.311  0.00  0.00    +0.000 C 
BRANCH  16  18
ATOM     17  C   UNL     1       6.131   3.395  12.301  0.00  0.00    +0.000 C 
ATOM     18  C   UNL     1       5.667   4.047  13.594  0.00  0.00    +0.000 C 
ENDBRANCH  16  18
ENDBRANCH  14  16
ENDBRANCH  11  14
ENDBRANCH   5  11
ENDBRANCH   1   9
BRANCH   3  19
ATOM     19  N   UNL     1       1.419   8.985  18.936  0.00  0.00    +0.000 N 
ATOM     20  C   UNL     1       1.597  10.256  18.422  0.00  0.00    +0.000 C 
ATOM     21  O   UNL     1       2.355  10.457  17.472  0.00  0.00    +0.000 OA
ATOM     22  H   UNL     1       0.812   8.756  19.719  0.00  0.00    +0.000 HD
BRANCH  20  23
ATOM     23  C   UNL     1       0.848  11.319  19.080  0.00  0.00    +0.000 A 
ATOM     24  C   UNL     1       1.285  12.365  19.952  0.00  0.00    +0.000 A 
ATOM     25  C   UNL     1       0.176  13.120  20.264  0.00  0.00    +0.000 A 
ATOM     26  C   UNL     1      -0.045  14.335  21.071  0.00  0.00    +0.000 C 
ATOM     27  O   UNL     1      -0.925  12.597  19.665  0.00  0.00    +0.000 OA
ATOM     28  C   UNL     1      -0.521  11.510  18.951  0.00  0.00    +0.000 A 
ATOM     29  C   UNL     1      -1.588  10.800  18.211  0.00  0.00    +0.000 C 
ENDBRANCH  20  23
ENDBRANCH   3  19
TORSDOF 7
ENDMDL
MODEL 8
REMARK VINA RESULT:      -7.4      1.872      2.610
REMARK  Name = 
REMARK  10 active torsions:
REMARK  status: ('A' for Active; 'I' for Inactive)
REMARK    1  A    between atoms: C_1  and  C_2
REMARK    2  A    between atoms: C_2  and  C_3
REMARK    3  A    between atoms: C_3  and  N_4
REMARK    4  A    between atoms: N_4  and  S_5
REMARK    5  A    between atoms: S_5  and  C_8
REMARK    6  A    between atoms: C_12  and  C_13
REMARK    7  A    between atoms: N_15  and  N_16
REMARK    8  A    between atoms: C_17  and  C_19
REMARK    9  A    between atoms: C_21  and  C_22
REMARK   10  A    between atoms: C_24  and  C_25
REMARK                            x       y       z     vdW  Elec       q    Type
REMARK                         _______ _______ _______ _____ _____    ______ ____
ROOT
ATOM      1  C   UNL     1       2.290   6.324  19.801  0.00  0.00    +0.000 C 
ATOM      2  O   UNL     1       1.873   5.873  20.866  0.00  0.00    +0.000 OA
ATOM      3  N   UNL     1       2.166   7.649  19.448  0.00  0.00    +0.000 N 
ATOM      4  H   UNL     1       2.647   8.082  18.659  0.00  0.00    +0.000 HD
ENDROOT
BRANCH   1   9
ATOM      5  C   UNL     1       4.932   4.710  17.575  0.00  0.00    +0.000 A 
ATOM      6  C   UNL     1       4.150   3.815  16.837  0.00  0.00    +0.000 A 
ATOM      7  C   UNL     1       2.781   3.728  17.089  0.00  0.00    +0.000 A 
ATOM      8  C   UNL     1       2.196   4.542  18.065  0.00  0.00    +0.000 A 
ATOM      9  C   UNL     1       2.978   5.435  18.814  0.00  0.00    +0.000 A 
ATOM     10  C   UNL     1       4.357   5.517  18.568  0.00  0.00    +0.000 A 
BRANCH   5  11
ATOM     11  S   UNL     1       6.634   4.951  17.099  0.00  0.00    +0.000 S 
ATOM     12  O   UNL     1       7.466   4.473  18.182  0.00  0.00    +0.000 OA
ATOM     13  O   UNL     1       6.721   6.302  16.596  0.00  0.00    +0.000 OA
BRANCH  11  14
ATOM     14  N   UNL     1       6.822   3.912  15.777  0.00  0.00    +0.000 NA
ATOM     15  H   UNL     1       7.548   3.214  15.935  0.00  0.00    +0.000 HD
BRANCH  14  16
ATOM     16  C   UNL     1       6.830   4.530  14.443  0.00  0.00    +0.000 C 
BRANCH  16  18
ATOM     17  C   UNL     1       6.382   3.385  12.261  0.00  0.00    +0.000 C 
ATOM     18  C   UNL     1       5.768   3.874  13.564  0.00  0.00    +0.000 C 
ENDBRANCH  16  18
ENDBRANCH  14  16
ENDBRANCH  11  14
ENDBRANCH   5  11
ENDBRANCH   1   9
BRANCH   3  19
ATOM     19  N   UNL     1       1.562   8.534  20.353  0.00  0.00    +0.000 N 
ATOM     20  C   UNL     1       0.991   9.692  19.859  0.00  0.00    +0.000 C 
ATOM     21  O   UNL     1       1.022   9.953  18.655  0.00  0.00    +0.000 OA
ATOM     22  H   UNL     1       1.573   8.265  21.332  0.00  0.00    +0.000 HD
BRANCH  20  23
ATOM     23  C   UNL     1       0.375  10.569  20.847  0.00  0.00    +0.000 A 
ATOM     24  C   UNL     1       0.279  11.995  20.895  0.00  0.00    +0.000 A 
ATOM     25  C   UNL     1      -0.437  12.311  22.029  0.00  0.00    +0.000 A 
ATOM     26  C   UNL     1      -0.906  13.577  22.627  0.00  0.00    +0.000 C 
ATOM     27  O   UNL     1      -0.769  11.179  22.700  0.00  0.00    +0.000 OA
ATOM     28  C   UNL     1      -0.279  10.127  21.988  0.00  0.00    +0.000 A 
ATOM     29  C   UNL     1      -0.549   8.789  22.559  0.00  0.00    +0.000 C 
ENDBRANCH  20  23
ENDBRANCH   3  19
TORSDOF 7
ENDMDL
MODEL 9
REMARK VINA RESULT:      -7.4      1.797      2.322
REMARK  Name = 
REMARK  10 active torsions:
REMARK  status: ('A' for Active; 'I' for Inactive)
REMARK    1  A    between atoms: C_1  and  C_2
REMARK    2  A    between atoms: C_2  and  C_3
REMARK    3  A    between atoms: C_3  and  N_4
REMARK    4  A    between atoms: N_4  and  S_5
REMARK    5  A    between atoms: S_5  and  C_8
REMARK    6  A    between atoms: C_12  and  C_13
REMARK    7  A    between atoms: N_15  and  N_16
REMARK    8  A    between atoms: C_17  and  C_19
REMARK    9  A    between atoms: C_21  and  C_22
REMARK   10  A    between atoms: C_24  and  C_25
REMARK                            x       y       z     vdW  Elec       q    Type
REMARK                         _______ _______ _______ _____ _____    ______ ____
ROOT
ATOM      1  C   UNL     1       1.980   7.687  19.979  0.00  0.00    +0.000 C 
ATOM      2  O   UNL     1       1.892   8.426  19.000  0.00  0.00    +0.000 OA
ATOM      3  N   UNL     1       1.582   8.066  21.242  0.00  0.00    +0.000 N 
ATOM      4  H   UNL     1       1.485   7.426  22.031  0.00  0.00    +0.000 HD
ENDROOT
BRANCH   1   9
ATOM      5  C   UNL     1       3.894   4.634  18.734  0.00  0.00    +0.000 A 
ATOM      6  C   UNL     1       3.391   3.639  19.579  0.00  0.00    +0.000 A 
ATOM      7  C   UNL     1       2.459   3.977  20.560  0.00  0.00    +0.000 A 
ATOM      8  C   UNL     1       2.021   5.300  20.683  0.00  0.00    +0.000 A 
ATOM      9  C   UNL     1       2.529   6.303  19.843  0.00  0.00    +0.000 A 
ATOM     10  C   UNL     1       3.474   5.966  18.862  0.00  0.00    +0.000 A 
BRANCH   5  11
ATOM     11  S   UNL     1       4.926   4.148  17.362  0.00  0.00    +0.000 S 
ATOM     12  O   UNL     1       4.916   5.228  16.400  0.00  0.00    +0.000 OA
ATOM     13  O   UNL     1       4.527   2.803  17.019  0.00  0.00    +0.000 OA
BRANCH  11  14
ATOM     14  N   UNL     1       6.470   4.052  18.048  0.00  0.00    +0.000 NA
ATOM     15  H   UNL     1       6.437   3.942  19.060  0.00  0.00    +0.000 HD
BRANCH  14  16
ATOM     16  C   UNL     1       7.474   5.007  17.556  0.00  0.00    +0.000 C 
BRANCH  16  18
ATOM     17  C   UNL     1       7.648   7.503  17.671  0.00  0.00    +0.000 C 
ATOM     18  C   UNL     1       7.529   6.221  18.480  0.00  0.00    +0.000 C 
ENDBRANCH  16  18
ENDBRANCH  14  16
ENDBRANCH  11  14
ENDBRANCH   5  11
ENDBRANCH   1   9
BRANCH   3  19
ATOM     19  N   UNL     1       1.026   9.341  21.420  0.00  0.00    +0.000 N 
ATOM     20  C   UNL     1      -0.273   9.434  21.884  0.00  0.00    +0.000 C 
ATOM     21  O   UNL     1      -0.936   8.424  22.123  0.00  0.00    +0.000 OA
ATOM     22  H   UNL     1       1.622  10.135  21.201  0.00  0.00    +0.000 HD
BRANCH  20  23
ATOM     23  C   UNL     1      -0.793  10.784  22.052  0.00  0.00    +0.000 A 
ATOM     24  C   UNL     1      -1.179  11.494  23.233  0.00  0.00    +0.000 A 
ATOM     25  C   UNL     1      -1.568  12.754  22.836  0.00  0.00    +0.000 A 
ATOM     26  C   UNL     1      -2.034  13.958  23.552  0.00  0.00    +0.000 C 
ATOM     27  O   UNL     1      -1.474  12.866  21.486  0.00  0.00    +0.000 OA
ATOM     28  C   UNL     1      -1.007  11.678  21.012  0.00  0.00    +0.000 A 
ATOM     29  C   UNL     1      -0.826  11.603  19.545  0.00  0.00    +0.000 C 
ENDBRANCH  20  23
ENDBRANCH   3  19
TORSDOF 7
ENDMDL
