MODEL 1
REMARK VINA RESULT:      -6.9      0.000      0.000
REMARK  Name = 
REMARK  5 active torsions:
REMARK  status: ('A' for Active; 'I' for Inactive)
REMARK    1  A    between atoms: C_1  and  C_2
REMARK    2  A    between atoms: C_5  and  C_6
REMARK    3  A    between atoms: C_5  and  C_7
REMARK    4  A    between atoms: C_11  and  C_12
REMARK    5  A    between atoms: C_12  and  O_14
REMARK                            x       y       z     vdW  Elec       q    Type
REMARK                         _______ _______ _______ _____ _____    ______ ____
ROOT
ATOM      1  C   UNL     1       5.968   4.019  15.934  0.00  0.00    +0.000 C 
ATOM      2  C   UNL     1       5.257   4.934  16.857  0.00  0.00    +0.000 C 
ATOM      3  C   UNL     1       4.603   4.746  18.020  0.00  0.00    +0.000 C 
ATOM      4  C   UNL     1       4.415   3.416  18.673  0.00  0.00    +0.000 C 
ATOM      5  C   UNL     1       3.035   2.782  18.381  0.00  0.00    +0.000 C 
ATOM      6  C   UNL     1       3.122   1.293  18.805  0.00  0.00    +0.000 C 
ATOM      7  C   UNL     1       2.701   2.798  16.872  0.00  0.00    +0.000 C 
ATOM      8  C   UNL     1       1.868   3.405  19.171  0.00  0.00    +0.000 C 
ATOM      9  C   UNL     1       1.792   4.875  19.456  0.00  0.00    +0.000 C 
ATOM     10  C   UNL     1       2.574   5.262  20.688  0.00  0.00    +0.000 C 
ATOM     11  C   UNL     1       2.769   6.073  19.415  0.00  0.00    +0.000 C 
ATOM     12  C   UNL     1       4.082   6.021  18.640  0.00  0.00    +0.000 C 
ATOM     13  C   UNL     1       4.079   6.988  17.439  0.00  0.00    +0.000 C 
ATOM     14  C   UNL     1       5.063   6.353  16.515  0.00  0.00    +0.000 C 
ATOM     15  O   UNL     1       5.588   6.898  15.556  0.00  0.00    +0.000 OA
ENDROOT
BRANCH  11  16
ATOM     16  C   UNL     1       2.162   7.457  19.532  0.00  0.00    +0.000 C 
ATOM     17  O   UNL     1       1.860   8.124  18.560  0.00  0.00    +0.000 OA
BRANCH  16  18
ATOM     18  O   UNL     1       2.018   7.879  20.813  0.00  0.00    +0.000 OA
ATOM     19  H   UNL     1       1.385   8.616  20.904  0.00  0.00    +0.000 HD
ENDBRANCH  16  18
ENDBRANCH  11  16
TORSDOF 2
ENDMDL
MODEL 2
REMARK VINA RESULT:      -6.8      2.624      4.986
REMARK  Name = 
REMARK  5 active torsions:
REMARK  status: ('A' for Active; 'I' for Inactive)
REMARK    1  A    between atoms: C_1  and  C_2
REMARK    2  A    between atoms: C_5  and  C_6
REMARK    3  A    between atoms: C_5  and  C_7
REMARK    4  A    between atoms: C_11  and  C_12
REMARK    5  A    between atoms: C_12  and  O_14
REMARK                            x       y       z     vdW  Elec       q    Type
REMARK                         _______ _______ _______ _____ _____    ______ ____
ROOT
ATOM      1  C   UNL     1       1.856   3.154  20.041  0.00  0.00    +0.000 C 
ATOM      2  C   UNL     1       3.099   3.380  19.267  0.00  0.00    +0.000 C 
ATOM      3  C   UNL     1       3.845   4.475  19.023  0.00  0.00    +0.000 C 
ATOM      4  C   UNL     1       3.515   5.845  19.516  0.00  0.00    +0.000 C 
ATOM      5  C   UNL     1       2.803   6.719  18.458  0.00  0.00    +0.000 C 
ATOM      6  C   UNL     1       2.212   7.943  19.204  0.00  0.00    +0.000 C 
ATOM      7  C   UNL     1       1.614   5.979  17.805  0.00  0.00    +0.000 C 
ATOM      8  C   UNL     1       3.729   7.271  17.357  0.00  0.00    +0.000 C 
ATOM      9  C   UNL     1       4.862   6.467  16.791  0.00  0.00    +0.000 C 
ATOM     10  C   UNL     1       6.115   6.573  17.626  0.00  0.00    +0.000 C 
ATOM     11  C   UNL     1       5.640   5.193  17.195  0.00  0.00    +0.000 C 
ATOM     12  C   UNL     1       5.089   4.196  18.211  0.00  0.00    +0.000 C 
ATOM     13  C   UNL     1       4.753   2.839  17.560  0.00  0.00    +0.000 C 
ATOM     14  C   UNL     1       3.702   2.299  18.471  0.00  0.00    +0.000 C 
ATOM     15  O   UNL     1       3.328   1.137  18.509  0.00  0.00    +0.000 OA
ENDROOT
BRANCH  11  16
ATOM     16  C   UNL     1       6.552   4.585  16.149  0.00  0.00    +0.000 C 
ATOM     17  O   UNL     1       6.154   4.245  15.051  0.00  0.00    +0.000 OA
BRANCH  16  18
ATOM     18  O   UNL     1       7.834   4.439  16.567  0.00  0.00    +0.000 OA
ATOM     19  H   UNL     1       8.293   5.290  16.696  0.00  0.00    +0.000 HD
ENDBRANCH  16  18
ENDBRANCH  11  16
TORSDOF 2
ENDMDL
MODEL 3
REMARK VINA RESULT:      -6.8      1.172      1.183
REMARK  Name = 
REMARK  5 active torsions:
REMARK  status: ('A' for Active; 'I' for Inactive)
REMARK    1  A    between atoms: C_1  and  C_2
REMARK    2  A    between atoms: C_5  and  C_6
REMARK    3  A    between atoms: C_5  and  C_7
REMARK    4  A    between atoms: C_11  and  C_12
REMARK    5  A    between atoms: C_12  and  O_14
REMARK                            x       y       z     vdW  Elec       q    Type
REMARK                         _______ _______ _______ _____ _____    ______ ____
ROOT
ATOM      1  C   UNL     1       7.404   4.441  17.278  0.00  0.00    +0.000 C 
ATOM      2  C   UNL     1       6.304   5.314  17.750  0.00  0.00    +0.000 C 
ATOM      3  C   UNL     1       5.179   5.079  18.454  0.00  0.00    +0.000 C 
ATOM      4  C   UNL     1       4.750   3.730  18.928  0.00  0.00    +0.000 C 
ATOM      5  C   UNL     1       3.704   3.063  18.004  0.00  0.00    +0.000 C 
ATOM      6  C   UNL     1       3.632   1.567  18.408  0.00  0.00    +0.000 C 
ATOM      7  C   UNL     1       4.137   3.104  16.521  0.00  0.00    +0.000 C 
ATOM      8  C   UNL     1       2.279   3.632  18.138  0.00  0.00    +0.000 C 
ATOM      9  C   UNL     1       2.021   5.093  18.360  0.00  0.00    +0.000 C 
ATOM     10  C   UNL     1       2.099   5.474  19.818  0.00  0.00    +0.000 C 
ATOM     11  C   UNL     1       2.852   6.319  18.802  0.00  0.00    +0.000 C 
ATOM     12  C   UNL     1       4.377   6.323  18.755  0.00  0.00    +0.000 C 
ATOM     13  C   UNL     1       4.916   7.318  17.706  0.00  0.00    +0.000 C 
ATOM     14  C   UNL     1       6.246   6.734  17.366  0.00  0.00    +0.000 C 
ATOM     15  O   UNL     1       7.147   7.317  16.781  0.00  0.00    +0.000 OA
ENDROOT
BRANCH  11  16
ATOM     16  C   UNL     1       2.213   7.682  18.621  0.00  0.00    +0.000 C 
ATOM     17  O   UNL     1       2.078   8.201  17.529  0.00  0.00    +0.000 OA
BRANCH  16  18
ATOM     18  O   UNL     1       1.837   8.264  19.787  0.00  0.00    +0.000 OA
ATOM     19  H   UNL     1       1.628   9.211  19.691  0.00  0.00    +0.000 HD
ENDBRANCH  16  18
ENDBRANCH  11  16
TORSDOF 2
ENDMDL
MODEL 4
REMARK VINA RESULT:      -6.7      2.623      5.163
REMARK  Name = 
REMARK  5 active torsions:
REMARK  status: ('A' for Active; 'I' for Inactive)
REMARK    1  A    between atoms: C_1  and  C_2
REMARK    2  A    between atoms: C_5  and  C_6
REMARK    3  A    between atoms: C_5  and  C_7
REMARK    4  A    between atoms: C_11  and  C_12
REMARK    5  A    between atoms: C_12  and  O_14
REMARK                            x       y       z     vdW  Elec       q    Type
REMARK                         _______ _______ _______ _____ _____    ______ ____
ROOT
ATOM      1  C   UNL     1       1.514   4.519  20.804  0.00  0.00    +0.000 C 
ATOM      2  C   UNL     1       2.873   4.477  20.214  0.00  0.00    +0.000 C 
ATOM      3  C   UNL     1       3.656   5.409  19.637  0.00  0.00    +0.000 C 
ATOM      4  C   UNL     1       3.253   6.830  19.422  0.00  0.00    +0.000 C 
ATOM      5  C   UNL     1       2.738   7.109  17.991  0.00  0.00    +0.000 C 
ATOM      6  C   UNL     1       2.034   8.490  18.024  0.00  0.00    +0.000 C 
ATOM      7  C   UNL     1       1.675   6.077  17.550  0.00  0.00    +0.000 C 
ATOM      8  C   UNL     1       3.843   7.195  16.921  0.00  0.00    +0.000 C 
ATOM      9  C   UNL     1       5.051   6.308  16.949  0.00  0.00    +0.000 C 
ATOM     10  C   UNL     1       6.143   6.852  17.838  0.00  0.00    +0.000 C 
ATOM     11  C   UNL     1       5.742   5.392  17.986  0.00  0.00    +0.000 C 
ATOM     12  C   UNL     1       5.019   4.896  19.235  0.00  0.00    +0.000 C 
ATOM     13  C   UNL     1       4.794   3.370  19.200  0.00  0.00    +0.000 C 
ATOM     14  C   UNL     1       3.598   3.203  20.077  0.00  0.00    +0.000 C 
ATOM     15  O   UNL     1       3.217   2.148  20.561  0.00  0.00    +0.000 OA
ENDROOT
BRANCH  11  16
ATOM     16  C   UNL     1       6.818   4.458  17.469  0.00  0.00    +0.000 C 
ATOM     17  O   UNL     1       7.916   4.375  17.986  0.00  0.00    +0.000 OA
BRANCH  16  18
ATOM     18  O   UNL     1       6.443   3.756  16.371  0.00  0.00    +0.000 OA
ATOM     19  H   UNL     1       6.065   2.883  16.586  0.00  0.00    +0.000 HD
ENDBRANCH  16  18
ENDBRANCH  11  16
TORSDOF 2
ENDMDL
MODEL 5
REMARK VINA RESULT:      -6.6      1.748      3.891
REMARK  Name = 
REMARK  5 active torsions:
REMARK  status: ('A' for Active; 'I' for Inactive)
REMARK    1  A    between atoms: C_1  and  C_2
REMARK    2  A    between atoms: C_5  and  C_6
REMARK    3  A    between atoms: C_5  and  C_7
REMARK    4  A    between atoms: C_11  and  C_12
REMARK    5  A    between atoms: C_12  and  O_14
REMARK                            x       y       z     vdW  Elec       q    Type
REMARK                         _______ _______ _______ _____ _____    ______ ____
ROOT
ATOM      1  C   UNL     1       2.596   1.788  19.017  0.00  0.00    +0.000 C 
ATOM      2  C   UNL     1       2.202   3.209  19.159  0.00  0.00    +0.000 C 
ATOM      3  C   UNL     1       2.427   4.306  18.411  0.00  0.00    +0.000 C 
ATOM      4  C   UNL     1       3.241   4.319  17.159  0.00  0.00    +0.000 C 
ATOM      5  C   UNL     1       4.696   4.794  17.382  0.00  0.00    +0.000 C 
ATOM      6  C   UNL     1       5.496   4.415  16.109  0.00  0.00    +0.000 C 
ATOM      7  C   UNL     1       5.366   4.060  18.565  0.00  0.00    +0.000 C 
ATOM      8  C   UNL     1       4.848   6.315  17.570  0.00  0.00    +0.000 C 
ATOM      9  C   UNL     1       3.840   7.131  18.325  0.00  0.00    +0.000 C 
ATOM     10  C   UNL     1       2.678   7.552  17.459  0.00  0.00    +0.000 C 
ATOM     11  C   UNL     1       2.388   6.935  18.818  0.00  0.00    +0.000 C 
ATOM     12  C   UNL     1       1.754   5.552  18.938  0.00  0.00    +0.000 C 
ATOM     13  C   UNL     1       1.475   5.173  20.407  0.00  0.00    +0.000 C 
ATOM     14  C   UNL     1       1.497   3.682  20.362  0.00  0.00    +0.000 C 
ATOM     15  O   UNL     1       1.063   2.941  21.231  0.00  0.00    +0.000 OA
ENDROOT
BRANCH  11  16
ATOM     16  C   UNL     1       1.852   7.960  19.799  0.00  0.00    +0.000 C 
ATOM     17  O   UNL     1       1.235   8.945  19.442  0.00  0.00    +0.000 OA
BRANCH  16  18
ATOM     18  O   UNL     1       2.151   7.681  21.092  0.00  0.00    +0.000 OA
ATOM     19  H   UNL     1       2.718   8.357  21.507  0.00  0.00    +0.000 HD
ENDBRANCH  16  18
ENDBRANCH  11  16
TORSDOF 2
ENDMDL
MODEL 6
REMARK VINA RESULT:      -6.4      1.596      3.861
REMARK  Name = 
REMARK  5 active torsions:
REMARK  status: ('A' for Active; 'I' for Inactive)
REMARK    1  A    between atoms: C_1  and  C_2
REMARK    2  A    between atoms: C_5  and  C_6
REMARK    3  A    between atoms: C_5  and  C_7
REMARK    4  A    between atoms: C_11  and  C_12
REMARK    5  A    between atoms: C_12  and  O_14
REMARK                            x       y       z     vdW  Elec       q    Type
REMARK                         _______ _______ _______ _____ _____    ______ ____
ROOT
ATOM      1  C   UNL     1       3.470   1.644  18.301  0.00  0.00    +0.000 C 
ATOM      2  C   UNL     1       2.974   3.040  18.323  0.00  0.00    +0.000 C 
ATOM      3  C   UNL     1       3.342   4.159  17.669  0.00  0.00    +0.000 C 
ATOM      4  C   UNL     1       4.478   4.233  16.703  0.00  0.00    +0.000 C 
ATOM      5  C   UNL     1       5.780   4.781  17.332  0.00  0.00    +0.000 C 
ATOM      6  C   UNL     1       6.930   4.465  16.341  0.00  0.00    +0.000 C 
ATOM      7  C   UNL     1       6.124   4.066  18.658  0.00  0.00    +0.000 C 
ATOM      8  C   UNL     1       5.789   6.306  17.554  0.00  0.00    +0.000 C 
ATOM      9  C   UNL     1       4.564   7.055  17.989  0.00  0.00    +0.000 C 
ATOM     10  C   UNL     1       3.676   7.427  16.826  0.00  0.00    +0.000 C 
ATOM     11  C   UNL     1       3.045   6.775  18.047  0.00  0.00    +0.000 C 
ATOM     12  C   UNL     1       2.479   5.359  17.981  0.00  0.00    +0.000 C 
ATOM     13  C   UNL     1       1.814   4.944  19.309  0.00  0.00    +0.000 C 
ATOM     14  C   UNL     1       1.930   3.457  19.273  0.00  0.00    +0.000 C 
ATOM     15  O   UNL     1       1.307   2.681  19.982  0.00  0.00    +0.000 OA
ENDROOT
BRANCH  11  16
ATOM     16  C   UNL     1       2.196   7.755  18.832  0.00  0.00    +0.000 C 
ATOM     17  O   UNL     1       2.158   7.760  20.048  0.00  0.00    +0.000 OA
BRANCH  16  18
ATOM     18  O   UNL     1       1.474   8.596  18.049  0.00  0.00    +0.000 OA
ATOM     19  H   UNL     1       1.889   8.760  17.182  0.00  0.00    +0.000 HD
ENDBRANCH  16  18
ENDBRANCH  11  16
TORSDOF 2
ENDMDL
MODEL 7
REMARK VINA RESULT:      -6.4      2.546      4.853
REMARK  Name = 
REMARK  5 active torsions:
REMARK  status: ('A' for Active; 'I' for Inactive)
REMARK    1  A    between atoms: C_1  and  C_2
REMARK    2  A    between atoms: C_5  and  C_6
REMARK    3  A    between atoms: C_5  and  C_7
REMARK    4  A    between atoms: C_11  and  C_12
REMARK    5  A    between atoms: C_12  and  O_14
REMARK                            x       y       z     vdW  Elec       q    Type
REMARK                         _______ _______ _______ _____ _____    ______ ____
ROOT
ATOM      1  C   UNL     1       2.208   3.842  17.407  0.00  0.00    +0.000 C 
ATOM      2  C   UNL     1       3.403   4.544  17.931  0.00  0.00    +0.000 C 
ATOM      3  C   UNL     1       4.439   5.166  17.337  0.00  0.00    +0.000 C 
ATOM      4  C   UNL     1       4.632   5.256  15.859  0.00  0.00    +0.000 C 
ATOM      5  C   UNL     1       5.610   4.194  15.305  0.00  0.00    +0.000 C 
ATOM      6  C   UNL     1       5.431   4.172  13.764  0.00  0.00    +0.000 C 
ATOM      7  C   UNL     1       5.267   2.775  15.813  0.00  0.00    +0.000 C 
ATOM      8  C   UNL     1       7.096   4.491  15.579  0.00  0.00    +0.000 C 
ATOM      9  C   UNL     1       7.563   5.108  16.864  0.00  0.00    +0.000 C 
ATOM     10  C   UNL     1       7.467   6.614  16.846  0.00  0.00    +0.000 C 
ATOM     11  C   UNL     1       6.908   5.862  18.044  0.00  0.00    +0.000 C 
ATOM     12  C   UNL     1       5.405   5.804  18.307  0.00  0.00    +0.000 C 
ATOM     13  C   UNL     1       5.081   5.064  19.621  0.00  0.00    +0.000 C 
ATOM     14  C   UNL     1       3.697   4.565  19.373  0.00  0.00    +0.000 C 
ATOM     15  O   UNL     1       2.928   4.155  20.230  0.00  0.00    +0.000 OA
ENDROOT
BRANCH  11  16
ATOM     16  C   UNL     1       7.756   6.068  19.283  0.00  0.00    +0.000 C 
ATOM     17  O   UNL     1       7.707   5.319  20.241  0.00  0.00    +0.000 OA
BRANCH  16  18
ATOM     18  O   UNL     1       8.544   7.170  19.224  0.00  0.00    +0.000 OA
ATOM     19  H   UNL     1       8.815   7.397  18.315  0.00  0.00    +0.000 HD
ENDBRANCH  16  18
ENDBRANCH  11  16
TORSDOF 2
ENDMDL
MODEL 8
REMARK VINA RESULT:      -6.3      2.602      4.211
REMARK  Name = 
REMARK  5 active torsions:
REMARK  status: ('A' for Active; 'I' for Inactive)
REMARK    1  A    between atoms: C_1  and  C_2
REMARK    2  A    between atoms: C_5  and  C_6
REMARK    3  A    between atoms: C_5  and  C_7
REMARK    4  A    between atoms: C_11  and  C_12
REMARK    5  A    between atoms: C_12  and  O_14
REMARK                            x       y       z     vdW  Elec       q    Type
REMARK                         _______ _______ _______ _____ _____    ______ ____
ROOT
ATOM      1  C   UNL     1       7.777   5.343  14.251  0.00  0.00    +0.000 C 
ATOM      2  C   UNL     1       6.466   5.050  14.875  0.00  0.00    +0.000 C 
ATOM      3  C   UNL     1       5.870   5.473  16.007  0.00  0.00    +0.000 C 
ATOM      4  C   UNL     1       6.496   6.406  16.990  0.00  0.00    +0.000 C 
ATOM      5  C   UNL     1       7.133   5.681  18.199  0.00  0.00    +0.000 C 
ATOM      6  C   UNL     1       8.036   6.714  18.922  0.00  0.00    +0.000 C 
ATOM      7  C   UNL     1       8.051   4.520  17.756  0.00  0.00    +0.000 C 
ATOM      8  C   UNL     1       6.120   5.166  19.239  0.00  0.00    +0.000 C 
ATOM      9  C   UNL     1       4.791   4.595  18.844  0.00  0.00    +0.000 C 
ATOM     10  C   UNL     1       3.744   5.663  18.643  0.00  0.00    +0.000 C 
ATOM     11  C   UNL     1       3.909   4.593  17.574  0.00  0.00    +0.000 C 
ATOM     12  C   UNL     1       4.471   4.934  16.197  0.00  0.00    +0.000 C 
ATOM     13  C   UNL     1       4.463   3.712  15.255  0.00  0.00    +0.000 C 
ATOM     14  C   UNL     1       5.565   4.037  14.302  0.00  0.00    +0.000 C 
ATOM     15  O   UNL     1       5.751   3.493  13.224  0.00  0.00    +0.000 OA
ENDROOT
BRANCH  11  16
ATOM     16  C   UNL     1       2.736   3.633  17.555  0.00  0.00    +0.000 C 
ATOM     17  O   UNL     1       2.869   2.435  17.718  0.00  0.00    +0.000 OA
BRANCH  16  18
ATOM     18  O   UNL     1       1.545   4.236  17.314  0.00  0.00    +0.000 OA
ATOM     19  H   UNL     1       1.624   5.022  16.742  0.00  0.00    +0.000 HD
ENDBRANCH  16  18
ENDBRANCH  11  16
TORSDOF 2
ENDMDL
MODEL 9
REMARK VINA RESULT:      -6.3      1.051      4.068
REMARK  Name = 
REMARK  5 active torsions:
REMARK  status: ('A' for Active; 'I' for Inactive)
REMARK    1  A    between atoms: C_1  and  C_2
REMARK    2  A    between atoms: C_5  and  C_6
REMARK    3  A    between atoms: C_5  and  C_7
REMARK    4  A    between atoms: C_11  and  C_12
REMARK    5  A    between atoms: C_12  and  O_14
REMARK                            x       y       z     vdW  Elec       q    Type
REMARK                         _______ _______ _______ _____ _____    ______ ____
ROOT
ATOM      1  C   UNL     1       1.189   4.928  20.513  0.00  0.00    +0.000 C 
ATOM      2  C   UNL     1       2.027   5.457  19.412  0.00  0.00    +0.000 C 
ATOM      3  C   UNL     1       2.627   4.881  18.353  0.00  0.00    +0.000 C 
ATOM      4  C   UNL     1       2.590   3.417  18.059  0.00  0.00    +0.000 C 
ATOM      5  C   UNL     1       3.854   2.666  18.539  0.00  0.00    +0.000 C 
ATOM      6  C   UNL     1       3.524   1.151  18.500  0.00  0.00    +0.000 C 
ATOM      7  C   UNL     1       4.205   3.008  20.005  0.00  0.00    +0.000 C 
ATOM      8  C   UNL     1       5.097   2.876  17.653  0.00  0.00    +0.000 C 
ATOM      9  C   UNL     1       5.405   4.197  17.011  0.00  0.00    +0.000 C 
ATOM     10  C   UNL     1       4.680   4.380  15.700  0.00  0.00    +0.000 C 
ATOM     11  C   UNL     1       4.634   5.505  16.723  0.00  0.00    +0.000 C 
ATOM     12  C   UNL     1       3.339   5.859  17.448  0.00  0.00    +0.000 C 
ATOM     13  C   UNL     1       3.512   7.085  18.368  0.00  0.00    +0.000 C 
ATOM     14  C   UNL     1       2.450   6.867  19.393  0.00  0.00    +0.000 C 
ATOM     15  O   UNL     1       2.032   7.713  20.170  0.00  0.00    +0.000 OA
ENDROOT
BRANCH  11  16
ATOM     16  C   UNL     1       5.454   6.701  16.280  0.00  0.00    +0.000 C 
ATOM     17  O   UNL     1       6.339   7.177  16.965  0.00  0.00    +0.000 OA
BRANCH  16  18
ATOM     18  O   UNL     1       5.086   7.194  15.072  0.00  0.00    +0.000 OA
ATOM     19  H   UNL     1       5.062   8.168  15.047  0.00  0.00    +0.000 HD
ENDBRANCH  16  18
ENDBRANCH  11  16
TORSDOF 2
ENDMDL
