MODEL 1
REMARK VINA RESULT:      -8.0      0.000      0.000
REMARK  Name = 
REMARK  13 active torsions:
REMARK  status: ('A' for Active; 'I' for Inactive)
REMARK    1  A    between atoms: C_1  and  C_2
REMARK    2  A    between atoms: C_2  and  C_3
REMARK    3  A    between atoms: C_3  and  C_4
REMARK    4  A    between atoms: C_4  and  N_5
REMARK    5  A    between atoms: N_5  and  C_6
REMARK    6  A    between atoms: C_13  and  C_14
REMARK    7  A    between atoms: C_14  and  C_15
REMARK    8  A    between atoms: C_15  and  C_16
REMARK    9  A    between atoms: C_18  and  C_19
REMARK   10  A    between atoms: C_21  and  O_22
REMARK   11  A    between atoms: O_22  and  C_23
REMARK   12  A    between atoms: C_25  and  O_26
REMARK   13  A    between atoms: O_26  and  C_27
REMARK                            x       y       z     vdW  Elec       q    Type
REMARK                         _______ _______ _______ _____ _____    ______ ____
ROOT
ATOM      1  C   UNL     1       4.984   5.823  16.401  0.00  0.00    +0.000 C 
ENDROOT
BRANCH   1  10
ATOM      2  N   UNL     1       1.736   7.899  19.999  0.00  0.00    +0.000 N 
ATOM      3  C   UNL     1       1.716   8.915  18.946  0.00  0.00    +0.000 C 
ATOM      4  C   UNL     1       2.322   6.659  19.740  0.00  0.00    +0.000 A 
ATOM      5  C   UNL     1       2.068   5.488  20.654  0.00  0.00    +0.000 A 
ATOM      6  C   UNL     1       2.621   4.302  20.379  0.00  0.00    +0.000 A 
ATOM      7  C   UNL     1       3.448   4.184  19.248  0.00  0.00    +0.000 A 
ATOM      8  N   UNL     1       4.133   3.180  18.747  0.00  0.00    +0.000 NA
ATOM      9  N   UNL     1       4.793   3.642  17.630  0.00  0.00    +0.000 NA
ATOM     10  C   UNL     1       4.487   4.917  17.474  0.00  0.00    +0.000 A 
ATOM     11  N   UNL     1       3.623   5.309  18.475  0.00  0.00    +0.000 N 
ATOM     12  N   UNL     1       3.087   6.548  18.675  0.00  0.00    +0.000 NA
BRANCH   2  13
ATOM     13  C   UNL     1       1.382   8.363  21.342  0.00  0.00    +0.000 C 
BRANCH  13  14
ATOM     14  C   UNL     1      -0.123   8.624  21.448  0.00  0.00    +0.000 C 
BRANCH  14  16
ATOM     15  C   UNL     1       0.181  11.128  21.433  0.00  0.00    +0.000 C 
ATOM     16  C   UNL     1      -0.418   9.939  22.170  0.00  0.00    +0.000 C 
ENDBRANCH  14  16
ENDBRANCH  13  14
ENDBRANCH   2  13
ENDBRANCH   1  10
BRANCH   1  17
ATOM     17  C   UNL     1       6.503   5.766  16.235  0.00  0.00    +0.000 C 
BRANCH  17  18
ATOM     18  C   UNL     1       7.205   6.726  17.118  0.00  0.00    +0.000 A 
ATOM     19  N   UNL     1       7.330   8.025  17.008  0.00  0.00    +0.000 NA
ATOM     20  C   UNL     1       8.106   8.351  18.091  0.00  0.00    +0.000 A 
ATOM     21  N   UNL     1       8.421   7.301  18.870  0.00  0.00    +0.000 NA
ATOM     22  O   UNL     1       7.824   6.218  18.220  0.00  0.00    +0.000 OA
BRANCH  20  23
ATOM     23  C   UNL     1       8.552   9.718  18.323  0.00  0.00    +0.000 A 
ATOM     24  C   UNL     1       7.980  10.774  17.603  0.00  0.00    +0.000 A 
ATOM     25  C   UNL     1       8.428  12.082  17.778  0.00  0.00    +0.000 A 
ATOM     26  C   UNL     1       9.440  12.344  18.701  0.00  0.00    +0.000 A 
ATOM     27  C   UNL     1      10.020  11.300  19.432  0.00  0.00    +0.000 A 
ATOM     28  C   UNL     1       9.573   9.993  19.244  0.00  0.00    +0.000 A 
BRANCH  25  29
ATOM     29  O   UNL     1       7.789  13.022  17.017  0.00  0.00    +0.000 OA
ATOM     30  C   UNL     1       7.435  14.218  17.701  0.00  0.00    +0.000 C 
ENDBRANCH  25  29
BRANCH  27  31
ATOM     31  O   UNL     1      11.017  11.682  20.291  0.00  0.00    +0.000 OA
ATOM     32  C   UNL     1      11.731  12.867  19.954  0.00  0.00    +0.000 C 
ENDBRANCH  27  31
ENDBRANCH  20  23
ENDBRANCH  17  18
ENDBRANCH   1  17
TORSDOF 9
ENDMDL
MODEL 2
REMARK VINA RESULT:      -7.8      1.226      1.413
REMARK  Name = 
REMARK  13 active torsions:
REMARK  status: ('A' for Active; 'I' for Inactive)
REMARK    1  A    between atoms: C_1  and  C_2
REMARK    2  A    between atoms: C_2  and  C_3
REMARK    3  A    between atoms: C_3  and  C_4
REMARK    4  A    between atoms: C_4  and  N_5
REMARK    5  A    between atoms: N_5  and  C_6
REMARK    6  A    between atoms: C_13  and  C_14
REMARK    7  A    between atoms: C_14  and  C_15
REMARK    8  A    between atoms: C_15  and  C_16
REMARK    9  A    between atoms: C_18  and  C_19
REMARK   10  A    between atoms: C_21  and  O_22
REMARK   11  A    between atoms: O_22  and  C_23
REMARK   12  A    between atoms: C_25  and  O_26
REMARK   13  A    between atoms: O_26  and  C_27
REMARK                            x       y       z     vdW  Elec       q    Type
REMARK                         _______ _______ _______ _____ _____    ______ ____
ROOT
ATOM      1  C   UNL     1       5.147   6.447  16.574  0.00  0.00    +0.000 C 
ENDROOT
BRANCH   1  10
ATOM      2  N   UNL     1       1.625   7.987  20.183  0.00  0.00    +0.000 N 
ATOM      3  C   UNL     1       1.573   9.084  19.217  0.00  0.00    +0.000 C 
ATOM      4  C   UNL     1       2.309   6.816  19.850  0.00  0.00    +0.000 A 
ATOM      5  C   UNL     1       2.104   5.558  20.654  0.00  0.00    +0.000 A 
ATOM      6  C   UNL     1       2.751   4.439  20.308  0.00  0.00    +0.000 A 
ATOM      7  C   UNL     1       3.626   4.473  19.209  0.00  0.00    +0.000 A 
ATOM      8  N   UNL     1       4.400   3.565  18.658  0.00  0.00    +0.000 NA
ATOM      9  N   UNL     1       5.067   4.162  17.612  0.00  0.00    +0.000 NA
ATOM     10  C   UNL     1       4.676   5.422  17.547  0.00  0.00    +0.000 A 
ATOM     11  N   UNL     1       3.750   5.669  18.538  0.00  0.00    +0.000 N 
ATOM     12  N   UNL     1       3.119   6.847  18.814  0.00  0.00    +0.000 NA
BRANCH   2  13
ATOM     13  C   UNL     1       1.189   8.312  21.543  0.00  0.00    +0.000 C 
BRANCH  13  14
ATOM     14  C   UNL     1      -0.253   8.828  21.542  0.00  0.00    +0.000 C 
BRANCH  14  16
ATOM     15  C   UNL     1      -0.785  10.974  22.754  0.00  0.00    +0.000 C 
ATOM     16  C   UNL     1      -0.623   9.466  22.881  0.00  0.00    +0.000 C 
ENDBRANCH  14  16
ENDBRANCH  13  14
ENDBRANCH   2  13
ENDBRANCH   1  10
BRANCH   1  17
ATOM     17  C   UNL     1       6.657   6.390  16.338  0.00  0.00    +0.000 C 
BRANCH  17  18
ATOM     18  C   UNL     1       7.415   7.203  17.318  0.00  0.00    +0.000 A 
ATOM     19  N   UNL     1       7.712   8.479  17.291  0.00  0.00    +0.000 NA
ATOM     20  C   UNL     1       8.447   8.645  18.437  0.00  0.00    +0.000 A 
ATOM     21  N   UNL     1       8.570   7.525  19.171  0.00  0.00    +0.000 NA
ATOM     22  O   UNL     1       7.886   6.564  18.424  0.00  0.00    +0.000 OA
BRANCH  20  23
ATOM     23  C   UNL     1       9.048   9.927  18.776  0.00  0.00    +0.000 A 
ATOM     24  C   UNL     1       9.719  10.668  17.794  0.00  0.00    +0.000 A 
ATOM     25  C   UNL     1      10.341  11.874  18.111  0.00  0.00    +0.000 A 
ATOM     26  C   UNL     1      10.271  12.360  19.417  0.00  0.00    +0.000 A 
ATOM     27  C   UNL     1       9.600  11.635  20.409  0.00  0.00    +0.000 A 
ATOM     28  C   UNL     1       8.990  10.423  20.085  0.00  0.00    +0.000 A 
BRANCH  25  29
ATOM     29  O   UNL     1      10.961  12.502  17.066  0.00  0.00    +0.000 OA
ATOM     30  C   UNL     1      11.034  13.919  17.166  0.00  0.00    +0.000 C 
ENDBRANCH  25  29
BRANCH  27  31
ATOM     31  O   UNL     1       9.620  12.206  21.654  0.00  0.00    +0.000 OA
ATOM     32  C   UNL     1       8.657  11.732  22.590  0.00  0.00    +0.000 C 
ENDBRANCH  27  31
ENDBRANCH  20  23
ENDBRANCH  17  18
ENDBRANCH   1  17
TORSDOF 9
ENDMDL
MODEL 3
REMARK VINA RESULT:      -7.5      0.663      2.076
REMARK  Name = 
REMARK  13 active torsions:
REMARK  status: ('A' for Active; 'I' for Inactive)
REMARK    1  A    between atoms: C_1  and  C_2
REMARK    2  A    between atoms: C_2  and  C_3
REMARK    3  A    between atoms: C_3  and  C_4
REMARK    4  A    between atoms: C_4  and  N_5
REMARK    5  A    between atoms: N_5  and  C_6
REMARK    6  A    between atoms: C_13  and  C_14
REMARK    7  A    between atoms: C_14  and  C_15
REMARK    8  A    between atoms: C_15  and  C_16
REMARK    9  A    between atoms: C_18  and  C_19
REMARK   10  A    between atoms: C_21  and  O_22
REMARK   11  A    between atoms: O_22  and  C_23
REMARK   12  A    between atoms: C_25  and  O_26
REMARK   13  A    between atoms: O_26  and  C_27
REMARK                            x       y       z     vdW  Elec       q    Type
REMARK                         _______ _______ _______ _____ _____    ______ ____
ROOT
ATOM      1  C   UNL     1       5.076   5.610  16.400  0.00  0.00    +0.000 C 
ENDROOT
BRANCH   1  10
ATOM      2  N   UNL     1       1.687   8.367  19.353  0.00  0.00    +0.000 N 
ATOM      3  C   UNL     1       1.748   9.167  18.129  0.00  0.00    +0.000 C 
ATOM      4  C   UNL     1       2.259   7.094  19.365  0.00  0.00    +0.000 A 
ATOM      5  C   UNL     1       1.929   6.119  20.466  0.00  0.00    +0.000 A 
ATOM      6  C   UNL     1       2.469   4.896  20.450  0.00  0.00    +0.000 A 
ATOM      7  C   UNL     1       3.352   4.556  19.411  0.00  0.00    +0.000 A 
ATOM      8  N   UNL     1       4.041   3.468  19.147  0.00  0.00    +0.000 NA
ATOM      9  N   UNL     1       4.770   3.703  18.003  0.00  0.00    +0.000 NA
ATOM     10  C   UNL     1       4.502   4.929  17.594  0.00  0.00    +0.000 A 
ATOM     11  N   UNL     1       3.595   5.513  18.452  0.00  0.00    +0.000 N 
ATOM     12  N   UNL     1       3.077   6.774  18.385  0.00  0.00    +0.000 NA
BRANCH   2  13
ATOM     13  C   UNL     1       1.273   9.081  20.562  0.00  0.00    +0.000 C 
BRANCH  13  14
ATOM     14  C   UNL     1       0.351  10.253  20.213  0.00  0.00    +0.000 C 
BRANCH  14  16
ATOM     15  C   UNL     1       0.256  12.765  20.005  0.00  0.00    +0.000 C 
ATOM     16  C   UNL     1       0.926  11.585  20.695  0.00  0.00    +0.000 C 
ENDBRANCH  14  16
ENDBRANCH  13  14
ENDBRANCH   2  13
ENDBRANCH   1  10
BRANCH   1  17
ATOM     17  C   UNL     1       6.602   5.521  16.345  0.00  0.00    +0.000 C 
BRANCH  17  18
ATOM     18  C   UNL     1       7.260   6.549  17.185  0.00  0.00    +0.000 A 
ATOM     19  N   UNL     1       7.337   7.845  17.011  0.00  0.00    +0.000 NA
ATOM     20  C   UNL     1       8.091   8.252  18.083  0.00  0.00    +0.000 A 
ATOM     21  N   UNL     1       8.436   7.254  18.915  0.00  0.00    +0.000 NA
ATOM     22  O   UNL     1       7.887   6.119  18.315  0.00  0.00    +0.000 OA
BRANCH  20  23
ATOM     23  C   UNL     1       8.484   9.644  18.251  0.00  0.00    +0.000 A 
ATOM     24  C   UNL     1       9.474   9.985  19.182  0.00  0.00    +0.000 A 
ATOM     25  C   UNL     1       9.829  11.316  19.390  0.00  0.00    +0.000 A 
ATOM     26  C   UNL     1       9.208  12.318  18.644  0.00  0.00    +0.000 A 
ATOM     27  C   UNL     1       8.220  11.994  17.706  0.00  0.00    +0.000 A 
ATOM     28  C   UNL     1       7.863  10.660  17.511  0.00  0.00    +0.000 A 
BRANCH  25  29
ATOM     29  O   UNL     1      10.808  11.518  20.324  0.00  0.00    +0.000 OA
ATOM     30  C   UNL     1      11.399  12.812  20.314  0.00  0.00    +0.000 C 
ENDBRANCH  25  29
BRANCH  27  31
ATOM     31  O   UNL     1       7.672  13.066  17.053  0.00  0.00    +0.000 OA
ATOM     32  C   UNL     1       7.687  14.311  17.742  0.00  0.00    +0.000 C 
ENDBRANCH  27  31
ENDBRANCH  20  23
ENDBRANCH  17  18
ENDBRANCH   1  17
TORSDOF 9
ENDMDL
MODEL 4
REMARK VINA RESULT:      -7.5      1.627      2.314
REMARK  Name = 
REMARK  13 active torsions:
REMARK  status: ('A' for Active; 'I' for Inactive)
REMARK    1  A    between atoms: C_1  and  C_2
REMARK    2  A    between atoms: C_2  and  C_3
REMARK    3  A    between atoms: C_3  and  C_4
REMARK    4  A    between atoms: C_4  and  N_5
REMARK    5  A    between atoms: N_5  and  C_6
REMARK    6  A    between atoms: C_13  and  C_14
REMARK    7  A    between atoms: C_14  and  C_15
REMARK    8  A    between atoms: C_15  and  C_16
REMARK    9  A    between atoms: C_18  and  C_19
REMARK   10  A    between atoms: C_21  and  O_22
REMARK   11  A    between atoms: O_22  and  C_23
REMARK   12  A    between atoms: C_25  and  O_26
REMARK   13  A    between atoms: O_26  and  C_27
REMARK                            x       y       z     vdW  Elec       q    Type
REMARK                         _______ _______ _______ _____ _____    ______ ____
ROOT
ATOM      1  C   UNL     1       6.440   5.801  17.668  0.00  0.00    +0.000 C 
ENDROOT
BRANCH   1  10
ATOM      2  N   UNL     1       1.864   7.975  19.132  0.00  0.00    +0.000 N 
ATOM      3  C   UNL     1       2.315   8.889  18.082  0.00  0.00    +0.000 C 
ATOM      4  C   UNL     1       2.525   6.758  19.308  0.00  0.00    +0.000 A 
ATOM      5  C   UNL     1       1.897   5.659  20.128  0.00  0.00    +0.000 A 
ATOM      6  C   UNL     1       2.535   4.492  20.268  0.00  0.00    +0.000 A 
ATOM      7  C   UNL     1       3.792   4.327  19.661  0.00  0.00    +0.000 A 
ATOM      8  N   UNL     1       4.648   3.330  19.642  0.00  0.00    +0.000 NA
ATOM      9  N   UNL     1       5.740   3.732  18.906  0.00  0.00    +0.000 NA
ATOM     10  C   UNL     1       5.519   4.965  18.489  0.00  0.00    +0.000 A 
ATOM     11  N   UNL     1       4.285   5.388  18.934  0.00  0.00    +0.000 N 
ATOM     12  N   UNL     1       3.696   6.602  18.730  0.00  0.00    +0.000 NA
BRANCH   2  13
ATOM     13  C   UNL     1       0.922   8.534  20.105  0.00  0.00    +0.000 C 
BRANCH  13  14
ATOM     14  C   UNL     1       1.485   8.432  21.525  0.00  0.00    +0.000 C 
BRANCH  14  16
ATOM     15  C   UNL     1      -0.392   9.332  22.950  0.00  0.00    +0.000 C 
ATOM     16  C   UNL     1       1.006   9.588  22.405  0.00  0.00    +0.000 C 
ENDBRANCH  14  16
ENDBRANCH  13  14
ENDBRANCH   2  13
ENDBRANCH   1  10
BRANCH   1  17
ATOM     17  C   UNL     1       7.728   6.164  18.409  0.00  0.00    +0.000 C 
BRANCH  17  18
ATOM     18  C   UNL     1       8.057   7.604  18.301  0.00  0.00    +0.000 A 
ATOM     19  N   UNL     1       8.872   8.330  19.026  0.00  0.00    +0.000 NA
ATOM     20  C   UNL     1       8.734   9.581  18.479  0.00  0.00    +0.000 A 
ATOM     21  N   UNL     1       7.896   9.626  17.429  0.00  0.00    +0.000 NA
ATOM     22  O   UNL     1       7.441   8.310  17.313  0.00  0.00    +0.000 OA
BRANCH  20  23
ATOM     23  C   UNL     1       9.427  10.734  19.035  0.00  0.00    +0.000 A 
ATOM     24  C   UNL     1       9.239  11.085  20.379  0.00  0.00    +0.000 A 
ATOM     25  C   UNL     1       9.857  12.213  20.914  0.00  0.00    +0.000 A 
ATOM     26  C   UNL     1      10.693  12.987  20.109  0.00  0.00    +0.000 A 
ATOM     27  C   UNL     1      10.895  12.647  18.766  0.00  0.00    +0.000 A 
ATOM     28  C   UNL     1      10.265  11.523  18.235  0.00  0.00    +0.000 A 
BRANCH  25  29
ATOM     29  O   UNL     1       9.594  12.448  22.236  0.00  0.00    +0.000 OA
ATOM     30  C   UNL     1       8.279  12.111  22.663  0.00  0.00    +0.000 C 
ENDBRANCH  25  29
BRANCH  27  31
ATOM     31  O   UNL     1      11.720  13.495  18.075  0.00  0.00    +0.000 OA
ATOM     32  C   UNL     1      11.824  13.283  16.671  0.00  0.00    +0.000 C 
ENDBRANCH  27  31
ENDBRANCH  20  23
ENDBRANCH  17  18
ENDBRANCH   1  17
TORSDOF 9
ENDMDL
MODEL 5
REMARK VINA RESULT:      -7.4      4.989      8.779
REMARK  Name = 
REMARK  13 active torsions:
REMARK  status: ('A' for Active; 'I' for Inactive)
REMARK    1  A    between atoms: C_1  and  C_2
REMARK    2  A    between atoms: C_2  and  C_3
REMARK    3  A    between atoms: C_3  and  C_4
REMARK    4  A    between atoms: C_4  and  N_5
REMARK    5  A    between atoms: N_5  and  C_6
REMARK    6  A    between atoms: C_13  and  C_14
REMARK    7  A    between atoms: C_14  and  C_15
REMARK    8  A    between atoms: C_15  and  C_16
REMARK    9  A    between atoms: C_18  and  C_19
REMARK   10  A    between atoms: C_21  and  O_22
REMARK   11  A    between atoms: O_22  and  C_23
REMARK   12  A    between atoms: C_25  and  O_26
REMARK   13  A    between atoms: O_26  and  C_27
REMARK                            x       y       z     vdW  Elec       q    Type
REMARK                         _______ _______ _______ _____ _____    ______ ____
ROOT
ATOM      1  C   UNL     1      -0.585  10.702  18.952  0.00  0.00    +0.000 C 
ENDROOT
BRANCH   1  10
ATOM      2  N   UNL     1      -4.984  13.044  20.673  0.00  0.00    +0.000 N 
ATOM      3  C   UNL     1      -3.997  13.483  21.661  0.00  0.00    +0.000 C 
ATOM      4  C   UNL     1      -4.549  12.405  19.511  0.00  0.00    +0.000 A 
ATOM      5  C   UNL     1      -5.477  12.247  18.333  0.00  0.00    +0.000 A 
ATOM      6  C   UNL     1      -5.036  11.651  17.220  0.00  0.00    +0.000 A 
ATOM      7  C   UNL     1      -3.718  11.165  17.185  0.00  0.00    +0.000 A 
ATOM      8  N   UNL     1      -3.027  10.529  16.266  0.00  0.00    +0.000 NA
ATOM      9  N   UNL     1      -1.778  10.271  16.786  0.00  0.00    +0.000 NA
ATOM     10  C   UNL     1      -1.738  10.763  18.010  0.00  0.00    +0.000 A 
ATOM     11  N   UNL     1      -2.947  11.354  18.310  0.00  0.00    +0.000 N 
ATOM     12  N   UNL     1      -3.311  11.961  19.476  0.00  0.00    +0.000 NA
BRANCH   2  13
ATOM     13  C   UNL     1      -6.381  13.063  21.113  0.00  0.00    +0.000 C 
BRANCH  13  14
ATOM     14  C   UNL     1      -6.897  14.500  21.222  0.00  0.00    +0.000 C 
BRANCH  14  16
ATOM     15  C   UNL     1      -6.743  15.166  23.650  0.00  0.00    +0.000 C 
ATOM     16  C   UNL     1      -7.667  14.725  22.524  0.00  0.00    +0.000 C 
ENDBRANCH  14  16
ENDBRANCH  13  14
ENDBRANCH   2  13
ENDBRANCH   1  10
BRANCH   1  17
ATOM     17  C   UNL     1       0.764  10.648  18.233  0.00  0.00    +0.000 C 
BRANCH  17  18
ATOM     18  C   UNL     1       1.470   9.364  18.448  0.00  0.00    +0.000 A 
ATOM     19  N   UNL     1       2.139   8.626  17.597  0.00  0.00    +0.000 NA
ATOM     20  C   UNL     1       2.527   7.555  18.361  0.00  0.00    +0.000 A 
ATOM     21  N   UNL     1       2.150   7.640  19.648  0.00  0.00    +0.000 NA
ATOM     22  O   UNL     1       1.442   8.842  19.706  0.00  0.00    +0.000 OA
BRANCH  20  23
ATOM     23  C   UNL     1       3.255   6.433  17.784  0.00  0.00    +0.000 A 
ATOM     24  C   UNL     1       4.430   6.661  17.055  0.00  0.00    +0.000 A 
ATOM     25  C   UNL     1       5.113   5.605  16.456  0.00  0.00    +0.000 A 
ATOM     26  C   UNL     1       4.635   4.303  16.606  0.00  0.00    +0.000 A 
ATOM     27  C   UNL     1       3.465   4.058  17.335  0.00  0.00    +0.000 A 
ATOM     28  C   UNL     1       2.781   5.121  17.923  0.00  0.00    +0.000 A 
BRANCH  25  29
ATOM     29  O   UNL     1       6.246   5.957  15.773  0.00  0.00    +0.000 OA
ATOM     30  C   UNL     1       7.071   4.872  15.366  0.00  0.00    +0.000 C 
ENDBRANCH  25  29
BRANCH  27  31
ATOM     31  O   UNL     1       3.086   2.742  17.393  0.00  0.00    +0.000 OA
ATOM     32  C   UNL     1       3.331   2.060  18.618  0.00  0.00    +0.000 C 
ENDBRANCH  27  31
ENDBRANCH  20  23
ENDBRANCH  17  18
ENDBRANCH   1  17
TORSDOF 9
ENDMDL
MODEL 6
REMARK VINA RESULT:      -7.3      4.471      7.713
REMARK  Name = 
REMARK  13 active torsions:
REMARK  status: ('A' for Active; 'I' for Inactive)
REMARK    1  A    between atoms: C_1  and  C_2
REMARK    2  A    between atoms: C_2  and  C_3
REMARK    3  A    between atoms: C_3  and  C_4
REMARK    4  A    between atoms: C_4  and  N_5
REMARK    5  A    between atoms: N_5  and  C_6
REMARK    6  A    between atoms: C_13  and  C_14
REMARK    7  A    between atoms: C_14  and  C_15
REMARK    8  A    between atoms: C_15  and  C_16
REMARK    9  A    between atoms: C_18  and  C_19
REMARK   10  A    between atoms: C_21  and  O_22
REMARK   11  A    between atoms: O_22  and  C_23
REMARK   12  A    between atoms: C_25  and  O_26
REMARK   13  A    between atoms: O_26  and  C_27
REMARK                            x       y       z     vdW  Elec       q    Type
REMARK                         _______ _______ _______ _____ _____    ______ ____
ROOT
ATOM      1  C   UNL     1       1.393   5.373  20.726  0.00  0.00    +0.000 C 
ENDROOT
BRANCH   1  10
ATOM      2  N   UNL     1       5.951   4.477  18.230  0.00  0.00    +0.000 N 
ATOM      3  C   UNL     1       6.343   5.463  19.239  0.00  0.00    +0.000 C 
ATOM      4  C   UNL     1       4.691   3.883  18.310  0.00  0.00    +0.000 A 
ATOM      5  C   UNL     1       4.380   2.640  17.515  0.00  0.00    +0.000 A 
ATOM      6  C   UNL     1       3.174   2.072  17.621  0.00  0.00    +0.000 A 
ATOM      7  C   UNL     1       2.215   2.664  18.459  0.00  0.00    +0.000 A 
ATOM      8  N   UNL     1       0.968   2.358  18.741  0.00  0.00    +0.000 NA
ATOM      9  N   UNL     1       0.492   3.310  19.615  0.00  0.00    +0.000 NA
ATOM     10  C   UNL     1       1.465   4.171  19.848  0.00  0.00    +0.000 A 
ATOM     11  N   UNL     1       2.590   3.798  19.143  0.00  0.00    +0.000 N 
ATOM     12  N   UNL     1       3.798   4.432  19.105  0.00  0.00    +0.000 NA
BRANCH   2  13
ATOM     13  C   UNL     1       6.812   4.396  17.048  0.00  0.00    +0.000 C 
BRANCH  13  14
ATOM     14  C   UNL     1       6.594   5.604  16.134  0.00  0.00    +0.000 C 
BRANCH  14  16
ATOM     15  C   UNL     1       6.122   3.820  14.415  0.00  0.00    +0.000 C 
ATOM     16  C   UNL     1       5.794   5.229  14.885  0.00  0.00    +0.000 C 
ENDBRANCH  14  16
ENDBRANCH  13  14
ENDBRANCH   2  13
ENDBRANCH   1  10
BRANCH   1  17
ATOM     17  C   UNL     1       2.540   6.355  20.480  0.00  0.00    +0.000 C 
BRANCH  17  18
ATOM     18  C   UNL     1       2.138   7.494  19.624  0.00  0.00    +0.000 A 
ATOM     19  N   UNL     1       1.411   8.544  19.919  0.00  0.00    +0.000 NA
ATOM     20  C   UNL     1       1.354   9.220  18.727  0.00  0.00    +0.000 A 
ATOM     21  N   UNL     1       2.052   8.636  17.737  0.00  0.00    +0.000 NA
ATOM     22  O   UNL     1       2.570   7.485  18.332  0.00  0.00    +0.000 OA
BRANCH  20  23
ATOM     23  C   UNL     1       0.574  10.441  18.581  0.00  0.00    +0.000 A 
ATOM     24  C   UNL     1       1.153  11.682  18.877  0.00  0.00    +0.000 A 
ATOM     25  C   UNL     1       0.406  12.856  18.790  0.00  0.00    +0.000 A 
ATOM     26  C   UNL     1      -0.925  12.795  18.377  0.00  0.00    +0.000 A 
ATOM     27  C   UNL     1      -1.517  11.563  18.074  0.00  0.00    +0.000 A 
ATOM     28  C   UNL     1      -0.767  10.392  18.174  0.00  0.00    +0.000 A 
BRANCH  25  29
ATOM     29  O   UNL     1       1.085  14.002  19.103  0.00  0.00    +0.000 OA
ATOM     30  C   UNL     1       1.586  14.065  20.433  0.00  0.00    +0.000 C 
ENDBRANCH  25  29
BRANCH  27  31
ATOM     31  O   UNL     1      -2.834  11.632  17.702  0.00  0.00    +0.000 OA
ATOM     32  C   UNL     1      -3.786  11.791  18.748  0.00  0.00    +0.000 C 
ENDBRANCH  27  31
ENDBRANCH  20  23
ENDBRANCH  17  18
ENDBRANCH   1  17
TORSDOF 9
ENDMDL
MODEL 7
REMARK VINA RESULT:      -7.3      1.576      2.081
REMARK  Name = 
REMARK  13 active torsions:
REMARK  status: ('A' for Active; 'I' for Inactive)
REMARK    1  A    between atoms: C_1  and  C_2
REMARK    2  A    between atoms: C_2  and  C_3
REMARK    3  A    between atoms: C_3  and  C_4
REMARK    4  A    between atoms: C_4  and  N_5
REMARK    5  A    between atoms: N_5  and  C_6
REMARK    6  A    between atoms: C_13  and  C_14
REMARK    7  A    between atoms: C_14  and  C_15
REMARK    8  A    between atoms: C_15  and  C_16
REMARK    9  A    between atoms: C_18  and  C_19
REMARK   10  A    between atoms: C_21  and  O_22
REMARK   11  A    between atoms: O_22  and  C_23
REMARK   12  A    between atoms: C_25  and  O_26
REMARK   13  A    between atoms: O_26  and  C_27
REMARK                            x       y       z     vdW  Elec       q    Type
REMARK                         _______ _______ _______ _____ _____    ______ ____
ROOT
ATOM      1  C   UNL     1       6.283   5.622  17.677  0.00  0.00    +0.000 C 
ENDROOT
BRANCH   1  10
ATOM      2  N   UNL     1       1.804   7.749  19.471  0.00  0.00    +0.000 N 
ATOM      3  C   UNL     1       2.171   8.670  18.395  0.00  0.00    +0.000 C 
ATOM      4  C   UNL     1       2.487   6.538  19.595  0.00  0.00    +0.000 A 
ATOM      5  C   UNL     1       1.929   5.431  20.453  0.00  0.00    +0.000 A 
ATOM      6  C   UNL     1       2.586   4.269  20.544  0.00  0.00    +0.000 A 
ATOM      7  C   UNL     1       3.797   4.118  19.848  0.00  0.00    +0.000 A 
ATOM      8  N   UNL     1       4.659   3.129  19.764  0.00  0.00    +0.000 NA
ATOM      9  N   UNL     1       5.693   3.543  18.954  0.00  0.00    +0.000 NA
ATOM     10  C   UNL     1       5.431   4.774  18.558  0.00  0.00    +0.000 A 
ATOM     11  N   UNL     1       4.228   5.185  19.092  0.00  0.00    +0.000 N 
ATOM     12  N   UNL     1       3.615   6.394  18.934  0.00  0.00    +0.000 NA
BRANCH   2  13
ATOM     13  C   UNL     1       0.930   8.297  20.510  0.00  0.00    +0.000 C 
BRANCH  13  14
ATOM     14  C   UNL     1       1.753   8.855  21.674  0.00  0.00    +0.000 C 
BRANCH  14  16
ATOM     15  C   UNL     1      -0.594   9.069  22.571  0.00  0.00    +0.000 C 
ATOM     16  C   UNL     1       0.860   9.480  22.747  0.00  0.00    +0.000 C 
ENDBRANCH  14  16
ENDBRANCH  13  14
ENDBRANCH   2  13
ENDBRANCH   1  10
BRANCH   1  17
ATOM     17  C   UNL     1       7.643   5.943  18.300  0.00  0.00    +0.000 C 
BRANCH  17  18
ATOM     18  C   UNL     1       7.982   7.382  18.209  0.00  0.00    +0.000 A 
ATOM     19  N   UNL     1       8.669   8.131  19.036  0.00  0.00    +0.000 NA
ATOM     20  C   UNL     1       8.617   9.367  18.442  0.00  0.00    +0.000 A 
ATOM     21  N   UNL     1       7.958   9.380  17.270  0.00  0.00    +0.000 NA
ATOM     22  O   UNL     1       7.532   8.059  17.116  0.00  0.00    +0.000 OA
BRANCH  20  23
ATOM     23  C   UNL     1       9.210  10.538  19.072  0.00  0.00    +0.000 A 
ATOM     24  C   UNL     1       9.995  11.418  18.315  0.00  0.00    +0.000 A 
ATOM     25  C   UNL     1      10.609  12.518  18.911  0.00  0.00    +0.000 A 
ATOM     26  C   UNL     1      10.417  12.759  20.272  0.00  0.00    +0.000 A 
ATOM     27  C   UNL     1       9.632  11.891  21.041  0.00  0.00    +0.000 A 
ATOM     28  C   UNL     1       9.029  10.787  20.439  0.00  0.00    +0.000 A 
BRANCH  25  29
ATOM     29  O   UNL     1      11.348  13.301  18.067  0.00  0.00    +0.000 OA
ATOM     30  C   UNL     1      11.807  12.654  16.886  0.00  0.00    +0.000 C 
ENDBRANCH  25  29
BRANCH  27  31
ATOM     31  O   UNL     1       9.536  12.223  22.367  0.00  0.00    +0.000 OA
ATOM     32  C   UNL     1       8.298  11.938  23.010  0.00  0.00    +0.000 C 
ENDBRANCH  27  31
ENDBRANCH  20  23
ENDBRANCH  17  18
ENDBRANCH   1  17
TORSDOF 9
ENDMDL
MODEL 8
REMARK VINA RESULT:      -7.3      4.952      9.589
REMARK  Name = 
REMARK  13 active torsions:
REMARK  status: ('A' for Active; 'I' for Inactive)
REMARK    1  A    between atoms: C_1  and  C_2
REMARK    2  A    between atoms: C_2  and  C_3
REMARK    3  A    between atoms: C_3  and  C_4
REMARK    4  A    between atoms: C_4  and  N_5
REMARK    5  A    between atoms: N_5  and  C_6
REMARK    6  A    between atoms: C_13  and  C_14
REMARK    7  A    between atoms: C_14  and  C_15
REMARK    8  A    between atoms: C_15  and  C_16
REMARK    9  A    between atoms: C_18  and  C_19
REMARK   10  A    between atoms: C_21  and  O_22
REMARK   11  A    between atoms: O_22  and  C_23
REMARK   12  A    between atoms: C_25  and  O_26
REMARK   13  A    between atoms: O_26  and  C_27
REMARK                            x       y       z     vdW  Elec       q    Type
REMARK                         _______ _______ _______ _____ _____    ______ ____
ROOT
ATOM      1  C   UNL     1       2.317   7.703  18.807  0.00  0.00    +0.000 C 
ENDROOT
BRANCH   1  10
ATOM      2  N   UNL     1       5.416   4.674  15.802  0.00  0.00    +0.000 N 
ATOM      3  C   UNL     1       5.829   6.021  15.407  0.00  0.00    +0.000 C 
ATOM      4  C   UNL     1       4.593   4.512  16.917  0.00  0.00    +0.000 A 
ATOM      5  C   UNL     1       4.426   3.155  17.552  0.00  0.00    +0.000 A 
ATOM      6  C   UNL     1       3.650   3.022  18.634  0.00  0.00    +0.000 A 
ATOM      7  C   UNL     1       2.991   4.155  19.141  0.00  0.00    +0.000 A 
ATOM      8  N   UNL     1       2.165   4.329  20.148  0.00  0.00    +0.000 NA
ATOM      9  N   UNL     1       1.803   5.657  20.167  0.00  0.00    +0.000 NA
ATOM     10  C   UNL     1       2.424   6.263  19.172  0.00  0.00    +0.000 A 
ATOM     11  N   UNL     1       3.203   5.351  18.492  0.00  0.00    +0.000 N 
ATOM     12  N   UNL     1       3.985   5.576  17.397  0.00  0.00    +0.000 NA
BRANCH   2  13
ATOM     13  C   UNL     1       5.674   3.615  14.824  0.00  0.00    +0.000 C 
BRANCH  13  14
ATOM     14  C   UNL     1       5.886   4.205  13.427  0.00  0.00    +0.000 C 
BRANCH  14  16
ATOM     15  C   UNL     1       4.415   3.355  11.563  0.00  0.00    +0.000 C 
ATOM     16  C   UNL     1       5.708   3.148  12.336  0.00  0.00    +0.000 C 
ENDBRANCH  14  16
ENDBRANCH  13  14
ENDBRANCH   2  13
ENDBRANCH   1  10
BRANCH   1  17
ATOM     17  C   UNL     1       1.785   8.566  19.951  0.00  0.00    +0.000 C 
BRANCH  17  18
ATOM     18  C   UNL     1       0.811   9.582  19.489  0.00  0.00    +0.000 A 
ATOM     19  N   UNL     1      -0.408   9.425  19.037  0.00  0.00    +0.000 NA
ATOM     20  C   UNL     1      -0.791  10.708  18.739  0.00  0.00    +0.000 A 
ATOM     21  N   UNL     1       0.139  11.635  19.032  0.00  0.00    +0.000 NA
ATOM     22  O   UNL     1       1.207  10.885  19.527  0.00  0.00    +0.000 OA
BRANCH  20  23
ATOM     23  C   UNL     1      -2.084  10.996  18.134  0.00  0.00    +0.000 A 
ATOM     24  C   UNL     1      -3.054  11.702  18.857  0.00  0.00    +0.000 A 
ATOM     25  C   UNL     1      -4.314  11.944  18.312  0.00  0.00    +0.000 A 
ATOM     26  C   UNL     1      -4.601  11.499  17.021  0.00  0.00    +0.000 A 
ATOM     27  C   UNL     1      -3.641  10.796  16.284  0.00  0.00    +0.000 A 
ATOM     28  C   UNL     1      -2.387  10.549  16.841  0.00  0.00    +0.000 A 
BRANCH  25  29
ATOM     29  O   UNL     1      -5.172  12.643  19.116  0.00  0.00    +0.000 OA
ATOM     30  C   UNL     1      -4.867  12.606  20.505  0.00  0.00    +0.000 C 
ENDBRANCH  25  29
BRANCH  27  31
ATOM     31  O   UNL     1      -4.050  10.395  15.039  0.00  0.00    +0.000 OA
ATOM     32  C   UNL     1      -3.040   9.911  14.160  0.00  0.00    +0.000 C 
ENDBRANCH  27  31
ENDBRANCH  20  23
ENDBRANCH  17  18
ENDBRANCH   1  17
TORSDOF 9
ENDMDL
MODEL 9
REMARK VINA RESULT:      -7.3      2.926      7.338
REMARK  Name = 
REMARK  13 active torsions:
REMARK  status: ('A' for Active; 'I' for Inactive)
REMARK    1  A    between atoms: C_1  and  C_2
REMARK    2  A    between atoms: C_2  and  C_3
REMARK    3  A    between atoms: C_3  and  C_4
REMARK    4  A    between atoms: C_4  and  N_5
REMARK    5  A    between atoms: N_5  and  C_6
REMARK    6  A    between atoms: C_13  and  C_14
REMARK    7  A    between atoms: C_14  and  C_15
REMARK    8  A    between atoms: C_15  and  C_16
REMARK    9  A    between atoms: C_18  and  C_19
REMARK   10  A    between atoms: C_21  and  O_22
REMARK   11  A    between atoms: O_22  and  C_23
REMARK   12  A    between atoms: C_25  and  O_26
REMARK   13  A    between atoms: O_26  and  C_27
REMARK                            x       y       z     vdW  Elec       q    Type
REMARK                         _______ _______ _______ _____ _____    ______ ____
ROOT
ATOM      1  C   UNL     1       2.917   3.334  20.536  0.00  0.00    +0.000 C 
ENDROOT
BRANCH   1  10
ATOM      2  N   UNL     1       6.991   5.774  18.243  0.00  0.00    +0.000 N 
ATOM      3  C   UNL     1       7.413   5.723  19.643  0.00  0.00    +0.000 C 
ATOM      4  C   UNL     1       5.877   5.037  17.839  0.00  0.00    +0.000 A 
ATOM      5  C   UNL     1       5.614   4.791  16.375  0.00  0.00    +0.000 A 
ATOM      6  C   UNL     1       4.553   4.064  16.007  0.00  0.00    +0.000 A 
ATOM      7  C   UNL     1       3.694   3.565  17.000  0.00  0.00    +0.000 A 
ATOM      8  N   UNL     1       2.587   2.858  16.948  0.00  0.00    +0.000 NA
ATOM      9  N   UNL     1       2.147   2.673  18.240  0.00  0.00    +0.000 NA
ATOM     10  C   UNL     1       3.003   3.268  19.050  0.00  0.00    +0.000 A 
ATOM     11  N   UNL     1       4.014   3.843  18.310  0.00  0.00    +0.000 N 
ATOM     12  N   UNL     1       5.080   4.561  18.771  0.00  0.00    +0.000 NA
BRANCH   2  13
ATOM     13  C   UNL     1       7.610   6.821  17.427  0.00  0.00    +0.000 C 
BRANCH  13  14
ATOM     14  C   UNL     1       8.316   7.853  18.311  0.00  0.00    +0.000 C 
BRANCH  14  16
ATOM     15  C   UNL     1       8.961  10.278  18.559  0.00  0.00    +0.000 C 
ATOM     16  C   UNL     1       8.119   9.275  17.785  0.00  0.00    +0.000 C 
ENDBRANCH  14  16
ENDBRANCH  13  14
ENDBRANCH   2  13
ENDBRANCH   1  10
BRANCH   1  17
ATOM     17  C   UNL     1       1.683   4.093  21.024  0.00  0.00    +0.000 C 
BRANCH  17  18
ATOM     18  C   UNL     1       1.709   5.523  20.640  0.00  0.00    +0.000 A 
ATOM     19  N   UNL     1       1.195   6.562  21.251  0.00  0.00    +0.000 NA
ATOM     20  C   UNL     1       1.508   7.598  20.409  0.00  0.00    +0.000 A 
ATOM     21  N   UNL     1       2.226   7.227  19.334  0.00  0.00    +0.000 NA
ATOM     22  O   UNL     1       2.356   5.845  19.485  0.00  0.00    +0.000 OA
BRANCH  20  23
ATOM     23  C   UNL     1       1.061   8.958  20.676  0.00  0.00    +0.000 A 
ATOM     24  C   UNL     1       0.381   9.250  21.866  0.00  0.00    +0.000 A 
ATOM     25  C   UNL     1      -0.097  10.535  22.117  0.00  0.00    +0.000 A 
ATOM     26  C   UNL     1       0.129  11.547  21.183  0.00  0.00    +0.000 A 
ATOM     27  C   UNL     1       0.811  11.272  19.991  0.00  0.00    +0.000 A 
ATOM     28  C   UNL     1       1.276   9.981  19.743  0.00  0.00    +0.000 A 
BRANCH  25  29
ATOM     29  O   UNL     1      -0.743  10.693  23.312  0.00  0.00    +0.000 OA
ATOM     30  C   UNL     1      -1.923  11.486  23.264  0.00  0.00    +0.000 C 
ENDBRANCH  25  29
BRANCH  27  31
ATOM     31  O   UNL     1       0.951  12.342  19.147  0.00  0.00    +0.000 OA
ATOM     32  C   UNL     1       2.280  12.689  18.770  0.00  0.00    +0.000 C 
ENDBRANCH  27  31
ENDBRANCH  20  23
ENDBRANCH  17  18
ENDBRANCH   1  17
TORSDOF 9
ENDMDL
