MODEL 1
REMARK VINA RESULT:      -7.8      0.000      0.000
REMARK  Name = 
REMARK  4 active torsions:
REMARK  status: ('A' for Active; 'I' for Inactive)
REMARK    1  A    between atoms: C_1  and  C_2
REMARK    2  A    between atoms: C_2  and  C_3
REMARK    3  A    between atoms: C_4  and  C_5
REMARK    4  A    between atoms: N_20  and  O_21
REMARK                            x       y       z     vdW  Elec       q    Type
REMARK                         _______ _______ _______ _____ _____    ______ ____
ROOT
ATOM      1  C   UNL     1       2.828   4.097  19.873  0.00  0.00    +0.000 C 
ATOM      2  C   UNL     1       2.749   4.580  18.413  0.00  0.00    +0.000 C 
ATOM      3  C   UNL     1       1.335   4.380  17.861  0.00  0.00    +0.000 C 
ATOM      4  C   UNL     1       3.225   6.045  18.256  0.00  0.00    +0.000 C 
ATOM      5  N   UNL     1       4.435   6.041  17.736  0.00  0.00    +0.000 N 
ATOM      6  O   UNL     1       5.136   7.084  17.522  0.00  0.00    +0.000 OA
ATOM      7  C   UNL     1       4.921   4.673  17.437  0.00  0.00    +0.000 C 
ATOM      8  C   UNL     1       6.016   4.329  18.464  0.00  0.00    +0.000 C 
ATOM      9  C   UNL     1       7.351   5.031  18.208  0.00  0.00    +0.000 C 
ATOM     10  C   UNL     1       7.840   4.769  16.791  0.00  0.00    +0.000 C 
ATOM     11  C   UNL     1       6.834   5.229  15.748  0.00  0.00    +0.000 C 
ATOM     12  C   UNL     1       5.455   4.646  15.997  0.00  0.00    +0.000 C 
ATOM     13  O   UNL     1       4.802   4.214  15.040  0.00  0.00    +0.000 OA
ATOM     14  N   UNL     1       3.687   3.853  17.516  0.00  0.00    +0.000 NA
ENDROOT
BRANCH   4  15
ATOM     15  C   UNL     1       2.462   7.263  18.619  0.00  0.00    +0.000 A 
ATOM     16  C   UNL     1       2.062   7.504  19.936  0.00  0.00    +0.000 A 
ATOM     17  C   UNL     1       1.335   8.651  20.268  0.00  0.00    +0.000 A 
ATOM     18  C   UNL     1       1.005   9.579  19.288  0.00  0.00    +0.000 A 
ATOM     19  C   UNL     1       1.391   9.351  17.970  0.00  0.00    +0.000 A 
ATOM     20  C   UNL     1       2.110   8.198  17.636  0.00  0.00    +0.000 A 
ENDBRANCH   4  15
BRANCH  14  21
ATOM     21  O   UNL     1       3.955   2.504  17.945  0.00  0.00    +0.000 OA
ATOM     22  H   UNL     1       4.269   2.095  17.113  0.00  0.00    +0.000 HD
ENDBRANCH  14  21
TORSDOF 2
ENDMDL
MODEL 2
REMARK VINA RESULT:      -7.8      0.030      1.049
REMARK  Name = 
REMARK  4 active torsions:
REMARK  status: ('A' for Active; 'I' for Inactive)
REMARK    1  A    between atoms: C_1  and  C_2
REMARK    2  A    between atoms: C_2  and  C_3
REMARK    3  A    between atoms: C_4  and  C_5
REMARK    4  A    between atoms: N_20  and  O_21
REMARK                            x       y       z     vdW  Elec       q    Type
REMARK                         _______ _______ _______ _____ _____    ______ ____
ROOT
ATOM      1  C   UNL     1       2.842   4.088  19.890  0.00  0.00    +0.000 C 
ATOM      2  C   UNL     1       2.761   4.568  18.430  0.00  0.00    +0.000 C 
ATOM      3  C   UNL     1       1.349   4.359  17.877  0.00  0.00    +0.000 C 
ATOM      4  C   UNL     1       3.229   6.035  18.270  0.00  0.00    +0.000 C 
ATOM      5  N   UNL     1       4.440   6.036  17.751  0.00  0.00    +0.000 N 
ATOM      6  O   UNL     1       5.135   7.082  17.535  0.00  0.00    +0.000 OA
ATOM      7  C   UNL     1       4.934   4.671  17.455  0.00  0.00    +0.000 C 
ATOM      8  C   UNL     1       6.029   4.335  18.485  0.00  0.00    +0.000 C 
ATOM      9  C   UNL     1       7.361   5.043  18.228  0.00  0.00    +0.000 C 
ATOM     10  C   UNL     1       7.853   4.781  16.812  0.00  0.00    +0.000 C 
ATOM     11  C   UNL     1       6.846   5.233  15.767  0.00  0.00    +0.000 C 
ATOM     12  C   UNL     1       5.469   4.643  16.016  0.00  0.00    +0.000 C 
ATOM     13  O   UNL     1       4.819   4.206  15.060  0.00  0.00    +0.000 OA
ATOM     14  N   UNL     1       3.704   3.844  17.535  0.00  0.00    +0.000 NA
ENDROOT
BRANCH   4  15
ATOM     15  C   UNL     1       2.460   7.250  18.630  0.00  0.00    +0.000 A 
ATOM     16  C   UNL     1       2.111   8.200  17.666  0.00  0.00    +0.000 A 
ATOM     17  C   UNL     1       1.393   9.348  18.016  0.00  0.00    +0.000 A 
ATOM     18  C   UNL     1       1.006   9.557  19.334  0.00  0.00    +0.000 A 
ATOM     19  C   UNL     1       1.352   8.623  20.307  0.00  0.00    +0.000 A 
ATOM     20  C   UNL     1       2.078   7.480  19.959  0.00  0.00    +0.000 A 
ENDBRANCH   4  15
BRANCH  14  21
ATOM     21  O   UNL     1       3.979   2.497  17.968  0.00  0.00    +0.000 OA
ATOM     22  H   UNL     1       3.750   2.549  18.918  0.00  0.00    +0.000 HD
ENDBRANCH  14  21
TORSDOF 2
ENDMDL
MODEL 3
REMARK VINA RESULT:      -7.1      2.266      5.890
REMARK  Name = 
REMARK  4 active torsions:
REMARK  status: ('A' for Active; 'I' for Inactive)
REMARK    1  A    between atoms: C_1  and  C_2
REMARK    2  A    between atoms: C_2  and  C_3
REMARK    3  A    between atoms: C_4  and  C_5
REMARK    4  A    between atoms: N_20  and  O_21
REMARK                            x       y       z     vdW  Elec       q    Type
REMARK                         _______ _______ _______ _____ _____    ______ ____
ROOT
ATOM      1  C   UNL     1       7.805   4.449  17.849  0.00  0.00    +0.000 C 
ATOM      2  C   UNL     1       6.700   5.388  17.332  0.00  0.00    +0.000 C 
ATOM      3  C   UNL     1       7.299   6.726  16.892  0.00  0.00    +0.000 C 
ATOM      4  C   UNL     1       5.859   4.737  16.208  0.00  0.00    +0.000 C 
ATOM      5  N   UNL     1       4.703   4.357  16.713  0.00  0.00    +0.000 N 
ATOM      6  O   UNL     1       3.795   3.741  16.063  0.00  0.00    +0.000 OA
ATOM      7  C   UNL     1       4.567   4.705  18.147  0.00  0.00    +0.000 C 
ATOM      8  C   UNL     1       4.665   3.399  18.957  0.00  0.00    +0.000 C 
ATOM      9  C   UNL     1       3.410   2.527  18.887  0.00  0.00    +0.000 C 
ATOM     10  C   UNL     1       2.174   3.319  19.288  0.00  0.00    +0.000 C 
ATOM     11  C   UNL     1       1.973   4.544  18.411  0.00  0.00    +0.000 C 
ATOM     12  C   UNL     1       3.218   5.410  18.355  0.00  0.00    +0.000 C 
ATOM     13  O   UNL     1       3.102   6.638  18.436  0.00  0.00    +0.000 OA
ATOM     14  N   UNL     1       5.666   5.678  18.362  0.00  0.00    +0.000 NA
ENDROOT
BRANCH   4  15
ATOM     15  C   UNL     1       6.263   4.563  14.792  0.00  0.00    +0.000 A 
ATOM     16  C   UNL     1       5.576   3.694  13.942  0.00  0.00    +0.000 A 
ATOM     17  C   UNL     1       5.970   3.529  12.610  0.00  0.00    +0.000 A 
ATOM     18  C   UNL     1       7.055   4.238  12.109  0.00  0.00    +0.000 A 
ATOM     19  C   UNL     1       7.754   5.103  12.945  0.00  0.00    +0.000 A 
ATOM     20  C   UNL     1       7.366   5.261  14.279  0.00  0.00    +0.000 A 
ENDBRANCH   4  15
BRANCH  14  21
ATOM     21  O   UNL     1       6.176   5.634  19.710  0.00  0.00    +0.000 OA
ATOM     22  H   UNL     1       6.001   6.548  20.012  0.00  0.00    +0.000 HD
ENDBRANCH  14  21
TORSDOF 2
ENDMDL
MODEL 4
REMARK VINA RESULT:      -7.1      2.273      5.901
REMARK  Name = 
REMARK  4 active torsions:
REMARK  status: ('A' for Active; 'I' for Inactive)
REMARK    1  A    between atoms: C_1  and  C_2
REMARK    2  A    between atoms: C_2  and  C_3
REMARK    3  A    between atoms: C_4  and  C_5
REMARK    4  A    between atoms: N_20  and  O_21
REMARK                            x       y       z     vdW  Elec       q    Type
REMARK                         _______ _______ _______ _____ _____    ______ ____
ROOT
ATOM      1  C   UNL     1       7.786   4.451  17.855  0.00  0.00    +0.000 C 
ATOM      2  C   UNL     1       6.682   5.384  17.325  0.00  0.00    +0.000 C 
ATOM      3  C   UNL     1       7.281   6.725  16.891  0.00  0.00    +0.000 C 
ATOM      4  C   UNL     1       5.858   4.729  16.191  0.00  0.00    +0.000 C 
ATOM      5  N   UNL     1       4.698   4.344  16.682  0.00  0.00    +0.000 N 
ATOM      6  O   UNL     1       3.800   3.724  16.023  0.00  0.00    +0.000 OA
ATOM      7  C   UNL     1       4.543   4.692  18.114  0.00  0.00    +0.000 C 
ATOM      8  C   UNL     1       4.637   3.387  18.927  0.00  0.00    +0.000 C 
ATOM      9  C   UNL     1       3.387   2.509  18.841  0.00  0.00    +0.000 C 
ATOM     10  C   UNL     1       2.143   3.296  19.228  0.00  0.00    +0.000 C 
ATOM     11  C   UNL     1       1.947   4.519  18.348  0.00  0.00    +0.000 C 
ATOM     12  C   UNL     1       3.189   5.392  18.307  0.00  0.00    +0.000 C 
ATOM     13  O   UNL     1       3.066   6.619  18.386  0.00  0.00    +0.000 OA
ATOM     14  N   UNL     1       5.635   5.670  18.343  0.00  0.00    +0.000 NA
ENDROOT
BRANCH   4  15
ATOM     15  C   UNL     1       6.280   4.557  14.781  0.00  0.00    +0.000 A 
ATOM     16  C   UNL     1       7.369   5.259  14.258  0.00  0.00    +0.000 A 
ATOM     17  C   UNL     1       7.755   5.097  12.923  0.00  0.00    +0.000 A 
ATOM     18  C   UNL     1       7.061   4.224  12.095  0.00  0.00    +0.000 A 
ATOM     19  C   UNL     1       5.970   3.522  12.599  0.00  0.00    +0.000 A 
ATOM     20  C   UNL     1       5.577   3.691  13.931  0.00  0.00    +0.000 A 
ENDBRANCH   4  15
BRANCH  14  21
ATOM     21  O   UNL     1       6.130   5.629  19.696  0.00  0.00    +0.000 OA
ATOM     22  H   UNL     1       7.024   6.012  19.587  0.00  0.00    +0.000 HD
ENDBRANCH  14  21
TORSDOF 2
ENDMDL
MODEL 5
REMARK VINA RESULT:      -6.5      2.680      5.725
REMARK  Name = 
REMARK  4 active torsions:
REMARK  status: ('A' for Active; 'I' for Inactive)
REMARK    1  A    between atoms: C_1  and  C_2
REMARK    2  A    between atoms: C_2  and  C_3
REMARK    3  A    between atoms: C_4  and  C_5
REMARK    4  A    between atoms: N_20  and  O_21
REMARK                            x       y       z     vdW  Elec       q    Type
REMARK                         _______ _______ _______ _____ _____    ______ ____
ROOT
ATOM      1  C   UNL     1       6.240   6.565  17.486  0.00  0.00    +0.000 C 
ATOM      2  C   UNL     1       4.951   6.156  16.750  0.00  0.00    +0.000 C 
ATOM      3  C   UNL     1       4.514   7.264  15.786  0.00  0.00    +0.000 C 
ATOM      4  C   UNL     1       5.096   4.793  16.031  0.00  0.00    +0.000 C 
ATOM      5  N   UNL     1       4.470   3.876  16.739  0.00  0.00    +0.000 N 
ATOM      6  O   UNL     1       4.437   2.634  16.450  0.00  0.00    +0.000 OA
ATOM      7  C   UNL     1       3.810   4.437  17.941  0.00  0.00    +0.000 C 
ATOM      8  C   UNL     1       4.611   3.978  19.173  0.00  0.00    +0.000 C 
ATOM      9  C   UNL     1       4.394   2.509  19.545  0.00  0.00    +0.000 C 
ATOM     10  C   UNL     1       2.913   2.206  19.721  0.00  0.00    +0.000 C 
ATOM     11  C   UNL     1       2.115   2.521  18.467  0.00  0.00    +0.000 C 
ATOM     12  C   UNL     1       2.357   3.938  17.981  0.00  0.00    +0.000 C 
ATOM     13  O   UNL     1       1.397   4.618  17.602  0.00  0.00    +0.000 OA
ATOM     14  N   UNL     1       3.818   5.897  17.678  0.00  0.00    +0.000 NA
ENDROOT
BRANCH   4  15
ATOM     15  C   UNL     1       5.811   4.540  14.757  0.00  0.00    +0.000 A 
ATOM     16  C   UNL     1       7.086   5.062  14.524  0.00  0.00    +0.000 A 
ATOM     17  C   UNL     1       7.749   4.825  13.315  0.00  0.00    +0.000 A 
ATOM     18  C   UNL     1       7.149   4.057  12.326  0.00  0.00    +0.000 A 
ATOM     19  C   UNL     1       5.876   3.535  12.541  0.00  0.00    +0.000 A 
ATOM     20  C   UNL     1       5.208   3.779  13.745  0.00  0.00    +0.000 A 
ENDBRANCH   4  15
BRANCH  14  21
ATOM     21  O   UNL     1       3.889   6.670  18.893  0.00  0.00    +0.000 OA
ATOM     22  H   UNL     1       3.124   6.316  19.392  0.00  0.00    +0.000 HD
ENDBRANCH  14  21
TORSDOF 2
ENDMDL
MODEL 6
REMARK VINA RESULT:      -6.5      1.910      3.587
REMARK  Name = 
REMARK  4 active torsions:
REMARK  status: ('A' for Active; 'I' for Inactive)
REMARK    1  A    between atoms: C_1  and  C_2
REMARK    2  A    between atoms: C_2  and  C_3
REMARK    3  A    between atoms: C_4  and  C_5
REMARK    4  A    between atoms: N_20  and  O_21
REMARK                            x       y       z     vdW  Elec       q    Type
REMARK                         _______ _______ _______ _____ _____    ______ ____
ROOT
ATOM      1  C   UNL     1       4.594   6.616  15.882  0.00  0.00    +0.000 C 
ATOM      2  C   UNL     1       4.807   6.442  17.397  0.00  0.00    +0.000 C 
ATOM      3  C   UNL     1       5.765   7.512  17.927  0.00  0.00    +0.000 C 
ATOM      4  C   UNL     1       3.470   6.430  18.177  0.00  0.00    +0.000 C 
ATOM      5  N   UNL     1       3.189   5.187  18.510  0.00  0.00    +0.000 N 
ATOM      6  O   UNL     1       2.131   4.821  19.120  0.00  0.00    +0.000 OA
ATOM      7  C   UNL     1       4.236   4.231  18.080  0.00  0.00    +0.000 C 
ATOM      8  C   UNL     1       3.667   3.409  16.908  0.00  0.00    +0.000 C 
ATOM      9  C   UNL     1       2.649   2.347  17.330  0.00  0.00    +0.000 C 
ATOM     10  C   UNL     1       3.228   1.433  18.399  0.00  0.00    +0.000 C 
ATOM     11  C   UNL     1       3.672   2.206  19.630  0.00  0.00    +0.000 C 
ATOM     12  C   UNL     1       4.613   3.344  19.275  0.00  0.00    +0.000 C 
ATOM     13  O   UNL     1       5.613   3.539  19.975  0.00  0.00    +0.000 OA
ATOM     14  N   UNL     1       5.381   5.114  17.747  0.00  0.00    +0.000 NA
ENDROOT
BRANCH   4  15
ATOM     15  C   UNL     1       2.633   7.607  18.509  0.00  0.00    +0.000 A 
ATOM     16  C   UNL     1       2.371   8.602  17.564  0.00  0.00    +0.000 A 
ATOM     17  C   UNL     1       1.587   9.713  17.889  0.00  0.00    +0.000 A 
ATOM     18  C   UNL     1       1.048   9.842  19.163  0.00  0.00    +0.000 A 
ATOM     19  C   UNL     1       1.305   8.863  20.118  0.00  0.00    +0.000 A 
ATOM     20  C   UNL     1       2.097   7.755  19.796  0.00  0.00    +0.000 A 
ENDBRANCH   4  15
BRANCH  14  21
ATOM     21  O   UNL     1       6.213   4.562  16.707  0.00  0.00    +0.000 OA
ATOM     22  H   UNL     1       6.568   5.374  16.292  0.00  0.00    +0.000 HD
ENDBRANCH  14  21
TORSDOF 2
ENDMDL
MODEL 7
REMARK VINA RESULT:      -6.4      2.702      5.740
REMARK  Name = 
REMARK  4 active torsions:
REMARK  status: ('A' for Active; 'I' for Inactive)
REMARK    1  A    between atoms: C_1  and  C_2
REMARK    2  A    between atoms: C_2  and  C_3
REMARK    3  A    between atoms: C_4  and  C_5
REMARK    4  A    between atoms: N_20  and  O_21
REMARK                            x       y       z     vdW  Elec       q    Type
REMARK                         _______ _______ _______ _____ _____    ______ ____
ROOT
ATOM      1  C   UNL     1       6.213   6.557  17.445  0.00  0.00    +0.000 C 
ATOM      2  C   UNL     1       4.925   6.128  16.719  0.00  0.00    +0.000 C 
ATOM      3  C   UNL     1       4.459   7.232  15.765  0.00  0.00    +0.000 C 
ATOM      4  C   UNL     1       5.087   4.772  15.991  0.00  0.00    +0.000 C 
ATOM      5  N   UNL     1       4.484   3.840  16.700  0.00  0.00    +0.000 N 
ATOM      6  O   UNL     1       4.472   2.599  16.406  0.00  0.00    +0.000 OA
ATOM      7  C   UNL     1       3.825   4.383  17.911  0.00  0.00    +0.000 C 
ATOM      8  C   UNL     1       4.646   3.932  19.134  0.00  0.00    +0.000 C 
ATOM      9  C   UNL     1       4.458   2.458  19.500  0.00  0.00    +0.000 C 
ATOM     10  C   UNL     1       2.985   2.128  19.688  0.00  0.00    +0.000 C 
ATOM     11  C   UNL     1       2.170   2.434  18.442  0.00  0.00    +0.000 C 
ATOM     12  C   UNL     1       2.382   3.858  17.962  0.00  0.00    +0.000 C 
ATOM     13  O   UNL     1       1.407   4.522  17.594  0.00  0.00    +0.000 OA
ATOM     14  N   UNL     1       3.804   5.844  17.656  0.00  0.00    +0.000 NA
ENDROOT
BRANCH   4  15
ATOM     15  C   UNL     1       5.795   4.537  14.710  0.00  0.00    +0.000 A 
ATOM     16  C   UNL     1       5.206   3.801  13.679  0.00  0.00    +0.000 A 
ATOM     17  C   UNL     1       5.885   3.577  12.478  0.00  0.00    +0.000 A 
ATOM     18  C   UNL     1       7.161   4.094  12.287  0.00  0.00    +0.000 A 
ATOM     19  C   UNL     1       7.764   4.824  13.307  0.00  0.00    +0.000 A 
ATOM     20  C   UNL     1       7.089   5.040  14.513  0.00  0.00    +0.000 A 
ENDBRANCH   4  15
BRANCH  14  21
ATOM     21  O   UNL     1       3.872   6.612  18.874  0.00  0.00    +0.000 OA
ATOM     22  H   UNL     1       4.740   6.333  19.230  0.00  0.00    +0.000 HD
ENDBRANCH  14  21
TORSDOF 2
ENDMDL
MODEL 8
REMARK VINA RESULT:      -6.4      1.900      3.451
REMARK  Name = 
REMARK  4 active torsions:
REMARK  status: ('A' for Active; 'I' for Inactive)
REMARK    1  A    between atoms: C_1  and  C_2
REMARK    2  A    between atoms: C_2  and  C_3
REMARK    3  A    between atoms: C_4  and  C_5
REMARK    4  A    between atoms: N_20  and  O_21
REMARK                            x       y       z     vdW  Elec       q    Type
REMARK                         _______ _______ _______ _____ _____    ______ ____
ROOT
ATOM      1  C   UNL     1       4.570   6.552  15.903  0.00  0.00    +0.000 C 
ATOM      2  C   UNL     1       4.784   6.383  17.418  0.00  0.00    +0.000 C 
ATOM      3  C   UNL     1       5.762   7.441  17.939  0.00  0.00    +0.000 C 
ATOM      4  C   UNL     1       3.450   6.398  18.203  0.00  0.00    +0.000 C 
ATOM      5  N   UNL     1       3.150   5.162  18.544  0.00  0.00    +0.000 N 
ATOM      6  O   UNL     1       2.088   4.817  19.159  0.00  0.00    +0.000 OA
ATOM      7  C   UNL     1       4.180   4.186  18.116  0.00  0.00    +0.000 C 
ATOM      8  C   UNL     1       3.594   3.366  16.951  0.00  0.00    +0.000 C 
ATOM      9  C   UNL     1       2.560   2.324  17.382  0.00  0.00    +0.000 C 
ATOM     10  C   UNL     1       3.127   1.407  18.455  0.00  0.00    +0.000 C 
ATOM     11  C   UNL     1       3.588   2.180  19.680  0.00  0.00    +0.000 C 
ATOM     12  C   UNL     1       4.546   3.300  19.316  0.00  0.00    +0.000 C 
ATOM     13  O   UNL     1       5.551   3.483  20.011  0.00  0.00    +0.000 OA
ATOM     14  N   UNL     1       5.338   5.049  17.774  0.00  0.00    +0.000 NA
ENDROOT
BRANCH   4  15
ATOM     15  C   UNL     1       2.633   7.590  18.531  0.00  0.00    +0.000 A 
ATOM     16  C   UNL     1       2.092   7.772  19.806  0.00  0.00    +0.000 A 
ATOM     17  C   UNL     1       1.314   8.895  20.103  0.00  0.00    +0.000 A 
ATOM     18  C   UNL     1       1.074   9.858  19.131  0.00  0.00    +0.000 A 
ATOM     19  C   UNL     1       1.601   9.689  17.854  0.00  0.00    +0.000 A 
ATOM     20  C   UNL     1       2.371   8.560  17.553  0.00  0.00    +0.000 A 
ENDBRANCH   4  15
BRANCH  14  21
ATOM     21  O   UNL     1       6.157   4.476  16.736  0.00  0.00    +0.000 OA
ATOM     22  H   UNL     1       5.477   4.133  16.121  0.00  0.00    +0.000 HD
ENDBRANCH  14  21
TORSDOF 2
ENDMDL
MODEL 9
REMARK VINA RESULT:      -6.3      2.689      3.616
REMARK  Name = 
REMARK  4 active torsions:
REMARK  status: ('A' for Active; 'I' for Inactive)
REMARK    1  A    between atoms: C_1  and  C_2
REMARK    2  A    between atoms: C_2  and  C_3
REMARK    3  A    between atoms: C_4  and  C_5
REMARK    4  A    between atoms: N_20  and  O_21
REMARK                            x       y       z     vdW  Elec       q    Type
REMARK                         _______ _______ _______ _____ _____    ______ ____
ROOT
ATOM      1  C   UNL     1       4.790   1.973  17.267  0.00  0.00    +0.000 C 
ATOM      2  C   UNL     1       4.049   3.320  17.186  0.00  0.00    +0.000 C 
ATOM      3  C   UNL     1       2.680   3.136  16.524  0.00  0.00    +0.000 C 
ATOM      4  C   UNL     1       3.931   4.006  18.568  0.00  0.00    +0.000 C 
ATOM      5  N   UNL     1       4.811   4.984  18.628  0.00  0.00    +0.000 N 
ATOM      6  O   UNL     1       5.009   5.720  19.651  0.00  0.00    +0.000 OA
ATOM      7  C   UNL     1       5.580   5.136  17.371  0.00  0.00    +0.000 C 
ATOM      8  C   UNL     1       7.014   4.640  17.635  0.00  0.00    +0.000 C 
ATOM      9  C   UNL     1       7.866   5.608  18.459  0.00  0.00    +0.000 C 
ATOM     10  C   UNL     1       7.882   6.992  17.825  0.00  0.00    +0.000 C 
ATOM     11  C   UNL     1       6.483   7.568  17.679  0.00  0.00    +0.000 C 
ATOM     12  C   UNL     1       5.551   6.614  16.953  0.00  0.00    +0.000 C 
ATOM     13  O   UNL     1       4.784   7.060  16.093  0.00  0.00    +0.000 OA
ATOM     14  N   UNL     1       4.795   4.338  16.398  0.00  0.00    +0.000 NA
ENDROOT
BRANCH   4  15
ATOM     15  C   UNL     1       2.991   3.643  19.655  0.00  0.00    +0.000 A 
ATOM     16  C   UNL     1       3.339   2.709  20.635  0.00  0.00    +0.000 A 
ATOM     17  C   UNL     1       2.443   2.366  21.651  0.00  0.00    +0.000 A 
ATOM     18  C   UNL     1       1.187   2.958  21.707  0.00  0.00    +0.000 A 
ATOM     19  C   UNL     1       0.823   3.886  20.735  0.00  0.00    +0.000 A 
ATOM     20  C   UNL     1       1.716   4.222  19.712  0.00  0.00    +0.000 A 
ENDBRANCH   4  15
BRANCH  14  21
ATOM     21  O   UNL     1       5.623   3.766  15.366  0.00  0.00    +0.000 OA
ATOM     22  H   UNL     1       5.209   2.886  15.252  0.00  0.00    +0.000 HD
ENDBRANCH  14  21
TORSDOF 2
ENDMDL
