MODEL 1
REMARK VINA RESULT:      -7.5      0.000      0.000
REMARK  Name = 
REMARK  4 active torsions:
REMARK  status: ('A' for Active; 'I' for Inactive)
REMARK    1  A    between atoms: C_2  and  C_3
REMARK    2  A    between atoms: C_3  and  C_4
REMARK    3  A    between atoms: C_4  and  N_5
REMARK    4  A    between atoms: C_9  and  C_10
REMARK                            x       y       z     vdW  Elec       q    Type
REMARK                         _______ _______ _______ _____ _____    ______ ____
ROOT
ATOM      1  N   UNL     1       1.336   9.379  19.663  0.00  0.00    +0.000 N 
ATOM      2  C   UNL     1       1.928   8.695  18.609  0.00  0.00    +0.000 C 
ATOM      3  O   UNL     1       2.275   9.172  17.538  0.00  0.00    +0.000 OA
ATOM      4  C   UNL     1       2.118   7.264  18.958  0.00  0.00    +0.000 C 
ATOM      5  C   UNL     1       2.534   6.368  18.053  0.00  0.00    +0.000 C 
ATOM      6  S   UNL     1       1.698   6.997  20.599  0.00  0.00    +0.000 S 
ATOM      7  C   UNL     1       1.168   8.662  20.832  0.00  0.00    +0.000 C 
ATOM      8  S   UNL     1       0.572   9.189  22.297  0.00  0.00    +0.000 S 
ENDROOT
BRANCH   5   9
ATOM      9  C   UNL     1       2.714   4.935  18.325  0.00  0.00    +0.000 A 
ATOM     10  C   UNL     1       1.649   4.066  18.049  0.00  0.00    +0.000 A 
ATOM     11  C   UNL     1       1.789   2.689  18.240  0.00  0.00    +0.000 A 
ATOM     12  C   UNL     1       2.994   2.168  18.705  0.00  0.00    +0.000 A 
ATOM     13  C   UNL     1       4.057   3.024  19.000  0.00  0.00    +0.000 A 
ATOM     14  C   UNL     1       3.916   4.403  18.818  0.00  0.00    +0.000 A 
ATOM     15 CL   UNL     1       5.260   5.414  19.227  0.00  0.00    +0.000 Cl
ENDBRANCH   5   9
BRANCH   1  16
ATOM     16  C   UNL     1       1.013  10.807  19.489  0.00  0.00    +0.000 C 
BRANCH  16  17
ATOM     17  C   UNL     1      -0.232  11.004  18.628  0.00  0.00    +0.000 C 
BRANCH  17  19
ATOM     18  O   UNL     1      -1.405  11.682  20.621  0.00  0.00    +0.000 OA
ATOM     19  C   UNL     1      -1.445  11.440  19.419  0.00  0.00    +0.000 C 
ATOM     20  N   UNL     1      -2.639  11.557  18.730  0.00  0.00    +0.000 N 
ATOM     21  C   UNL     1      -2.922  11.234  17.434  0.00  0.00    +0.000 C 
ATOM     22  N   UNL     1      -2.107  10.710  16.591  0.00  0.00    +0.000 NA
ATOM     23  C   UNL     1      -2.768  10.580  15.281  0.00  0.00    +0.000 C 
ATOM     24  C   UNL     1      -4.275  10.511  15.471  0.00  0.00    +0.000 C 
ATOM     25  S   UNL     1      -4.552  11.538  16.936  0.00  0.00    +0.000 S 
ATOM     26  H   UNL     1      -3.410  11.904  19.284  0.00  0.00    +0.000 HD
ENDBRANCH  17  19
ENDBRANCH  16  17
ENDBRANCH   1  16
TORSDOF 4
ENDMDL
MODEL 2
REMARK VINA RESULT:      -7.2      1.847      2.537
REMARK  Name = 
REMARK  4 active torsions:
REMARK  status: ('A' for Active; 'I' for Inactive)
REMARK    1  A    between atoms: C_2  and  C_3
REMARK    2  A    between atoms: C_3  and  C_4
REMARK    3  A    between atoms: C_4  and  N_5
REMARK    4  A    between atoms: C_9  and  C_10
REMARK                            x       y       z     vdW  Elec       q    Type
REMARK                         _______ _______ _______ _____ _____    ______ ____
ROOT
ATOM      1  N   UNL     1       0.844   9.647  19.395  0.00  0.00    +0.000 N 
ATOM      2  C   UNL     1       1.675   9.136  18.407  0.00  0.00    +0.000 C 
ATOM      3  O   UNL     1       1.932   9.659  17.332  0.00  0.00    +0.000 OA
ATOM      4  C   UNL     1       2.257   7.839  18.835  0.00  0.00    +0.000 C 
ATOM      5  C   UNL     1       2.974   7.078  17.998  0.00  0.00    +0.000 C 
ATOM      6  S   UNL     1       1.834   7.513  20.464  0.00  0.00    +0.000 S 
ATOM      7  C   UNL     1       0.823   8.952  20.588  0.00  0.00    +0.000 C 
ATOM      8  S   UNL     1       0.008   9.325  21.994  0.00  0.00    +0.000 S 
ENDROOT
BRANCH   5   9
ATOM      9  C   UNL     1       3.552   5.772  18.349  0.00  0.00    +0.000 A 
ATOM     10  C   UNL     1       4.856   5.739  18.862  0.00  0.00    +0.000 A 
ATOM     11  C   UNL     1       5.430   4.529  19.262  0.00  0.00    +0.000 A 
ATOM     12  C   UNL     1       4.706   3.344  19.154  0.00  0.00    +0.000 A 
ATOM     13  C   UNL     1       3.413   3.362  18.628  0.00  0.00    +0.000 A 
ATOM     14  C   UNL     1       2.840   4.569  18.221  0.00  0.00    +0.000 A 
ATOM     15 CL   UNL     1       1.244   4.523  17.553  0.00  0.00    +0.000 Cl
ENDBRANCH   5   9
BRANCH   1  16
ATOM     16  C   UNL     1       0.125  10.908  19.134  0.00  0.00    +0.000 C 
BRANCH  16  17
ATOM     17  C   UNL     1      -1.388  10.718  19.194  0.00  0.00    +0.000 C 
BRANCH  17  19
ATOM     18  O   UNL     1      -1.400   9.741  16.991  0.00  0.00    +0.000 OA
ATOM     19  C   UNL     1      -2.003  10.369  17.857  0.00  0.00    +0.000 C 
ATOM     20  N   UNL     1      -3.298  10.794  17.627  0.00  0.00    +0.000 N 
ATOM     21  C   UNL     1      -4.096  11.588  18.401  0.00  0.00    +0.000 C 
ATOM     22  N   UNL     1      -3.764  12.135  19.515  0.00  0.00    +0.000 NA
ATOM     23  C   UNL     1      -4.919  12.854  20.076  0.00  0.00    +0.000 C 
ATOM     24  C   UNL     1      -5.877  13.237  18.958  0.00  0.00    +0.000 C 
ATOM     25  S   UNL     1      -5.677  11.891  17.765  0.00  0.00    +0.000 S 
ATOM     26  H   UNL     1      -3.688  10.492  16.745  0.00  0.00    +0.000 HD
ENDBRANCH  17  19
ENDBRANCH  16  17
ENDBRANCH   1  16
TORSDOF 4
ENDMDL
MODEL 3
REMARK VINA RESULT:      -7.1      2.206      3.080
REMARK  Name = 
REMARK  4 active torsions:
REMARK  status: ('A' for Active; 'I' for Inactive)
REMARK    1  A    between atoms: C_2  and  C_3
REMARK    2  A    between atoms: C_3  and  C_4
REMARK    3  A    between atoms: C_4  and  N_5
REMARK    4  A    between atoms: C_9  and  C_10
REMARK                            x       y       z     vdW  Elec       q    Type
REMARK                         _______ _______ _______ _____ _____    ______ ____
ROOT
ATOM      1  N   UNL     1       1.247   9.576  19.620  0.00  0.00    +0.000 N 
ATOM      2  C   UNL     1       1.789   8.976  18.491  0.00  0.00    +0.000 C 
ATOM      3  O   UNL     1       2.020   9.520  17.420  0.00  0.00    +0.000 OA
ATOM      4  C   UNL     1       2.090   7.546  18.755  0.00  0.00    +0.000 C 
ATOM      5  C   UNL     1       2.481   6.717  17.778  0.00  0.00    +0.000 C 
ATOM      6  S   UNL     1       1.821   7.183  20.408  0.00  0.00    +0.000 S 
ATOM      7  C   UNL     1       1.216   8.800  20.762  0.00  0.00    +0.000 C 
ATOM      8  S   UNL     1       0.712   9.225  22.294  0.00  0.00    +0.000 S 
ENDROOT
BRANCH   5   9
ATOM      9  C   UNL     1       2.766   5.287  17.965  0.00  0.00    +0.000 A 
ATOM     10  C   UNL     1       1.704   4.378  17.857  0.00  0.00    +0.000 A 
ATOM     11  C   UNL     1       1.932   3.005  17.973  0.00  0.00    +0.000 A 
ATOM     12  C   UNL     1       3.222   2.528  18.197  0.00  0.00    +0.000 A 
ATOM     13  C   UNL     1       4.284   3.423  18.324  0.00  0.00    +0.000 A 
ATOM     14  C   UNL     1       4.058   4.798  18.216  0.00  0.00    +0.000 A 
ATOM     15 CL   UNL     1       5.411   5.860  18.409  0.00  0.00    +0.000 Cl
ENDBRANCH   5   9
BRANCH   1  16
ATOM     16  C   UNL     1       0.828  10.987  19.541  0.00  0.00    +0.000 C 
BRANCH  16  17
ATOM     17  C   UNL     1      -0.686  11.121  19.401  0.00  0.00    +0.000 C 
BRANCH  17  19
ATOM     18  O   UNL     1      -0.833  12.921  17.805  0.00  0.00    +0.000 OA
ATOM     19  C   UNL     1      -1.125  12.484  18.915  0.00  0.00    +0.000 C 
ATOM     20  N   UNL     1      -1.882  13.250  19.781  0.00  0.00    +0.000 N 
ATOM     21  C   UNL     1      -2.220  13.003  21.081  0.00  0.00    +0.000 C 
ATOM     22  N   UNL     1      -1.853  11.987  21.776  0.00  0.00    +0.000 NA
ATOM     23  C   UNL     1      -2.480  12.046  23.107  0.00  0.00    +0.000 C 
ATOM     24  C   UNL     1      -2.822  13.488  23.449  0.00  0.00    +0.000 C 
ATOM     25  S   UNL     1      -3.199  14.215  21.835  0.00  0.00    +0.000 S 
ATOM     26  H   UNL     1      -2.200  14.129  19.396  0.00  0.00    +0.000 HD
ENDBRANCH  17  19
ENDBRANCH  16  17
ENDBRANCH   1  16
TORSDOF 4
ENDMDL
MODEL 4
REMARK VINA RESULT:      -7.0      2.158      3.247
REMARK  Name = 
REMARK  4 active torsions:
REMARK  status: ('A' for Active; 'I' for Inactive)
REMARK    1  A    between atoms: C_2  and  C_3
REMARK    2  A    between atoms: C_3  and  C_4
REMARK    3  A    between atoms: C_4  and  N_5
REMARK    4  A    between atoms: C_9  and  C_10
REMARK                            x       y       z     vdW  Elec       q    Type
REMARK                         _______ _______ _______ _____ _____    ______ ____
ROOT
ATOM      1  N   UNL     1       0.947   9.586  19.484  0.00  0.00    +0.000 N 
ATOM      2  C   UNL     1       1.732   9.069  18.463  0.00  0.00    +0.000 C 
ATOM      3  O   UNL     1       1.961   9.596  17.384  0.00  0.00    +0.000 OA
ATOM      4  C   UNL     1       2.305   7.758  18.861  0.00  0.00    +0.000 C 
ATOM      5  C   UNL     1       2.977   6.990  17.992  0.00  0.00    +0.000 C 
ATOM      6  S   UNL     1       1.934   7.426  20.501  0.00  0.00    +0.000 S 
ATOM      7  C   UNL     1       0.955   8.882  20.672  0.00  0.00    +0.000 C 
ATOM      8  S   UNL     1       0.198   9.259  22.109  0.00  0.00    +0.000 S 
ENDROOT
BRANCH   5   9
ATOM      9  C   UNL     1       3.543   5.672  18.313  0.00  0.00    +0.000 A 
ATOM     10  C   UNL     1       4.855   5.612  18.803  0.00  0.00    +0.000 A 
ATOM     11  C   UNL     1       5.419   4.389  19.173  0.00  0.00    +0.000 A 
ATOM     12  C   UNL     1       4.677   3.215  19.059  0.00  0.00    +0.000 A 
ATOM     13  C   UNL     1       3.376   3.259  18.556  0.00  0.00    +0.000 A 
ATOM     14  C   UNL     1       2.812   4.481  18.177  0.00  0.00    +0.000 A 
ATOM     15 CL   UNL     1       1.205   4.467  17.536  0.00  0.00    +0.000 Cl
ENDBRANCH   5   9
BRANCH   1  16
ATOM     16  C   UNL     1       0.242  10.862  19.259  0.00  0.00    +0.000 C 
BRANCH  16  17
ATOM     17  C   UNL     1      -1.273  10.677  19.247  0.00  0.00    +0.000 C 
BRANCH  17  19
ATOM     18  O   UNL     1      -1.941  11.841  17.244  0.00  0.00    +0.000 OA
ATOM     19  C   UNL     1      -2.002  11.749  18.467  0.00  0.00    +0.000 C 
ATOM     20  N   UNL     1      -2.757  12.653  19.191  0.00  0.00    +0.000 N 
ATOM     21  C   UNL     1      -2.869  12.795  20.545  0.00  0.00    +0.000 C 
ATOM     22  N   UNL     1      -2.243  12.107  21.430  0.00  0.00    +0.000 NA
ATOM     23  C   UNL     1      -2.687  12.511  22.775  0.00  0.00    +0.000 C 
ATOM     24  C   UNL     1      -3.224  13.933  22.732  0.00  0.00    +0.000 C 
ATOM     25  S   UNL     1      -3.932  14.055  21.071  0.00  0.00    +0.000 S 
ATOM     26  H   UNL     1      -3.269  13.317  18.628  0.00  0.00    +0.000 HD
ENDBRANCH  17  19
ENDBRANCH  16  17
ENDBRANCH   1  16
TORSDOF 4
ENDMDL
MODEL 5
REMARK VINA RESULT:      -6.9      3.013      3.775
REMARK  Name = 
REMARK  4 active torsions:
REMARK  status: ('A' for Active; 'I' for Inactive)
REMARK    1  A    between atoms: C_2  and  C_3
REMARK    2  A    between atoms: C_3  and  C_4
REMARK    3  A    between atoms: C_4  and  N_5
REMARK    4  A    between atoms: C_9  and  C_10
REMARK                            x       y       z     vdW  Elec       q    Type
REMARK                         _______ _______ _______ _____ _____    ______ ____
ROOT
ATOM      1  N   UNL     1       1.710   7.666  19.922  0.00  0.00    +0.000 N 
ATOM      2  C   UNL     1       2.271   6.402  20.045  0.00  0.00    +0.000 C 
ATOM      3  O   UNL     1       2.016   5.576  20.910  0.00  0.00    +0.000 OA
ATOM      4  C   UNL     1       3.239   6.153  18.947  0.00  0.00    +0.000 C 
ATOM      5  C   UNL     1       4.019   5.065  18.930  0.00  0.00    +0.000 C 
ATOM      6  S   UNL     1       3.195   7.444  17.820  0.00  0.00    +0.000 S 
ATOM      7  C   UNL     1       2.041   8.367  18.780  0.00  0.00    +0.000 C 
ATOM      8  S   UNL     1       1.490   9.860  18.281  0.00  0.00    +0.000 S 
ENDROOT
BRANCH   5   9
ATOM      9  C   UNL     1       5.016   4.773  17.889  0.00  0.00    +0.000 A 
ATOM     10  C   UNL     1       4.569   4.265  16.662  0.00  0.00    +0.000 A 
ATOM     11  C   UNL     1       5.471   4.023  15.624  0.00  0.00    +0.000 A 
ATOM     12  C   UNL     1       6.827   4.289  15.801  0.00  0.00    +0.000 A 
ATOM     13  C   UNL     1       7.288   4.779  17.023  0.00  0.00    +0.000 A 
ATOM     14  C   UNL     1       6.388   5.014  18.067  0.00  0.00    +0.000 A 
ATOM     15 CL   UNL     1       7.024   5.596  19.567  0.00  0.00    +0.000 Cl
ENDBRANCH   5   9
BRANCH   1  16
ATOM     16  C   UNL     1       0.761   8.124  20.954  0.00  0.00    +0.000 C 
BRANCH  16  17
ATOM     17  C   UNL     1       0.976   9.593  21.308  0.00  0.00    +0.000 C 
BRANCH  17  19
ATOM     18  O   UNL     1       0.697   9.494  23.700  0.00  0.00    +0.000 OA
ATOM     19  C   UNL     1       0.356   9.989  22.630  0.00  0.00    +0.000 C 
ATOM     20  N   UNL     1      -0.640  10.948  22.598  0.00  0.00    +0.000 N 
ATOM     21  C   UNL     1      -1.236  11.537  21.520  0.00  0.00    +0.000 C 
ATOM     22  N   UNL     1      -0.995  11.273  20.286  0.00  0.00    +0.000 NA
ATOM     23  C   UNL     1      -1.789  12.167  19.426  0.00  0.00    +0.000 C 
ATOM     24  C   UNL     1      -3.019  12.645  20.180  0.00  0.00    +0.000 C 
ATOM     25  S   UNL     1      -2.450  12.712  21.897  0.00  0.00    +0.000 S 
ATOM     26  H   UNL     1      -0.987  11.222  23.506  0.00  0.00    +0.000 HD
ENDBRANCH  17  19
ENDBRANCH  16  17
ENDBRANCH   1  16
TORSDOF 4
ENDMDL
MODEL 6
REMARK VINA RESULT:      -6.9      1.115      1.228
REMARK  Name = 
REMARK  4 active torsions:
REMARK  status: ('A' for Active; 'I' for Inactive)
REMARK    1  A    between atoms: C_2  and  C_3
REMARK    2  A    between atoms: C_3  and  C_4
REMARK    3  A    between atoms: C_4  and  N_5
REMARK    4  A    between atoms: C_9  and  C_10
REMARK                            x       y       z     vdW  Elec       q    Type
REMARK                         _______ _______ _______ _____ _____    ______ ____
ROOT
ATOM      1  N   UNL     1       1.458   9.326  19.444  0.00  0.00    +0.000 N 
ATOM      2  C   UNL     1       1.930   8.666  18.318  0.00  0.00    +0.000 C 
ATOM      3  O   UNL     1       2.177   9.170  17.231  0.00  0.00    +0.000 OA
ATOM      4  C   UNL     1       2.129   7.223  18.604  0.00  0.00    +0.000 C 
ATOM      5  C   UNL     1       2.436   6.348  17.638  0.00  0.00    +0.000 C 
ATOM      6  S   UNL     1       1.869   6.913  20.271  0.00  0.00    +0.000 S 
ATOM      7  C   UNL     1       1.395   8.578  20.603  0.00  0.00    +0.000 C 
ATOM      8  S   UNL     1       0.957   9.069  22.135  0.00  0.00    +0.000 S 
ENDROOT
BRANCH   5   9
ATOM      9  C   UNL     1       2.617   4.905  17.849  0.00  0.00    +0.000 A 
ATOM     10  C   UNL     1       1.515   4.151  18.277  0.00  0.00    +0.000 A 
ATOM     11  C   UNL     1       1.622   2.768  18.440  0.00  0.00    +0.000 A 
ATOM     12  C   UNL     1       2.830   2.126  18.176  0.00  0.00    +0.000 A 
ATOM     13  C   UNL     1       3.939   2.867  17.767  0.00  0.00    +0.000 A 
ATOM     14  C   UNL     1       3.837   4.252  17.610  0.00  0.00    +0.000 A 
ATOM     15 CL   UNL     1       5.255   5.118  17.126  0.00  0.00    +0.000 Cl
ENDBRANCH   5   9
BRANCH   1  16
ATOM     16  C   UNL     1       1.144  10.763  19.344  0.00  0.00    +0.000 C 
BRANCH  16  17
ATOM     17  C   UNL     1      -0.341  11.001  19.082  0.00  0.00    +0.000 C 
BRANCH  17  19
ATOM     18  O   UNL     1      -0.428  12.220  21.159  0.00  0.00    +0.000 OA
ATOM     19  C   UNL     1      -1.015  11.827  20.155  0.00  0.00    +0.000 C 
ATOM     20  N   UNL     1      -2.351  12.132  19.972  0.00  0.00    +0.000 N 
ATOM     21  C   UNL     1      -3.207  11.707  18.996  0.00  0.00    +0.000 C 
ATOM     22  N   UNL     1      -2.924  10.886  18.049  0.00  0.00    +0.000 NA
ATOM     23  C   UNL     1      -4.090  10.736  17.162  0.00  0.00    +0.000 C 
ATOM     24  C   UNL     1      -5.362  11.064  17.927  0.00  0.00    +0.000 C 
ATOM     25  S   UNL     1      -4.820  12.324  19.106  0.00  0.00    +0.000 S 
ATOM     26  H   UNL     1      -2.746  12.731  20.683  0.00  0.00    +0.000 HD
ENDBRANCH  17  19
ENDBRANCH  16  17
ENDBRANCH   1  16
TORSDOF 4
ENDMDL
MODEL 7
REMARK VINA RESULT:      -6.8      3.209      3.971
REMARK  Name = 
REMARK  4 active torsions:
REMARK  status: ('A' for Active; 'I' for Inactive)
REMARK    1  A    between atoms: C_2  and  C_3
REMARK    2  A    between atoms: C_3  and  C_4
REMARK    3  A    between atoms: C_4  and  N_5
REMARK    4  A    between atoms: C_9  and  C_10
REMARK                            x       y       z     vdW  Elec       q    Type
REMARK                         _______ _______ _______ _____ _____    ______ ____
ROOT
ATOM      1  N   UNL     1       1.442   7.938  20.050  0.00  0.00    +0.000 N 
ATOM      2  C   UNL     1       2.066   6.717  20.267  0.00  0.00    +0.000 C 
ATOM      3  O   UNL     1       1.824   5.928  21.169  0.00  0.00    +0.000 OA
ATOM      4  C   UNL     1       3.088   6.461  19.220  0.00  0.00    +0.000 C 
ATOM      5  C   UNL     1       3.927   5.420  19.295  0.00  0.00    +0.000 C 
ATOM      6  S   UNL     1       3.017   7.681  18.018  0.00  0.00    +0.000 S 
ATOM      7  C   UNL     1       1.778   8.591  18.880  0.00  0.00    +0.000 C 
ATOM      8  S   UNL     1       1.166  10.019  18.275  0.00  0.00    +0.000 S 
ENDROOT
BRANCH   5   9
ATOM      9  C   UNL     1       4.978   5.127  18.309  0.00  0.00    +0.000 A 
ATOM     10  C   UNL     1       6.254   5.671  18.515  0.00  0.00    +0.000 A 
ATOM     11  C   UNL     1       7.299   5.378  17.637  0.00  0.00    +0.000 A 
ATOM     12  C   UNL     1       7.081   4.538  16.547  0.00  0.00    +0.000 A 
ATOM     13  C   UNL     1       5.812   4.004  16.321  0.00  0.00    +0.000 A 
ATOM     14  C   UNL     1       4.762   4.302  17.194  0.00  0.00    +0.000 A 
ATOM     15 CL   UNL     1       3.205   3.631  16.846  0.00  0.00    +0.000 Cl
ENDBRANCH   5   9
BRANCH   1  16
ATOM     16  C   UNL     1       0.430   8.399  21.019  0.00  0.00    +0.000 C 
BRANCH  16  17
ATOM     17  C   UNL     1       0.766   9.782  21.571  0.00  0.00    +0.000 C 
BRANCH  17  19
ATOM     18  O   UNL     1       0.389   9.517  23.937  0.00  0.00    +0.000 OA
ATOM     19  C   UNL     1       0.087  10.082  22.890  0.00  0.00    +0.000 C 
ATOM     20  N   UNL     1      -0.916  11.033  22.881  0.00  0.00    +0.000 N 
ATOM     21  C   UNL     1      -1.473  11.690  21.821  0.00  0.00    +0.000 C 
ATOM     22  N   UNL     1      -1.179  11.512  20.584  0.00  0.00    +0.000 NA
ATOM     23  C   UNL     1      -1.945  12.456  19.753  0.00  0.00    +0.000 C 
ATOM     24  C   UNL     1      -3.211  12.873  20.485  0.00  0.00    +0.000 C 
ATOM     25  S   UNL     1      -2.714  12.826  22.225  0.00  0.00    +0.000 S 
ATOM     26  H   UNL     1      -1.303  11.241  23.791  0.00  0.00    +0.000 HD
ENDBRANCH  17  19
ENDBRANCH  16  17
ENDBRANCH   1  16
TORSDOF 4
ENDMDL
MODEL 8
REMARK VINA RESULT:      -6.8      2.885      3.678
REMARK  Name = 
REMARK  4 active torsions:
REMARK  status: ('A' for Active; 'I' for Inactive)
REMARK    1  A    between atoms: C_2  and  C_3
REMARK    2  A    between atoms: C_3  and  C_4
REMARK    3  A    between atoms: C_4  and  N_5
REMARK    4  A    between atoms: C_9  and  C_10
REMARK                            x       y       z     vdW  Elec       q    Type
REMARK                         _______ _______ _______ _____ _____    ______ ____
ROOT
ATOM      1  N   UNL     1       0.968   9.587  19.407  0.00  0.00    +0.000 N 
ATOM      2  C   UNL     1       1.791   9.065  18.418  0.00  0.00    +0.000 C 
ATOM      3  O   UNL     1       2.073   9.596  17.352  0.00  0.00    +0.000 OA
ATOM      4  C   UNL     1       2.329   7.744  18.831  0.00  0.00    +0.000 C 
ATOM      5  C   UNL     1       3.028   6.973  17.988  0.00  0.00    +0.000 C 
ATOM      6  S   UNL     1       1.882   7.408  20.452  0.00  0.00    +0.000 S 
ATOM      7  C   UNL     1       0.916   8.876  20.589  0.00  0.00    +0.000 C 
ATOM      8  S   UNL     1       0.102   9.254  21.994  0.00  0.00    +0.000 S 
ENDROOT
BRANCH   5   9
ATOM      9  C   UNL     1       3.562   5.645  18.324  0.00  0.00    +0.000 A 
ATOM     10  C   UNL     1       4.863   5.562  18.839  0.00  0.00    +0.000 A 
ATOM     11  C   UNL     1       5.396   4.330  19.224  0.00  0.00    +0.000 A 
ATOM     12  C   UNL     1       4.633   3.171  19.100  0.00  0.00    +0.000 A 
ATOM     13  C   UNL     1       3.343   3.237  18.573  0.00  0.00    +0.000 A 
ATOM     14  C   UNL     1       2.810   4.468  18.179  0.00  0.00    +0.000 A 
ATOM     15 CL   UNL     1       1.215   4.482  17.508  0.00  0.00    +0.000 Cl
ENDBRANCH   5   9
BRANCH   1  16
ATOM     16  C   UNL     1       0.291  10.874  19.160  0.00  0.00    +0.000 C 
BRANCH  16  17
ATOM     17  C   UNL     1       1.035  12.038  19.808  0.00  0.00    +0.000 C 
BRANCH  17  19
ATOM     18  O   UNL     1       2.734  12.621  18.200  0.00  0.00    +0.000 OA
ATOM     19  C   UNL     1       1.717  12.945  18.807  0.00  0.00    +0.000 C 
ATOM     20  N   UNL     1       1.151  14.188  18.593  0.00  0.00    +0.000 N 
ATOM     21  C   UNL     1       0.101  14.780  19.235  0.00  0.00    +0.000 C 
ATOM     22  N   UNL     1      -0.560  14.283  20.218  0.00  0.00    +0.000 NA
ATOM     23  C   UNL     1      -1.658  15.193  20.585  0.00  0.00    +0.000 C 
ATOM     24  C   UNL     1      -1.315  16.610  20.156  0.00  0.00    +0.000 C 
ATOM     25  S   UNL     1      -0.319  16.359  18.666  0.00  0.00    +0.000 S 
ATOM     26  H   UNL     1       1.606  14.738  17.878  0.00  0.00    +0.000 HD
ENDBRANCH  17  19
ENDBRANCH  16  17
ENDBRANCH   1  16
TORSDOF 4
ENDMDL
MODEL 9
REMARK VINA RESULT:      -6.7      3.066      4.412
REMARK  Name = 
REMARK  4 active torsions:
REMARK  status: ('A' for Active; 'I' for Inactive)
REMARK    1  A    between atoms: C_2  and  C_3
REMARK    2  A    between atoms: C_3  and  C_4
REMARK    3  A    between atoms: C_4  and  N_5
REMARK    4  A    between atoms: C_9  and  C_10
REMARK                            x       y       z     vdW  Elec       q    Type
REMARK                         _______ _______ _______ _____ _____    ______ ____
ROOT
ATOM      1  N   UNL     1       0.939   9.599  19.507  0.00  0.00    +0.000 N 
ATOM      2  C   UNL     1       1.750   9.099  18.497  0.00  0.00    +0.000 C 
ATOM      3  O   UNL     1       2.016   9.651  17.439  0.00  0.00    +0.000 OA
ATOM      4  C   UNL     1       2.299   7.773  18.878  0.00  0.00    +0.000 C 
ATOM      5  C   UNL     1       2.990   7.021  18.011  0.00  0.00    +0.000 C 
ATOM      6  S   UNL     1       1.876   7.404  20.498  0.00  0.00    +0.000 S 
ATOM      7  C   UNL     1       0.905   8.864  20.676  0.00  0.00    +0.000 C 
ATOM      8  S   UNL     1       0.109   9.213  22.099  0.00  0.00    +0.000 S 
ENDROOT
BRANCH   5   9
ATOM      9  C   UNL     1       3.534   5.690  18.315  0.00  0.00    +0.000 A 
ATOM     10  C   UNL     1       4.841   5.603  18.816  0.00  0.00    +0.000 A 
ATOM     11  C   UNL     1       5.383   4.366  19.171  0.00  0.00    +0.000 A 
ATOM     12  C   UNL     1       4.626   3.205  19.030  0.00  0.00    +0.000 A 
ATOM     13  C   UNL     1       3.330   3.276  18.516  0.00  0.00    +0.000 A 
ATOM     14  C   UNL     1       2.787   4.511  18.153  0.00  0.00    +0.000 A 
ATOM     15 CL   UNL     1       1.186   4.531  17.497  0.00  0.00    +0.000 Cl
ENDBRANCH   5   9
BRANCH   1  16
ATOM     16  C   UNL     1       0.253  10.886  19.293  0.00  0.00    +0.000 C 
BRANCH  16  17
ATOM     17  C   UNL     1       1.231  12.058  19.313  0.00  0.00    +0.000 C 
BRANCH  17  19
ATOM     18  O   UNL     1       0.588  12.448  21.603  0.00  0.00    +0.000 OA
ATOM     19  C   UNL     1       1.275  12.781  20.641  0.00  0.00    +0.000 C 
ATOM     20  N   UNL     1       2.132  13.861  20.745  0.00  0.00    +0.000 N 
ATOM     21  C   UNL     1       2.890  14.456  19.777  0.00  0.00    +0.000 C 
ATOM     22  N   UNL     1       2.924  14.127  18.536  0.00  0.00    +0.000 NA
ATOM     23  C   UNL     1       3.915  14.958  17.832  0.00  0.00    +0.000 C 
ATOM     24  C   UNL     1       4.113  16.267  18.581  0.00  0.00    +0.000 C 
ATOM     25  S   UNL     1       3.849  15.795  20.309  0.00  0.00    +0.000 S 
ATOM     26  H   UNL     1       2.170  14.279  21.663  0.00  0.00    +0.000 HD
ENDBRANCH  17  19
ENDBRANCH  16  17
ENDBRANCH   1  16
TORSDOF 4
ENDMDL
