MODEL 1
REMARK VINA RESULT:      -8.3      0.000      0.000
REMARK  Name = 
REMARK  11 active torsions:
REMARK  status: ('A' for Active; 'I' for Inactive)
REMARK    1  A    between atoms: C_1  and  C_2
REMARK    2  A    between atoms: C_2  and  C_3
REMARK    3  A    between atoms: C_2  and  O_4
REMARK    4  A    between atoms: O_4  and  C_5
REMARK    5  A    between atoms: C_8  and  C_9
REMARK    6  A    between atoms: C_9  and  O_10
REMARK    7  A    between atoms: O_10  and  C_11
REMARK    8  A    between atoms: C_23  and  C_24
REMARK    9  A    between atoms: C_24  and  C_25
REMARK   10  A    between atoms: C_25  and  O_27
REMARK   11  A    between atoms: C_29  and  C_30
REMARK                            x       y       z     vdW  Elec       q    Type
REMARK                         _______ _______ _______ _____ _____    ______ ____
ROOT
ATOM      1  C   UNL     1       1.623   9.117  18.536  0.00  0.00    +0.000 A 
ATOM      2  C   UNL     1       1.325   8.245  19.581  0.00  0.00    +0.000 A 
ATOM      3  C   UNL     1       2.026   7.049  19.758  0.00  0.00    +0.000 A 
ATOM      4  C   UNL     1       3.053   6.760  18.851  0.00  0.00    +0.000 A 
ATOM      5  C   UNL     1       3.390   7.630  17.812  0.00  0.00    +0.000 A 
ATOM      6  C   UNL     1       2.667   8.828  17.653  0.00  0.00    +0.000 A 
ATOM      7  C   UNL     1       4.492   7.062  17.121  0.00  0.00    +0.000 A 
ATOM      8  C   UNL     1       4.795   5.862  17.726  0.00  0.00    +0.000 A 
ATOM      9  N   UNL     1       3.917   5.692  18.766  0.00  0.00    +0.000 N 
ATOM     10  C   UNL     1       3.993   4.582  19.696  0.00  0.00    +0.000 C 
ATOM     11  C   UNL     1       4.984   3.526  19.231  0.00  0.00    +0.000 C 
ATOM     12  O   UNL     1       6.138   4.098  18.602  0.00  0.00    +0.000 OA
ATOM     13  C   UNL     1       5.848   4.861  17.408  0.00  0.00    +0.000 C 
ENDROOT
BRANCH   1  14
ATOM     14  O   UNL     1       0.875  10.260  18.509  0.00  0.00    +0.000 OA
BRANCH  14  15
ATOM     15  C   UNL     1      -0.159  10.347  19.485  0.00  0.00    +0.000 C 
BRANCH  15  19
ATOM     16  C   UNL     1      -3.818  11.478  17.419  0.00  0.00    +0.000 A 
ATOM     17  C   UNL     1      -3.562  11.959  18.712  0.00  0.00    +0.000 A 
ATOM     18  C   UNL     1      -2.381  11.614  19.391  0.00  0.00    +0.000 A 
ATOM     19  C   UNL     1      -1.453  10.740  18.813  0.00  0.00    +0.000 A 
ATOM     20  C   UNL     1      -1.691  10.300  17.511  0.00  0.00    +0.000 A 
ATOM     21  C   UNL     1      -2.834  10.706  16.797  0.00  0.00    +0.000 A 
BRANCH  21  22
ATOM     22  C   UNL     1      -2.835  10.362  15.417  0.00  0.00    +0.000 C 
ATOM     23  N   UNL     1      -2.775  10.076  14.289  0.00  0.00    +0.000 NA
ENDBRANCH  21  22
BRANCH  16  24
ATOM     24  O   UNL     1      -4.997  11.902  16.854  0.00  0.00    +0.000 OA
BRANCH  24  26
ATOM     25  C   UNL     1      -6.673  13.642  16.917  0.00  0.00    +0.000 C 
ATOM     26  C   UNL     1      -5.970  12.540  17.705  0.00  0.00    +0.000 C 
ATOM     27  C   UNL     1      -7.014  11.515  18.152  0.00  0.00    +0.000 C 
ENDBRANCH  24  26
ENDBRANCH  16  24
ENDBRANCH  15  19
ENDBRANCH  14  15
ENDBRANCH   1  14
BRANCH  13  28
ATOM     28  C   UNL     1       5.452   3.957  16.246  0.00  0.00    +0.000 C 
BRANCH  28  29
ATOM     29  C   UNL     1       6.325   4.162  15.037  0.00  0.00    +0.000 C 
ATOM     30  O   UNL     1       7.428   4.688  15.105  0.00  0.00    +0.000 OA
BRANCH  29  31
ATOM     31  O   UNL     1       5.779   3.820  13.850  0.00  0.00    +0.000 OA
ATOM     32  H   UNL     1       5.114   4.463  13.510  0.00  0.00    +0.000 HD
ENDBRANCH  29  31
ENDBRANCH  28  29
ENDBRANCH  13  28
TORSDOF 9
ENDMDL
MODEL 2
REMARK VINA RESULT:      -7.9      1.956      2.363
REMARK  Name = 
REMARK  11 active torsions:
REMARK  status: ('A' for Active; 'I' for Inactive)
REMARK    1  A    between atoms: C_1  and  C_2
REMARK    2  A    between atoms: C_2  and  C_3
REMARK    3  A    between atoms: C_2  and  O_4
REMARK    4  A    between atoms: O_4  and  C_5
REMARK    5  A    between atoms: C_8  and  C_9
REMARK    6  A    between atoms: C_9  and  O_10
REMARK    7  A    between atoms: O_10  and  C_11
REMARK    8  A    between atoms: C_23  and  C_24
REMARK    9  A    between atoms: C_24  and  C_25
REMARK   10  A    between atoms: C_25  and  O_27
REMARK   11  A    between atoms: C_29  and  C_30
REMARK                            x       y       z     vdW  Elec       q    Type
REMARK                         _______ _______ _______ _____ _____    ______ ____
ROOT
ATOM      1  C   UNL     1       0.851  10.240  19.937  0.00  0.00    +0.000 A 
ATOM      2  C   UNL     1       0.570   9.523  21.098  0.00  0.00    +0.000 A 
ATOM      3  C   UNL     1       0.973   8.193  21.252  0.00  0.00    +0.000 A 
ATOM      4  C   UNL     1       1.685   7.607  20.198  0.00  0.00    +0.000 A 
ATOM      5  C   UNL     1       2.004   8.313  19.037  0.00  0.00    +0.000 A 
ATOM      6  C   UNL     1       1.583   9.650  18.904  0.00  0.00    +0.000 A 
ATOM      7  C   UNL     1       2.763   7.447  18.206  0.00  0.00    +0.000 A 
ATOM      8  C   UNL     1       2.877   6.236  18.854  0.00  0.00    +0.000 A 
ATOM      9  N   UNL     1       2.220   6.347  20.053  0.00  0.00    +0.000 N 
ATOM     10  C   UNL     1       2.211   5.297  21.053  0.00  0.00    +0.000 C 
ATOM     11  C   UNL     1       2.790   3.999  20.512  0.00  0.00    +0.000 C 
ATOM     12  O   UNL     1       3.894   4.222  19.623  0.00  0.00    +0.000 OA
ATOM     13  C   UNL     1       3.560   4.982  18.439  0.00  0.00    +0.000 C 
ENDROOT
BRANCH   1  14
ATOM     14  O   UNL     1       0.420  11.537  19.943  0.00  0.00    +0.000 OA
BRANCH  14  15
ATOM     15  C   UNL     1       0.052  12.074  18.676  0.00  0.00    +0.000 C 
BRANCH  15  19
ATOM     16  C   UNL     1      -4.139  11.305  17.793  0.00  0.00    +0.000 A 
ATOM     17  C   UNL     1      -3.778  11.954  18.983  0.00  0.00    +0.000 A 
ATOM     18  C   UNL     1      -2.431  12.222  19.281  0.00  0.00    +0.000 A 
ATOM     19  C   UNL     1      -1.411  11.800  18.420  0.00  0.00    +0.000 A 
ATOM     20  C   UNL     1      -1.777  11.193  17.218  0.00  0.00    +0.000 A 
ATOM     21  C   UNL     1      -3.128  10.995  16.879  0.00  0.00    +0.000 A 
BRANCH  21  22
ATOM     22  C   UNL     1      -3.357  10.571  15.541  0.00  0.00    +0.000 C 
ATOM     23  N   UNL     1      -3.487  10.240  14.431  0.00  0.00    +0.000 NA
ENDBRANCH  21  22
BRANCH  16  24
ATOM     24  O   UNL     1      -5.488  11.118  17.608  0.00  0.00    +0.000 OA
BRANCH  24  26
ATOM     25  C   UNL     1      -7.465  12.287  18.359  0.00  0.00    +0.000 C 
ATOM     26  C   UNL     1      -6.362  11.302  18.738  0.00  0.00    +0.000 C 
ATOM     27  C   UNL     1      -7.008   9.967  19.114  0.00  0.00    +0.000 C 
ENDBRANCH  24  26
ENDBRANCH  16  24
ENDBRANCH  15  19
ENDBRANCH  14  15
ENDBRANCH   1  14
BRANCH  13  28
ATOM     28  C   UNL     1       2.720   4.164  17.464  0.00  0.00    +0.000 C 
BRANCH  28  29
ATOM     29  C   UNL     1       3.082   2.703  17.482  0.00  0.00    +0.000 C 
ATOM     30  O   UNL     1       2.244   1.820  17.613  0.00  0.00    +0.000 OA
BRANCH  29  31
ATOM     31  O   UNL     1       4.403   2.422  17.443  0.00  0.00    +0.000 OA
ATOM     32  H   UNL     1       4.828   2.598  16.572  0.00  0.00    +0.000 HD
ENDBRANCH  29  31
ENDBRANCH  28  29
ENDBRANCH  13  28
TORSDOF 9
ENDMDL
MODEL 3
REMARK VINA RESULT:      -7.8      6.705     10.083
REMARK  Name = 
REMARK  11 active torsions:
REMARK  status: ('A' for Active; 'I' for Inactive)
REMARK    1  A    between atoms: C_1  and  C_2
REMARK    2  A    between atoms: C_2  and  C_3
REMARK    3  A    between atoms: C_2  and  O_4
REMARK    4  A    between atoms: O_4  and  C_5
REMARK    5  A    between atoms: C_8  and  C_9
REMARK    6  A    between atoms: C_9  and  O_10
REMARK    7  A    between atoms: O_10  and  C_11
REMARK    8  A    between atoms: C_23  and  C_24
REMARK    9  A    between atoms: C_24  and  C_25
REMARK   10  A    between atoms: C_25  and  O_27
REMARK   11  A    between atoms: C_29  and  C_30
REMARK                            x       y       z     vdW  Elec       q    Type
REMARK                         _______ _______ _______ _____ _____    ______ ____
ROOT
ATOM      1  C   UNL     1       7.594   7.201  18.156  0.00  0.00    +0.000 A 
ATOM      2  C   UNL     1       7.944   6.267  19.128  0.00  0.00    +0.000 A 
ATOM      3  C   UNL     1       7.117   5.180  19.429  0.00  0.00    +0.000 A 
ATOM      4  C   UNL     1       5.924   5.055  18.706  0.00  0.00    +0.000 A 
ATOM      5  C   UNL     1       5.565   5.962  17.707  0.00  0.00    +0.000 A 
ATOM      6  C   UNL     1       6.413   7.050  17.425  0.00  0.00    +0.000 A 
ATOM      7  C   UNL     1       4.338   5.518  17.149  0.00  0.00    +0.000 A 
ATOM      8  C   UNL     1       3.960   4.374  17.820  0.00  0.00    +0.000 A 
ATOM      9  N   UNL     1       4.926   4.109  18.757  0.00  0.00    +0.000 N 
ATOM     10  C   UNL     1       4.918   2.923  19.590  0.00  0.00    +0.000 C 
ATOM     11  C   UNL     1       3.606   2.162  19.474  0.00  0.00    +0.000 C 
ATOM     12  O   UNL     1       3.077   2.184  18.141  0.00  0.00    +0.000 OA
ATOM     13  C   UNL     1       2.765   3.507  17.646  0.00  0.00    +0.000 C 
ENDROOT
BRANCH   1  14
ATOM     14  O   UNL     1       8.515   8.190  17.951  0.00  0.00    +0.000 OA
BRANCH  14  15
ATOM     15  C   UNL     1       7.984   9.487  17.691  0.00  0.00    +0.000 C 
BRANCH  15  19
ATOM     16  C   UNL     1      10.466  12.495  19.621  0.00  0.00    +0.000 A 
ATOM     17  C   UNL     1       9.981  11.405  20.358  0.00  0.00    +0.000 A 
ATOM     18  C   UNL     1       9.187  10.417  19.750  0.00  0.00    +0.000 A 
ATOM     19  C   UNL     1       8.818  10.524  18.404  0.00  0.00    +0.000 A 
ATOM     20  C   UNL     1       9.339  11.586  17.665  0.00  0.00    +0.000 A 
ATOM     21  C   UNL     1      10.199  12.534  18.250  0.00  0.00    +0.000 A 
BRANCH  21  22
ATOM     22  C   UNL     1      10.824  13.426  17.334  0.00  0.00    +0.000 C 
ATOM     23  N   UNL     1      11.317  14.119  16.539  0.00  0.00    +0.000 NA
ENDBRANCH  21  22
BRANCH  16  24
ATOM     24  O   UNL     1      11.246  13.381  20.323  0.00  0.00    +0.000 OA
BRANCH  24  26
ATOM     25  C   UNL     1      10.204  14.798  21.979  0.00  0.00    +0.000 C 
ATOM     26  C   UNL     1      10.733  14.709  20.551  0.00  0.00    +0.000 C 
ATOM     27  C   UNL     1      11.857  15.733  20.380  0.00  0.00    +0.000 C 
ENDBRANCH  24  26
ENDBRANCH  16  24
ENDBRANCH  15  19
ENDBRANCH  14  15
ENDBRANCH   1  14
BRANCH  13  28
ATOM     28  C   UNL     1       1.530   4.084  18.328  0.00  0.00    +0.000 C 
BRANCH  28  29
ATOM     29  C   UNL     1       0.682   3.021  18.974  0.00  0.00    +0.000 C 
ATOM     30  O   UNL     1       0.197   2.093  18.339  0.00  0.00    +0.000 OA
BRANCH  29  31
ATOM     31  O   UNL     1       0.402   3.202  20.283  0.00  0.00    +0.000 OA
ATOM     32  H   UNL     1       1.157   3.012  20.887  0.00  0.00    +0.000 HD
ENDBRANCH  29  31
ENDBRANCH  28  29
ENDBRANCH  13  28
TORSDOF 9
ENDMDL
MODEL 4
REMARK VINA RESULT:      -7.7      6.683      9.678
REMARK  Name = 
REMARK  11 active torsions:
REMARK  status: ('A' for Active; 'I' for Inactive)
REMARK    1  A    between atoms: C_1  and  C_2
REMARK    2  A    between atoms: C_2  and  C_3
REMARK    3  A    between atoms: C_2  and  O_4
REMARK    4  A    between atoms: O_4  and  C_5
REMARK    5  A    between atoms: C_8  and  C_9
REMARK    6  A    between atoms: C_9  and  O_10
REMARK    7  A    between atoms: O_10  and  C_11
REMARK    8  A    between atoms: C_23  and  C_24
REMARK    9  A    between atoms: C_24  and  C_25
REMARK   10  A    between atoms: C_25  and  O_27
REMARK   11  A    between atoms: C_29  and  C_30
REMARK                            x       y       z     vdW  Elec       q    Type
REMARK                         _______ _______ _______ _____ _____    ______ ____
ROOT
ATOM      1  C   UNL     1       7.423   7.683  17.821  0.00  0.00    +0.000 A 
ATOM      2  C   UNL     1       7.929   6.756  18.730  0.00  0.00    +0.000 A 
ATOM      3  C   UNL     1       7.207   5.614  19.088  0.00  0.00    +0.000 A 
ATOM      4  C   UNL     1       5.956   5.424  18.489  0.00  0.00    +0.000 A 
ATOM      5  C   UNL     1       5.439   6.323  17.553  0.00  0.00    +0.000 A 
ATOM      6  C   UNL     1       6.183   7.469  17.212  0.00  0.00    +0.000 A 
ATOM      7  C   UNL     1       4.190   5.810  17.115  0.00  0.00    +0.000 A 
ATOM      8  C   UNL     1       3.957   4.633  17.793  0.00  0.00    +0.000 A 
ATOM      9  N   UNL     1       5.029   4.415  18.620  0.00  0.00    +0.000 N 
ATOM     10  C   UNL     1       5.182   3.217  19.421  0.00  0.00    +0.000 C 
ATOM     11  C   UNL     1       3.915   2.374  19.422  0.00  0.00    +0.000 C 
ATOM     12  O   UNL     1       3.251   2.385  18.151  0.00  0.00    +0.000 OA
ATOM     13  C   UNL     1       2.807   3.693  17.722  0.00  0.00    +0.000 C 
ENDROOT
BRANCH   1  14
ATOM     14  O   UNL     1       8.253   8.733  17.547  0.00  0.00    +0.000 OA
BRANCH  14  15
ATOM     15  C   UNL     1       8.888   9.331  18.673  0.00  0.00    +0.000 C 
BRANCH  15  19
ATOM     16  C   UNL     1      10.082  13.367  17.571  0.00  0.00    +0.000 A 
ATOM     17  C   UNL     1      11.015  12.321  17.526  0.00  0.00    +0.000 A 
ATOM     18  C   UNL     1      10.646  11.008  17.868  0.00  0.00    +0.000 A 
ATOM     19  C   UNL     1       9.349  10.723  18.310  0.00  0.00    +0.000 A 
ATOM     20  C   UNL     1       8.414  11.758  18.311  0.00  0.00    +0.000 A 
ATOM     21  C   UNL     1       8.759  13.057  17.895  0.00  0.00    +0.000 A 
BRANCH  21  22
ATOM     22  C   UNL     1       7.662  13.950  17.738  0.00  0.00    +0.000 C 
ATOM     23  N   UNL     1       6.803  14.721  17.587  0.00  0.00    +0.000 NA
ENDBRANCH  21  22
BRANCH  16  24
ATOM     24  O   UNL     1      10.560  14.600  17.195  0.00  0.00    +0.000 OA
BRANCH  24  26
ATOM     25  C   UNL     1      10.159  16.727  18.271  0.00  0.00    +0.000 C 
ATOM     26  C   UNL     1      11.046  15.485  18.224  0.00  0.00    +0.000 C 
ATOM     27  C   UNL     1      10.978  14.784  19.582  0.00  0.00    +0.000 C 
ENDBRANCH  24  26
ENDBRANCH  16  24
ENDBRANCH  15  19
ENDBRANCH  14  15
ENDBRANCH   1  14
BRANCH  13  28
ATOM     28  C   UNL     1       1.616   4.178  18.541  0.00  0.00    +0.000 C 
BRANCH  28  29
ATOM     29  C   UNL     1       0.791   3.040  19.081  0.00  0.00    +0.000 C 
ATOM     30  O   UNL     1       0.269   2.204  18.355  0.00  0.00    +0.000 OA
BRANCH  29  31
ATOM     31  O   UNL     1       0.575   3.048  20.415  0.00  0.00    +0.000 OA
ATOM     32  H   UNL     1       1.320   2.686  20.947  0.00  0.00    +0.000 HD
ENDBRANCH  29  31
ENDBRANCH  28  29
ENDBRANCH  13  28
TORSDOF 9
ENDMDL
MODEL 5
REMARK VINA RESULT:      -7.7      3.869      9.867
REMARK  Name = 
REMARK  11 active torsions:
REMARK  status: ('A' for Active; 'I' for Inactive)
REMARK    1  A    between atoms: C_1  and  C_2
REMARK    2  A    between atoms: C_2  and  C_3
REMARK    3  A    between atoms: C_2  and  O_4
REMARK    4  A    between atoms: O_4  and  C_5
REMARK    5  A    between atoms: C_8  and  C_9
REMARK    6  A    between atoms: C_9  and  O_10
REMARK    7  A    between atoms: O_10  and  C_11
REMARK    8  A    between atoms: C_23  and  C_24
REMARK    9  A    between atoms: C_24  and  C_25
REMARK   10  A    between atoms: C_25  and  O_27
REMARK   11  A    between atoms: C_29  and  C_30
REMARK                            x       y       z     vdW  Elec       q    Type
REMARK                         _______ _______ _______ _____ _____    ______ ____
ROOT
ATOM      1  C   UNL     1       2.208   6.173  19.253  0.00  0.00    +0.000 A 
ATOM      2  C   UNL     1       1.631   6.386  20.503  0.00  0.00    +0.000 A 
ATOM      3  C   UNL     1       1.217   7.658  20.910  0.00  0.00    +0.000 A 
ATOM      4  C   UNL     1       1.391   8.715  20.008  0.00  0.00    +0.000 A 
ATOM      5  C   UNL     1       1.941   8.522  18.739  0.00  0.00    +0.000 A 
ATOM      6  C   UNL     1       2.354   7.232  18.354  0.00  0.00    +0.000 A 
ATOM      7  C   UNL     1       1.929   9.776  18.074  0.00  0.00    +0.000 A 
ATOM      8  C   UNL     1       1.398  10.707  18.941  0.00  0.00    +0.000 A 
ATOM      9  N   UNL     1       1.081  10.052  20.104  0.00  0.00    +0.000 N 
ATOM     10  C   UNL     1       0.408  10.692  21.216  0.00  0.00    +0.000 C 
ATOM     11  C   UNL     1       0.330  12.201  21.035  0.00  0.00    +0.000 C 
ATOM     12  O   UNL     1       0.111  12.576  19.668  0.00  0.00    +0.000 OA
ATOM     13  C   UNL     1       1.160  12.164  18.762  0.00  0.00    +0.000 C 
ENDROOT
BRANCH   1  14
ATOM     14  O   UNL     1       2.535   4.873  18.985  0.00  0.00    +0.000 OA
BRANCH  14  15
ATOM     15  C   UNL     1       3.812   4.447  19.450  0.00  0.00    +0.000 C 
BRANCH  15  19
ATOM     16  C   UNL     1       6.677   4.777  16.191  0.00  0.00    +0.000 A 
ATOM     17  C   UNL     1       5.726   3.745  16.191  0.00  0.00    +0.000 A 
ATOM     18  C   UNL     1       4.785   3.628  17.228  0.00  0.00    +0.000 A 
ATOM     19  C   UNL     1       4.807   4.510  18.315  0.00  0.00    +0.000 A 
ATOM     20  C   UNL     1       5.726   5.559  18.290  0.00  0.00    +0.000 A 
ATOM     21  C   UNL     1       6.618   5.726  17.214  0.00  0.00    +0.000 A 
BRANCH  21  22
ATOM     22  C   UNL     1       7.338   6.953  17.215  0.00  0.00    +0.000 C 
ATOM     23  N   UNL     1       7.889   7.978  17.257  0.00  0.00    +0.000 NA
ENDBRANCH  21  22
BRANCH  16  24
ATOM     24  O   UNL     1       7.528   4.795  15.112  0.00  0.00    +0.000 OA
BRANCH  24  26
ATOM     25  C   UNL     1       8.083   5.514  12.873  0.00  0.00    +0.000 C 
ATOM     26  C   UNL     1       6.970   5.047  13.808  0.00  0.00    +0.000 C 
ATOM     27  C   UNL     1       6.367   3.758  13.246  0.00  0.00    +0.000 C 
ENDBRANCH  24  26
ENDBRANCH  16  24
ENDBRANCH  15  19
ENDBRANCH  14  15
ENDBRANCH   1  14
BRANCH  13  28
ATOM     28  C   UNL     1       2.429  12.984  18.962  0.00  0.00    +0.000 C 
BRANCH  28  29
ATOM     29  C   UNL     1       2.341  14.342  18.319  0.00  0.00    +0.000 C 
ATOM     30  O   UNL     1       1.467  15.149  18.605  0.00  0.00    +0.000 OA
BRANCH  29  31
ATOM     31  O   UNL     1       3.229  14.586  17.330  0.00  0.00    +0.000 OA
ATOM     32  H   UNL     1       4.164  14.387  17.568  0.00  0.00    +0.000 HD
ENDBRANCH  29  31
ENDBRANCH  28  29
ENDBRANCH  13  28
TORSDOF 9
ENDMDL
MODEL 6
REMARK VINA RESULT:      -7.6      3.556     11.044
REMARK  Name = 
REMARK  11 active torsions:
REMARK  status: ('A' for Active; 'I' for Inactive)
REMARK    1  A    between atoms: C_1  and  C_2
REMARK    2  A    between atoms: C_2  and  C_3
REMARK    3  A    between atoms: C_2  and  O_4
REMARK    4  A    between atoms: O_4  and  C_5
REMARK    5  A    between atoms: C_8  and  C_9
REMARK    6  A    between atoms: C_9  and  O_10
REMARK    7  A    between atoms: O_10  and  C_11
REMARK    8  A    between atoms: C_23  and  C_24
REMARK    9  A    between atoms: C_24  and  C_25
REMARK   10  A    between atoms: C_25  and  O_27
REMARK   11  A    between atoms: C_29  and  C_30
REMARK                            x       y       z     vdW  Elec       q    Type
REMARK                         _______ _______ _______ _____ _____    ______ ____
ROOT
ATOM      1  C   UNL     1       1.119   8.776  20.920  0.00  0.00    +0.000 A 
ATOM      2  C   UNL     1       0.902   9.484  19.740  0.00  0.00    +0.000 A 
ATOM      3  C   UNL     1       0.041  10.585  19.696  0.00  0.00    +0.000 A 
ATOM      4  C   UNL     1      -0.589  10.963  20.888  0.00  0.00    +0.000 A 
ATOM      5  C   UNL     1      -0.366  10.287  22.089  0.00  0.00    +0.000 A 
ATOM      6  C   UNL     1       0.502   9.178  22.108  0.00  0.00    +0.000 A 
ATOM      7  C   UNL     1      -1.114  10.951  23.097  0.00  0.00    +0.000 A 
ATOM      8  C   UNL     1      -1.788  11.995  22.501  0.00  0.00    +0.000 A 
ATOM      9  N   UNL     1      -1.463  11.987  21.168  0.00  0.00    +0.000 N 
ATOM     10  C   UNL     1      -1.910  13.005  20.237  0.00  0.00    +0.000 C 
ATOM     11  C   UNL     1      -2.963  13.912  20.857  0.00  0.00    +0.000 C 
ATOM     12  O   UNL     1      -2.707  14.179  22.242  0.00  0.00    +0.000 OA
ATOM     13  C   UNL     1      -2.711  13.004  23.086  0.00  0.00    +0.000 C 
ENDROOT
BRANCH   1  14
ATOM     14  O   UNL     1       2.008   7.744  20.816  0.00  0.00    +0.000 OA
BRANCH  14  15
ATOM     15  C   UNL     1       1.466   6.500  20.383  0.00  0.00    +0.000 C 
BRANCH  15  19
ATOM     16  C   UNL     1       3.976   4.749  17.291  0.00  0.00    +0.000 A 
ATOM     17  C   UNL     1       3.914   6.142  17.441  0.00  0.00    +0.000 A 
ATOM     18  C   UNL     1       3.117   6.727  18.442  0.00  0.00    +0.000 A 
ATOM     19  C   UNL     1       2.326   5.932  19.280  0.00  0.00    +0.000 A 
ATOM     20  C   UNL     1       2.425   4.547  19.154  0.00  0.00    +0.000 A 
ATOM     21  C   UNL     1       3.281   3.956  18.207  0.00  0.00    +0.000 A 
BRANCH  21  22
ATOM     22  C   UNL     1       3.446   2.549  18.340  0.00  0.00    +0.000 C 
ATOM     23  N   UNL     1       3.633   1.402  18.419  0.00  0.00    +0.000 NA
ENDBRANCH  21  22
BRANCH  16  24
ATOM     24  O   UNL     1       4.804   4.301  16.290  0.00  0.00    +0.000 OA
BRANCH  24  26
ATOM     25  C   UNL     1       7.098   4.514  17.020  0.00  0.00    +0.000 C 
ATOM     26  C   UNL     1       6.032   5.016  16.050  0.00  0.00    +0.000 C 
ATOM     27  C   UNL     1       6.510   4.755  14.620  0.00  0.00    +0.000 C 
ENDBRANCH  24  26
ENDBRANCH  16  24
ENDBRANCH  15  19
ENDBRANCH  14  15
ENDBRANCH   1  14
BRANCH  13  28
ATOM     28  C   UNL     1      -4.120  12.454  23.276  0.00  0.00    +0.000 C 
BRANCH  28  29
ATOM     29  C   UNL     1      -5.034  13.441  23.952  0.00  0.00    +0.000 C 
ATOM     30  O   UNL     1      -6.252  13.387  23.847  0.00  0.00    +0.000 OA
BRANCH  29  31
ATOM     31  O   UNL     1      -4.427  14.455  24.607  0.00  0.00    +0.000 OA
ATOM     32  H   UNL     1      -3.533  14.682  24.261  0.00  0.00    +0.000 HD
ENDBRANCH  29  31
ENDBRANCH  28  29
ENDBRANCH  13  28
TORSDOF 9
ENDMDL
MODEL 7
REMARK VINA RESULT:      -7.4      3.259     10.579
REMARK  Name = 
REMARK  11 active torsions:
REMARK  status: ('A' for Active; 'I' for Inactive)
REMARK    1  A    between atoms: C_1  and  C_2
REMARK    2  A    between atoms: C_2  and  C_3
REMARK    3  A    between atoms: C_2  and  O_4
REMARK    4  A    between atoms: O_4  and  C_5
REMARK    5  A    between atoms: C_8  and  C_9
REMARK    6  A    between atoms: C_9  and  O_10
REMARK    7  A    between atoms: O_10  and  C_11
REMARK    8  A    between atoms: C_23  and  C_24
REMARK    9  A    between atoms: C_24  and  C_25
REMARK   10  A    between atoms: C_25  and  O_27
REMARK   11  A    between atoms: C_29  and  C_30
REMARK                            x       y       z     vdW  Elec       q    Type
REMARK                         _______ _______ _______ _____ _____    ______ ____
ROOT
ATOM      1  C   UNL     1       2.187   7.544  19.819  0.00  0.00    +0.000 A 
ATOM      2  C   UNL     1       2.142   8.234  18.609  0.00  0.00    +0.000 A 
ATOM      3  C   UNL     1       1.470   9.454  18.487  0.00  0.00    +0.000 A 
ATOM      4  C   UNL     1       0.851   9.969  19.633  0.00  0.00    +0.000 A 
ATOM      5  C   UNL     1       0.907   9.311  20.864  0.00  0.00    +0.000 A 
ATOM      6  C   UNL     1       1.586   8.082  20.960  0.00  0.00    +0.000 A 
ATOM      7  C   UNL     1       0.226  10.121  21.810  0.00  0.00    +0.000 A 
ATOM      8  C   UNL     1      -0.245  11.235  21.150  0.00  0.00    +0.000 A 
ATOM      9  N   UNL     1       0.138  11.128  19.837  0.00  0.00    +0.000 N 
ATOM     10  C   UNL     1      -0.097  12.168  18.855  0.00  0.00    +0.000 C 
ATOM     11  C   UNL     1      -1.020  13.251  19.391  0.00  0.00    +0.000 C 
ATOM     12  O   UNL     1      -0.792  13.525  20.781  0.00  0.00    +0.000 OA
ATOM     13  C   UNL     1      -1.023  12.397  21.656  0.00  0.00    +0.000 C 
ENDROOT
BRANCH   1  14
ATOM     14  O   UNL     1       2.905   6.382  19.792  0.00  0.00    +0.000 OA
BRANCH  14  15
ATOM     15  C   UNL     1       2.393   5.356  18.946  0.00  0.00    +0.000 C 
BRANCH  15  19
ATOM     16  C   UNL     1       5.511   4.277  16.109  0.00  0.00    +0.000 A 
ATOM     17  C   UNL     1       4.295   3.577  16.119  0.00  0.00    +0.000 A 
ATOM     18  C   UNL     1       3.271   3.918  17.020  0.00  0.00    +0.000 A 
ATOM     19  C   UNL     1       3.460   4.933  17.966  0.00  0.00    +0.000 A 
ATOM     20  C   UNL     1       4.653   5.654  17.923  0.00  0.00    +0.000 A 
ATOM     21  C   UNL     1       5.649   5.368  16.971  0.00  0.00    +0.000 A 
BRANCH  21  22
ATOM     22  C   UNL     1       6.706   6.318  16.902  0.00  0.00    +0.000 C 
ATOM     23  N   UNL     1       7.565   7.096  16.786  0.00  0.00    +0.000 NA
ENDBRANCH  21  22
BRANCH  16  24
ATOM     24  O   UNL     1       6.423   3.862  15.170  0.00  0.00    +0.000 OA
BRANCH  24  26
ATOM     25  C   UNL     1       7.731   5.096  13.556  0.00  0.00    +0.000 C 
ATOM     26  C   UNL     1       6.376   4.464  13.861  0.00  0.00    +0.000 C 
ATOM     27  C   UNL     1       6.088   3.391  12.809  0.00  0.00    +0.000 C 
ENDBRANCH  24  26
ENDBRANCH  16  24
ENDBRANCH  15  19
ENDBRANCH  14  15
ENDBRANCH   1  14
BRANCH  13  28
ATOM     28  C   UNL     1      -2.509  12.083  21.787  0.00  0.00    +0.000 C 
BRANCH  28  29
ATOM     29  C   UNL     1      -3.116  12.692  23.022  0.00  0.00    +0.000 C 
ATOM     30  O   UNL     1      -4.043  12.166  23.626  0.00  0.00    +0.000 OA
BRANCH  29  31
ATOM     31  O   UNL     1      -2.645  13.907  23.375  0.00  0.00    +0.000 OA
ATOM     32  H   UNL     1      -2.016  13.893  24.133  0.00  0.00    +0.000 HD
ENDBRANCH  29  31
ENDBRANCH  28  29
ENDBRANCH  13  28
TORSDOF 9
ENDMDL
MODEL 8
REMARK VINA RESULT:      -7.4      7.220     11.061
REMARK  Name = 
REMARK  11 active torsions:
REMARK  status: ('A' for Active; 'I' for Inactive)
REMARK    1  A    between atoms: C_1  and  C_2
REMARK    2  A    between atoms: C_2  and  C_3
REMARK    3  A    between atoms: C_2  and  O_4
REMARK    4  A    between atoms: O_4  and  C_5
REMARK    5  A    between atoms: C_8  and  C_9
REMARK    6  A    between atoms: C_9  and  O_10
REMARK    7  A    between atoms: O_10  and  C_11
REMARK    8  A    between atoms: C_23  and  C_24
REMARK    9  A    between atoms: C_24  and  C_25
REMARK   10  A    between atoms: C_25  and  O_27
REMARK   11  A    between atoms: C_29  and  C_30
REMARK                            x       y       z     vdW  Elec       q    Type
REMARK                         _______ _______ _______ _____ _____    ______ ____
ROOT
ATOM      1  C   UNL     1       8.384   9.700  18.038  0.00  0.00    +0.000 A 
ATOM      2  C   UNL     1       9.237   9.635  19.137  0.00  0.00    +0.000 A 
ATOM      3  C   UNL     1       9.860  10.778  19.648  0.00  0.00    +0.000 A 
ATOM      4  C   UNL     1       9.585  12.000  19.022  0.00  0.00    +0.000 A 
ATOM      5  C   UNL     1       8.711  12.096  17.937  0.00  0.00    +0.000 A 
ATOM      6  C   UNL     1       8.099  10.930  17.438  0.00  0.00    +0.000 A 
ATOM      7  C   UNL     1       8.623  13.467  17.581  0.00  0.00    +0.000 A 
ATOM      8  C   UNL     1       9.447  14.176  18.429  0.00  0.00    +0.000 A 
ATOM      9  N   UNL     1      10.022  13.277  19.290  0.00  0.00    +0.000 N 
ATOM     10  C   UNL     1      10.879  13.670  20.391  0.00  0.00    +0.000 C 
ATOM     11  C   UNL     1      11.252  15.143  20.316  0.00  0.00    +0.000 C 
ATOM     12  O   UNL     1      10.173  15.956  19.837  0.00  0.00    +0.000 OA
ATOM     13  C   UNL     1       9.733  15.633  18.497  0.00  0.00    +0.000 C 
ENDROOT
BRANCH   1  14
ATOM     14  O   UNL     1       7.826   8.508  17.671  0.00  0.00    +0.000 OA
BRANCH  14  15
ATOM     15  C   UNL     1       8.186   7.384  18.469  0.00  0.00    +0.000 C 
BRANCH  15  19
ATOM     16  C   UNL     1       5.428   4.153  17.526  0.00  0.00    +0.000 A 
ATOM     17  C   UNL     1       5.488   4.669  18.829  0.00  0.00    +0.000 A 
ATOM     18  C   UNL     1       6.364   5.721  19.150  0.00  0.00    +0.000 A 
ATOM     19  C   UNL     1       7.236   6.244  18.188  0.00  0.00    +0.000 A 
ATOM     20  C   UNL     1       7.142   5.757  16.885  0.00  0.00    +0.000 A 
ATOM     21  C   UNL     1       6.211   4.759  16.540  0.00  0.00    +0.000 A 
BRANCH  21  22
ATOM     22  C   UNL     1       6.075   4.520  15.145  0.00  0.00    +0.000 C 
ATOM     23  N   UNL     1       5.967   4.383  13.993  0.00  0.00    +0.000 NA
ENDBRANCH  21  22
BRANCH  16  24
ATOM     24  O   UNL     1       4.519   3.141  17.333  0.00  0.00    +0.000 OA
BRANCH  24  26
ATOM     25  C   UNL     1       2.172   3.679  17.536  0.00  0.00    +0.000 C 
ATOM     26  C   UNL     1       3.388   3.063  18.223  0.00  0.00    +0.000 C 
ATOM     27  C   UNL     1       3.081   1.598  18.540  0.00  0.00    +0.000 C 
ENDBRANCH  24  26
ENDBRANCH  16  24
ENDBRANCH  15  19
ENDBRANCH  14  15
ENDBRANCH   1  14
BRANCH  13  28
ATOM     28  C   UNL     1      10.753  16.070  17.451  0.00  0.00    +0.000 C 
BRANCH  28  29
ATOM     29  C   UNL     1      10.979  17.558  17.457  0.00  0.00    +0.000 C 
ATOM     30  O   UNL     1      10.061  18.362  17.362  0.00  0.00    +0.000 OA
BRANCH  29  31
ATOM     31  O   UNL     1      12.269  17.959  17.476  0.00  0.00    +0.000 OA
ATOM     32  H   UNL     1      12.446  18.725  18.070  0.00  0.00    +0.000 HD
ENDBRANCH  29  31
ENDBRANCH  28  29
ENDBRANCH  13  28
TORSDOF 9
ENDMDL
MODEL 9
REMARK VINA RESULT:      -7.4      3.756     10.180
REMARK  Name = 
REMARK  11 active torsions:
REMARK  status: ('A' for Active; 'I' for Inactive)
REMARK    1  A    between atoms: C_1  and  C_2
REMARK    2  A    between atoms: C_2  and  C_3
REMARK    3  A    between atoms: C_2  and  O_4
REMARK    4  A    between atoms: O_4  and  C_5
REMARK    5  A    between atoms: C_8  and  C_9
REMARK    6  A    between atoms: C_9  and  O_10
REMARK    7  A    between atoms: O_10  and  C_11
REMARK    8  A    between atoms: C_23  and  C_24
REMARK    9  A    between atoms: C_24  and  C_25
REMARK   10  A    between atoms: C_25  and  O_27
REMARK   11  A    between atoms: C_29  and  C_30
REMARK                            x       y       z     vdW  Elec       q    Type
REMARK                         _______ _______ _______ _____ _____    ______ ____
ROOT
ATOM      1  C   UNL     1       2.211   5.799  19.458  0.00  0.00    +0.000 A 
ATOM      2  C   UNL     1       2.321   6.582  18.311  0.00  0.00    +0.000 A 
ATOM      3  C   UNL     1       2.005   7.943  18.322  0.00  0.00    +0.000 A 
ATOM      4  C   UNL     1       1.585   8.501  19.536  0.00  0.00    +0.000 A 
ATOM      5  C   UNL     1       1.494   7.744  20.706  0.00  0.00    +0.000 A 
ATOM      6  C   UNL     1       1.813   6.373  20.668  0.00  0.00    +0.000 A 
ATOM      7  C   UNL     1       1.089   8.618  21.748  0.00  0.00    +0.000 A 
ATOM      8  C   UNL     1       0.922   9.873  21.204  0.00  0.00    +0.000 A 
ATOM      9  N   UNL     1       1.222   9.786  19.868  0.00  0.00    +0.000 N 
ATOM     10  C   UNL     1       1.253  10.935  18.986  0.00  0.00    +0.000 C 
ATOM     11  C   UNL     1       0.677  12.174  19.654  0.00  0.00    +0.000 C 
ATOM     12  O   UNL     1       1.012  12.250  21.046  0.00  0.00    +0.000 OA
ATOM     13  C   UNL     1       0.507  11.152  21.840  0.00  0.00    +0.000 C 
ENDROOT
BRANCH   1  14
ATOM     14  O   UNL     1       2.582   4.493  19.301  0.00  0.00    +0.000 OA
BRANCH  14  15
ATOM     15  C   UNL     1       3.976   4.225  19.428  0.00  0.00    +0.000 C 
BRANCH  15  19
ATOM     16  C   UNL     1       6.017   5.452  15.787  0.00  0.00    +0.000 A 
ATOM     17  C   UNL     1       4.996   4.493  15.732  0.00  0.00    +0.000 A 
ATOM     18  C   UNL     1       4.317   4.092  16.895  0.00  0.00    +0.000 A 
ATOM     19  C   UNL     1       4.679   4.604  18.147  0.00  0.00    +0.000 A 
ATOM     20  C   UNL     1       5.666   5.588  18.191  0.00  0.00    +0.000 A 
ATOM     21  C   UNL     1       6.293   6.050  17.019  0.00  0.00    +0.000 A 
BRANCH  21  22
ATOM     22  C   UNL     1       7.112   7.202  17.189  0.00  0.00    +0.000 C 
ATOM     23  N   UNL     1       7.804   8.119  17.378  0.00  0.00    +0.000 NA
ENDBRANCH  21  22
BRANCH  16  24
ATOM     24  O   UNL     1       6.591   5.774  14.580  0.00  0.00    +0.000 OA
BRANCH  24  26
ATOM     25  C   UNL     1       6.284   3.853  13.147  0.00  0.00    +0.000 C 
ATOM     26  C   UNL     1       7.296   4.742  13.864  0.00  0.00    +0.000 C 
ATOM     27  C   UNL     1       8.217   5.376  12.819  0.00  0.00    +0.000 C 
ENDBRANCH  24  26
ENDBRANCH  16  24
ENDBRANCH  15  19
ENDBRANCH  14  15
ENDBRANCH   1  14
BRANCH  13  28
ATOM     28  C   UNL     1      -1.004  11.240  22.024  0.00  0.00    +0.000 C 
BRANCH  28  29
ATOM     29  C   UNL     1      -1.438  12.575  22.566  0.00  0.00    +0.000 C 
ATOM     30  O   UNL     1      -2.462  13.134  22.194  0.00  0.00    +0.000 OA
BRANCH  29  31
ATOM     31  O   UNL     1      -0.579  13.174  23.420  0.00  0.00    +0.000 OA
ATOM     32  H   UNL     1      -0.735  12.959  24.368  0.00  0.00    +0.000 HD
ENDBRANCH  29  31
ENDBRANCH  28  29
ENDBRANCH  13  28
TORSDOF 9
ENDMDL
