MODEL 1
REMARK VINA RESULT:      -8.3      0.000      0.000
REMARK  Name = 
REMARK  7 active torsions:
REMARK  status: ('A' for Active; 'I' for Inactive)
REMARK    1  A    between atoms: C_1  and  C_2
REMARK    2  A    between atoms: C_2  and  N_3
REMARK    3  A    between atoms: N_3  and  C_25
REMARK    4  A    between atoms: C_4  and  C_6
REMARK    5  A    between atoms: C_6  and  N_7
REMARK    6  A    between atoms: C_9  and  C_10
REMARK    7  A    between atoms: C_10  and  C_11
REMARK                            x       y       z     vdW  Elec       q    Type
REMARK                         _______ _______ _______ _____ _____    ______ ____
ROOT
ATOM      1  N   UNL     1       2.343   6.479  19.792  0.00  0.00    +0.000 N 
ATOM      2  N   UNL     1       3.297   6.628  18.820  0.00  0.00    +0.000 NA
ATOM      3  C   UNL     1       3.541   5.659  17.994  0.00  0.00    +0.000 A 
ATOM      4  C   UNL     1       2.914   4.326  18.112  0.00  0.00    +0.000 A 
ATOM      5  C   UNL     1       3.265   3.236  17.306  0.00  0.00    +0.000 A 
ATOM      6  C   UNL     1       2.706   1.979  17.545  0.00  0.00    +0.000 A 
ATOM      7  C   UNL     1       1.777   1.810  18.568  0.00  0.00    +0.000 A 
ATOM      8  C   UNL     1       1.400   2.902  19.351  0.00  0.00    +0.000 A 
ATOM      9  C   UNL     1       1.978   4.160  19.128  0.00  0.00    +0.000 A 
ATOM     10  C   UNL     1       1.618   5.307  19.987  0.00  0.00    +0.000 A 
ATOM     11  O   UNL     1       0.734   5.181  20.829  0.00  0.00    +0.000 OA
ENDROOT
BRANCH   1  12
ATOM     12  C   UNL     1       2.064   7.670  20.606  0.00  0.00    +0.000 C 
BRANCH  12  14
ATOM     13  N   UNL     1       0.163   9.334  20.387  0.00  0.00    +0.000 N 
ATOM     14  C   UNL     1       1.320   8.765  19.815  0.00  0.00    +0.000 C 
ATOM     15  O   UNL     1       1.744   9.150  18.720  0.00  0.00    +0.000 OA
BRANCH  13  16
ATOM     16  C   UNL     1      -0.542  10.313  19.610  0.00  0.00    +0.000 A 
ATOM     17  C   UNL     1      -0.271  11.683  19.758  0.00  0.00    +0.000 A 
ATOM     18  C   UNL     1      -0.950  12.627  18.991  0.00  0.00    +0.000 A 
ATOM     19  C   UNL     1      -1.899  12.214  18.049  0.00  0.00    +0.000 A 
ATOM     20  C   UNL     1      -2.145  10.854  17.879  0.00  0.00    +0.000 A 
ATOM     21 CL   UNL     1      -3.282  10.329  16.698  0.00  0.00    +0.000 Cl
ATOM     22  C   UNL     1      -1.474   9.908  18.651  0.00  0.00    +0.000 A 
ENDBRANCH  13  16
BRANCH  13  24
ATOM     23  C   UNL     1      -0.100   9.709  22.852  0.00  0.00    +0.000 C 
ATOM     24  C   UNL     1      -0.491   8.881  21.632  0.00  0.00    +0.000 C 
ENDBRANCH  13  24
ENDBRANCH  12  14
ENDBRANCH   1  12
BRANCH   3  25
ATOM     25  C   UNL     1       4.574   5.936  16.909  0.00  0.00    +0.000 C 
BRANCH  25  26
ATOM     26  C   UNL     1       5.920   6.259  17.509  0.00  0.00    +0.000 A 
ATOM     27  C   UNL     1       6.508   5.419  18.455  0.00  0.00    +0.000 A 
ATOM     28  C   UNL     1       7.698   5.818  19.044  0.00  0.00    +0.000 A 
ATOM     29  N   UNL     1       8.343   6.964  18.742  0.00  0.00    +0.000 NA
ATOM     30  C   UNL     1       7.779   7.742  17.797  0.00  0.00    +0.000 A 
ATOM     31  C   UNL     1       6.591   7.435  17.155  0.00  0.00    +0.000 A 
ENDBRANCH  25  26
ENDBRANCH   3  25
TORSDOF 6
ENDMDL
MODEL 2
REMARK VINA RESULT:      -8.2      1.409      1.913
REMARK  Name = 
REMARK  7 active torsions:
REMARK  status: ('A' for Active; 'I' for Inactive)
REMARK    1  A    between atoms: C_1  and  C_2
REMARK    2  A    between atoms: C_2  and  N_3
REMARK    3  A    between atoms: N_3  and  C_25
REMARK    4  A    between atoms: C_4  and  C_6
REMARK    5  A    between atoms: C_6  and  N_7
REMARK    6  A    between atoms: C_9  and  C_10
REMARK    7  A    between atoms: C_10  and  C_11
REMARK                            x       y       z     vdW  Elec       q    Type
REMARK                         _______ _______ _______ _____ _____    ______ ____
ROOT
ATOM      1  N   UNL     1       2.268   7.150  19.772  0.00  0.00    +0.000 N 
ATOM      2  N   UNL     1       3.085   7.337  18.689  0.00  0.00    +0.000 NA
ATOM      3  C   UNL     1       3.303   6.363  17.861  0.00  0.00    +0.000 A 
ATOM      4  C   UNL     1       2.798   4.991  18.085  0.00  0.00    +0.000 A 
ATOM      5  C   UNL     1       3.133   3.905  17.268  0.00  0.00    +0.000 A 
ATOM      6  C   UNL     1       2.705   2.618  17.602  0.00  0.00    +0.000 A 
ATOM      7  C   UNL     1       1.920   2.415  18.734  0.00  0.00    +0.000 A 
ATOM      8  C   UNL     1       1.556   3.501  19.532  0.00  0.00    +0.000 A 
ATOM      9  C   UNL     1       2.005   4.791  19.211  0.00  0.00    +0.000 A 
ATOM     10  C   UNL     1       1.663   5.935  20.080  0.00  0.00    +0.000 A 
ATOM     11  O   UNL     1       0.898   5.771  21.026  0.00  0.00    +0.000 OA
ENDROOT
BRANCH   1  12
ATOM     12  C   UNL     1       1.997   8.343  20.586  0.00  0.00    +0.000 C 
BRANCH  12  14
ATOM     13  N   UNL     1       0.549   9.805  19.104  0.00  0.00    +0.000 N 
ATOM     14  C   UNL     1       0.638   8.990  20.252  0.00  0.00    +0.000 C 
ATOM     15  O   UNL     1      -0.352   8.778  20.960  0.00  0.00    +0.000 OA
BRANCH  13  16
ATOM     16  C   UNL     1      -0.712  10.438  18.843  0.00  0.00    +0.000 A 
ATOM     17  C   UNL     1      -1.209  11.437  19.695  0.00  0.00    +0.000 A 
ATOM     18  C   UNL     1      -2.427  12.057  19.428  0.00  0.00    +0.000 A 
ATOM     19  C   UNL     1      -3.161  11.700  18.290  0.00  0.00    +0.000 A 
ATOM     20  C   UNL     1      -2.653  10.733  17.427  0.00  0.00    +0.000 A 
ATOM     21 CL   UNL     1      -3.526  10.311  16.004  0.00  0.00    +0.000 Cl
ATOM     22  C   UNL     1      -1.439  10.105  17.696  0.00  0.00    +0.000 A 
ENDBRANCH  13  16
BRANCH  13  24
ATOM     23  C   UNL     1       2.062  11.679  18.408  0.00  0.00    +0.000 C 
ATOM     24  C   UNL     1       1.683  10.211  18.249  0.00  0.00    +0.000 C 
ENDBRANCH  13  24
ENDBRANCH  12  14
ENDBRANCH   1  12
BRANCH   3  25
ATOM     25  C   UNL     1       4.175   6.680  16.654  0.00  0.00    +0.000 C 
BRANCH  25  26
ATOM     26  C   UNL     1       5.497   5.957  16.732  0.00  0.00    +0.000 A 
ATOM     27  C   UNL     1       5.990   5.235  15.645  0.00  0.00    +0.000 A 
ATOM     28  C   UNL     1       7.160   4.511  15.809  0.00  0.00    +0.000 A 
ATOM     29  N   UNL     1       7.873   4.477  16.955  0.00  0.00    +0.000 NA
ATOM     30  C   UNL     1       7.402   5.213  17.980  0.00  0.00    +0.000 A 
ATOM     31  C   UNL     1       6.240   5.965  17.918  0.00  0.00    +0.000 A 
ENDBRANCH  25  26
ENDBRANCH   3  25
TORSDOF 6
ENDMDL
MODEL 3
REMARK VINA RESULT:      -8.1      0.988      1.308
REMARK  Name = 
REMARK  7 active torsions:
REMARK  status: ('A' for Active; 'I' for Inactive)
REMARK    1  A    between atoms: C_1  and  C_2
REMARK    2  A    between atoms: C_2  and  N_3
REMARK    3  A    between atoms: N_3  and  C_25
REMARK    4  A    between atoms: C_4  and  C_6
REMARK    5  A    between atoms: C_6  and  N_7
REMARK    6  A    between atoms: C_9  and  C_10
REMARK    7  A    between atoms: C_10  and  C_11
REMARK                            x       y       z     vdW  Elec       q    Type
REMARK                         _______ _______ _______ _____ _____    ______ ____
ROOT
ATOM      1  N   UNL     1       2.424   6.483  19.715  0.00  0.00    +0.000 N 
ATOM      2  N   UNL     1       3.398   6.543  18.753  0.00  0.00    +0.000 NA
ATOM      3  C   UNL     1       3.613   5.523  17.980  0.00  0.00    +0.000 A 
ATOM      4  C   UNL     1       2.928   4.225  18.155  0.00  0.00    +0.000 A 
ATOM      5  C   UNL     1       3.245   3.081  17.412  0.00  0.00    +0.000 A 
ATOM      6  C   UNL     1       2.629   1.862  17.704  0.00  0.00    +0.000 A 
ATOM      7  C   UNL     1       1.678   1.785  18.719  0.00  0.00    +0.000 A 
ATOM      8  C   UNL     1       1.336   2.931  19.439  0.00  0.00    +0.000 A 
ATOM      9  C   UNL     1       1.971   4.151  19.163  0.00  0.00    +0.000 A 
ATOM     10  C   UNL     1       1.647   5.354  19.956  0.00  0.00    +0.000 A 
ATOM     11  O   UNL     1       0.746   5.308  20.788  0.00  0.00    +0.000 OA
ENDROOT
BRANCH   1  12
ATOM     12  C   UNL     1       2.184   7.725  20.462  0.00  0.00    +0.000 C 
BRANCH  12  14
ATOM     13  N   UNL     1       0.313   9.416  20.200  0.00  0.00    +0.000 N 
ATOM     14  C   UNL     1       1.435   8.782  19.626  0.00  0.00    +0.000 C 
ATOM     15  O   UNL     1       1.825   9.082  18.493  0.00  0.00    +0.000 OA
BRANCH  13  16
ATOM     16  C   UNL     1      -0.399  10.359  19.384  0.00  0.00    +0.000 A 
ATOM     17  C   UNL     1      -1.525   9.966  18.643  0.00  0.00    +0.000 A 
ATOM     18  C   UNL     1      -2.219  10.889  17.864  0.00  0.00    +0.000 A 
ATOM     19  C   UNL     1      -1.808  12.227  17.830  0.00  0.00    +0.000 A 
ATOM     20  C   UNL     1      -0.712  12.624  18.590  0.00  0.00    +0.000 A 
ATOM     21 CL   UNL     1      -0.217  14.273  18.587  0.00  0.00    +0.000 Cl
ATOM     22  C   UNL     1      -0.010  11.701  19.363  0.00  0.00    +0.000 A 
ENDBRANCH  13  16
BRANCH  13  24
ATOM     23  C   UNL     1      -0.380  10.241  22.464  0.00  0.00    +0.000 C 
ATOM     24  C   UNL     1      -0.303   9.065  21.496  0.00  0.00    +0.000 C 
ENDBRANCH  13  24
ENDBRANCH  12  14
ENDBRANCH   1  12
BRANCH   3  25
ATOM     25  C   UNL     1       4.673   5.701  16.901  0.00  0.00    +0.000 C 
BRANCH  25  26
ATOM     26  C   UNL     1       5.988   6.138  17.496  0.00  0.00    +0.000 A 
ATOM     27  C   UNL     1       6.623   5.378  18.480  0.00  0.00    +0.000 A 
ATOM     28  C   UNL     1       7.777   5.881  19.060  0.00  0.00    +0.000 A 
ATOM     29  N   UNL     1       8.346   7.055  18.716  0.00  0.00    +0.000 NA
ATOM     30  C   UNL     1       7.740   7.754  17.736  0.00  0.00    +0.000 A 
ATOM     31  C   UNL     1       6.581   7.342  17.100  0.00  0.00    +0.000 A 
ENDBRANCH  25  26
ENDBRANCH   3  25
TORSDOF 6
ENDMDL
MODEL 4
REMARK VINA RESULT:      -8.1      1.012      1.282
REMARK  Name = 
REMARK  7 active torsions:
REMARK  status: ('A' for Active; 'I' for Inactive)
REMARK    1  A    between atoms: C_1  and  C_2
REMARK    2  A    between atoms: C_2  and  N_3
REMARK    3  A    between atoms: N_3  and  C_25
REMARK    4  A    between atoms: C_4  and  C_6
REMARK    5  A    between atoms: C_6  and  N_7
REMARK    6  A    between atoms: C_9  and  C_10
REMARK    7  A    between atoms: C_10  and  C_11
REMARK                            x       y       z     vdW  Elec       q    Type
REMARK                         _______ _______ _______ _____ _____    ______ ____
ROOT
ATOM      1  N   UNL     1       2.209   6.462  19.901  0.00  0.00    +0.000 N 
ATOM      2  N   UNL     1       3.049   6.829  18.884  0.00  0.00    +0.000 NA
ATOM      3  C   UNL     1       3.356   5.979  17.954  0.00  0.00    +0.000 A 
ATOM      4  C   UNL     1       2.933   4.563  17.989  0.00  0.00    +0.000 A 
ATOM      5  C   UNL     1       3.364   3.607  17.061  0.00  0.00    +0.000 A 
ATOM      6  C   UNL     1       3.007   2.266  17.219  0.00  0.00    +0.000 A 
ATOM      7  C   UNL     1       2.198   1.878  18.284  0.00  0.00    +0.000 A 
ATOM      8  C   UNL     1       1.738   2.835  19.191  0.00  0.00    +0.000 A 
ATOM      9  C   UNL     1       2.116   4.178  19.048  0.00  0.00    +0.000 A 
ATOM     10  C   UNL     1       1.672   5.185  20.034  0.00  0.00    +0.000 A 
ATOM     11  O   UNL     1       0.887   4.861  20.921  0.00  0.00    +0.000 OA
ENDROOT
BRANCH   1  12
ATOM     12  C   UNL     1       1.835   7.527  20.841  0.00  0.00    +0.000 C 
BRANCH  12  14
ATOM     13  N   UNL     1       0.178   9.442  20.719  0.00  0.00    +0.000 N 
ATOM     14  C   UNL     1       1.271   8.772  20.129  0.00  0.00    +0.000 C 
ATOM     15  O   UNL     1       1.781   9.186  19.082  0.00  0.00    +0.000 OA
BRANCH  13  16
ATOM     16  C   UNL     1      -0.363  10.568  20.012  0.00  0.00    +0.000 A 
ATOM     17  C   UNL     1       0.063  11.874  20.298  0.00  0.00    +0.000 A 
ATOM     18  C   UNL     1      -0.458  12.960  19.599  0.00  0.00    +0.000 A 
ATOM     19  C   UNL     1      -1.402  12.754  18.586  0.00  0.00    +0.000 A 
ATOM     20  C   UNL     1      -1.801  11.457  18.279  0.00  0.00    +0.000 A 
ATOM     21 CL   UNL     1      -2.934  11.185  17.011  0.00  0.00    +0.000 Cl
ATOM     22  C   UNL     1      -1.289  10.369  18.983  0.00  0.00    +0.000 A 
ENDBRANCH  13  16
BRANCH  13  24
ATOM     23  C   UNL     1      -0.073   9.591  23.209  0.00  0.00    +0.000 C 
ATOM     24  C   UNL     1      -0.574   8.982  21.904  0.00  0.00    +0.000 C 
ENDBRANCH  13  24
ENDBRANCH  12  14
ENDBRANCH   1  12
BRANCH   3  25
ATOM     25  C   UNL     1       4.248   6.493  16.831  0.00  0.00    +0.000 C 
BRANCH  25  26
ATOM     26  C   UNL     1       5.582   5.789  16.829  0.00  0.00    +0.000 A 
ATOM     27  C   UNL     1       6.098   5.225  15.662  0.00  0.00    +0.000 A 
ATOM     28  C   UNL     1       7.280   4.505  15.744  0.00  0.00    +0.000 A 
ATOM     29  N   UNL     1       7.984   4.334  16.883  0.00  0.00    +0.000 NA
ATOM     30  C   UNL     1       7.489   4.920  17.990  0.00  0.00    +0.000 A 
ATOM     31  C   UNL     1       6.314   5.654  18.014  0.00  0.00    +0.000 A 
ENDBRANCH  25  26
ENDBRANCH   3  25
TORSDOF 6
ENDMDL
MODEL 5
REMARK VINA RESULT:      -8.0      1.646      2.244
REMARK  Name = 
REMARK  7 active torsions:
REMARK  status: ('A' for Active; 'I' for Inactive)
REMARK    1  A    between atoms: C_1  and  C_2
REMARK    2  A    between atoms: C_2  and  N_3
REMARK    3  A    between atoms: N_3  and  C_25
REMARK    4  A    between atoms: C_4  and  C_6
REMARK    5  A    between atoms: C_6  and  N_7
REMARK    6  A    between atoms: C_9  and  C_10
REMARK    7  A    between atoms: C_10  and  C_11
REMARK                            x       y       z     vdW  Elec       q    Type
REMARK                         _______ _______ _______ _____ _____    ______ ____
ROOT
ATOM      1  N   UNL     1       2.271   7.128  19.776  0.00  0.00    +0.000 N 
ATOM      2  N   UNL     1       3.093   7.320  18.697  0.00  0.00    +0.000 NA
ATOM      3  C   UNL     1       3.313   6.350  17.865  0.00  0.00    +0.000 A 
ATOM      4  C   UNL     1       2.806   4.978  18.079  0.00  0.00    +0.000 A 
ATOM      5  C   UNL     1       3.143   3.895  17.258  0.00  0.00    +0.000 A 
ATOM      6  C   UNL     1       2.711   2.607  17.582  0.00  0.00    +0.000 A 
ATOM      7  C   UNL     1       1.920   2.399  18.709  0.00  0.00    +0.000 A 
ATOM      8  C   UNL     1       1.554   3.481  19.511  0.00  0.00    +0.000 A 
ATOM      9  C   UNL     1       2.007   4.772  19.200  0.00  0.00    +0.000 A 
ATOM     10  C   UNL     1       1.662   5.912  20.074  0.00  0.00    +0.000 A 
ATOM     11  O   UNL     1       0.892   5.744  21.015  0.00  0.00    +0.000 OA
ENDROOT
BRANCH   1  12
ATOM     12  C   UNL     1       1.997   8.316  20.594  0.00  0.00    +0.000 C 
BRANCH  12  14
ATOM     13  N   UNL     1       0.563   9.772  19.093  0.00  0.00    +0.000 N 
ATOM     14  C   UNL     1       0.645   8.972  20.252  0.00  0.00    +0.000 C 
ATOM     15  O   UNL     1      -0.347   8.780  20.963  0.00  0.00    +0.000 OA
BRANCH  13  16
ATOM     16  C   UNL     1      -0.692  10.414  18.823  0.00  0.00    +0.000 A 
ATOM     17  C   UNL     1      -1.479  10.030  17.726  0.00  0.00    +0.000 A 
ATOM     18  C   UNL     1      -2.701  10.649  17.478  0.00  0.00    +0.000 A 
ATOM     19  C   UNL     1      -3.167  11.652  18.337  0.00  0.00    +0.000 A 
ATOM     20  C   UNL     1      -2.402  12.011  19.443  0.00  0.00    +0.000 A 
ATOM     21 CL   UNL     1      -2.979  13.216  20.529  0.00  0.00    +0.000 Cl
ATOM     22  C   UNL     1      -1.174  11.400  19.689  0.00  0.00    +0.000 A 
ENDBRANCH  13  16
BRANCH  13  24
ATOM     23  C   UNL     1       2.079  11.627  18.355  0.00  0.00    +0.000 C 
ATOM     24  C   UNL     1       1.701  10.155  18.232  0.00  0.00    +0.000 C 
ENDBRANCH  13  24
ENDBRANCH  12  14
ENDBRANCH   1  12
BRANCH   3  25
ATOM     25  C   UNL     1       4.192   6.672  16.664  0.00  0.00    +0.000 C 
BRANCH  25  26
ATOM     26  C   UNL     1       5.511   5.946  16.744  0.00  0.00    +0.000 A 
ATOM     27  C   UNL     1       6.012   5.236  15.651  0.00  0.00    +0.000 A 
ATOM     28  C   UNL     1       7.179   4.507  15.816  0.00  0.00    +0.000 A 
ATOM     29  N   UNL     1       7.883   4.457  16.967  0.00  0.00    +0.000 NA
ATOM     30  C   UNL     1       7.404   5.181  17.997  0.00  0.00    +0.000 A 
ATOM     31  C   UNL     1       6.245   5.936  17.935  0.00  0.00    +0.000 A 
ENDBRANCH  25  26
ENDBRANCH   3  25
TORSDOF 6
ENDMDL
MODEL 6
REMARK VINA RESULT:      -8.0      1.439      1.825
REMARK  Name = 
REMARK  7 active torsions:
REMARK  status: ('A' for Active; 'I' for Inactive)
REMARK    1  A    between atoms: C_1  and  C_2
REMARK    2  A    between atoms: C_2  and  N_3
REMARK    3  A    between atoms: N_3  and  C_25
REMARK    4  A    between atoms: C_4  and  C_6
REMARK    5  A    between atoms: C_6  and  N_7
REMARK    6  A    between atoms: C_9  and  C_10
REMARK    7  A    between atoms: C_10  and  C_11
REMARK                            x       y       z     vdW  Elec       q    Type
REMARK                         _______ _______ _______ _____ _____    ______ ____
ROOT
ATOM      1  N   UNL     1       2.331   6.845  19.782  0.00  0.00    +0.000 N 
ATOM      2  N   UNL     1       3.162   7.078  18.719  0.00  0.00    +0.000 NA
ATOM      3  C   UNL     1       3.377   6.145  17.843  0.00  0.00    +0.000 A 
ATOM      4  C   UNL     1       2.854   4.770  17.990  0.00  0.00    +0.000 A 
ATOM      5  C   UNL     1       3.186   3.724  17.121  0.00  0.00    +0.000 A 
ATOM      6  C   UNL     1       2.738   2.427  17.382  0.00  0.00    +0.000 A 
ATOM      7  C   UNL     1       1.938   2.174  18.494  0.00  0.00    +0.000 A 
ATOM      8  C   UNL     1       1.578   3.222  19.344  0.00  0.00    +0.000 A 
ATOM      9  C   UNL     1       2.047   4.521  19.096  0.00  0.00    +0.000 A 
ATOM     10  C   UNL     1       1.709   5.623  20.020  0.00  0.00    +0.000 A 
ATOM     11  O   UNL     1       0.931   5.419  20.948  0.00  0.00    +0.000 OA
ENDROOT
BRANCH   1  12
ATOM     12  C   UNL     1       2.065   7.996  20.654  0.00  0.00    +0.000 C 
BRANCH  12  14
ATOM     13  N   UNL     1      -0.022   9.436  20.629  0.00  0.00    +0.000 N 
ATOM     14  C   UNL     1       1.171   9.055  19.979  0.00  0.00    +0.000 C 
ATOM     15  O   UNL     1       1.505   9.573  18.908  0.00  0.00    +0.000 OA
BRANCH  13  16
ATOM     16  C   UNL     1      -0.864  10.384  19.957  0.00  0.00    +0.000 A 
ATOM     17  C   UNL     1      -1.541  10.039  18.776  0.00  0.00    +0.000 A 
ATOM     18  C   UNL     1      -2.367  10.960  18.136  0.00  0.00    +0.000 A 
ATOM     19  C   UNL     1      -2.545  12.238  18.679  0.00  0.00    +0.000 A 
ATOM     20  C   UNL     1      -1.901  12.569  19.868  0.00  0.00    +0.000 A 
ATOM     21 CL   UNL     1      -2.140  14.124  20.568  0.00  0.00    +0.000 Cl
ATOM     22  C   UNL     1      -1.066  11.653  20.506  0.00  0.00    +0.000 A 
ENDBRANCH  13  16
BRANCH  13  24
ATOM     23  C   UNL     1      -0.131   9.510  23.132  0.00  0.00    +0.000 C 
ATOM     24  C   UNL     1      -0.571   8.813  21.851  0.00  0.00    +0.000 C 
ENDBRANCH  13  24
ENDBRANCH  12  14
ENDBRANCH   1  12
BRANCH   3  25
ATOM     25  C   UNL     1       4.267   6.514  16.663  0.00  0.00    +0.000 C 
BRANCH  25  26
ATOM     26  C   UNL     1       5.589   5.792  16.732  0.00  0.00    +0.000 A 
ATOM     27  C   UNL     1       6.106   5.126  15.620  0.00  0.00    +0.000 A 
ATOM     28  C   UNL     1       7.275   4.397  15.771  0.00  0.00    +0.000 A 
ATOM     29  N   UNL     1       7.967   4.309  16.927  0.00  0.00    +0.000 NA
ATOM     30  C   UNL     1       7.472   4.992  17.978  0.00  0.00    +0.000 A 
ATOM     31  C   UNL     1       6.309   5.743  17.930  0.00  0.00    +0.000 A 
ENDBRANCH  25  26
ENDBRANCH   3  25
TORSDOF 6
ENDMDL
MODEL 7
REMARK VINA RESULT:      -7.9      1.384      1.866
REMARK  Name = 
REMARK  7 active torsions:
REMARK  status: ('A' for Active; 'I' for Inactive)
REMARK    1  A    between atoms: C_1  and  C_2
REMARK    2  A    between atoms: C_2  and  N_3
REMARK    3  A    between atoms: N_3  and  C_25
REMARK    4  A    between atoms: C_4  and  C_6
REMARK    5  A    between atoms: C_6  and  N_7
REMARK    6  A    between atoms: C_9  and  C_10
REMARK    7  A    between atoms: C_10  and  C_11
REMARK                            x       y       z     vdW  Elec       q    Type
REMARK                         _______ _______ _______ _____ _____    ______ ____
ROOT
ATOM      1  N   UNL     1       2.229   6.413  19.809  0.00  0.00    +0.000 N 
ATOM      2  N   UNL     1       3.195   6.653  18.868  0.00  0.00    +0.000 NA
ATOM      3  C   UNL     1       3.517   5.732  18.014  0.00  0.00    +0.000 A 
ATOM      4  C   UNL     1       2.969   4.360  18.070  0.00  0.00    +0.000 A 
ATOM      5  C   UNL     1       3.404   3.323  17.235  0.00  0.00    +0.000 A 
ATOM      6  C   UNL     1       2.916   2.027  17.415  0.00  0.00    +0.000 A 
ATOM      7  C   UNL     1       1.975   1.766  18.407  0.00  0.00    +0.000 A 
ATOM      8  C   UNL     1       1.514   2.804  19.218  0.00  0.00    +0.000 A 
ATOM      9  C   UNL     1       2.020   4.102  19.055  0.00  0.00    +0.000 A 
ATOM     10  C   UNL     1       1.572   5.194  19.943  0.00  0.00    +0.000 A 
ATOM     11  O   UNL     1       0.677   4.984  20.757  0.00  0.00    +0.000 OA
ENDROOT
BRANCH   1  12
ATOM     12  C   UNL     1       1.859   7.554  20.656  0.00  0.00    +0.000 C 
BRANCH  12  14
ATOM     13  N   UNL     1       0.947   9.917  20.532  0.00  0.00    +0.000 N 
ATOM     14  C   UNL     1       1.360   8.761  19.837  0.00  0.00    +0.000 C 
ATOM     15  O   UNL     1       1.347   8.723  18.602  0.00  0.00    +0.000 OA
BRANCH  13  16
ATOM     16  C   UNL     1       0.437  11.008  19.752  0.00  0.00    +0.000 A 
ATOM     17  C   UNL     1      -0.871  10.982  19.241  0.00  0.00    +0.000 A 
ATOM     18  C   UNL     1      -1.363  12.050  18.495  0.00  0.00    +0.000 A 
ATOM     19  C   UNL     1      -0.560  13.173  18.264  0.00  0.00    +0.000 A 
ATOM     20  C   UNL     1       0.725  13.214  18.798  0.00  0.00    +0.000 A 
ATOM     21 CL   UNL     1       1.711  14.604  18.554  0.00  0.00    +0.000 Cl
ATOM     22  C   UNL     1       1.224  12.143  19.537  0.00  0.00    +0.000 A 
ENDBRANCH  13  16
BRANCH  13  24
ATOM     23  C   UNL     1      -0.521   9.542  22.530  0.00  0.00    +0.000 C 
ATOM     24  C   UNL     1       0.820  10.037  21.999  0.00  0.00    +0.000 C 
ENDBRANCH  13  24
ENDBRANCH  12  14
ENDBRANCH   1  12
BRANCH   3  25
ATOM     25  C   UNL     1       4.557   6.109  16.968  0.00  0.00    +0.000 C 
BRANCH  25  26
ATOM     26  C   UNL     1       5.877   6.455  17.612  0.00  0.00    +0.000 A 
ATOM     27  C   UNL     1       6.584   7.598  17.239  0.00  0.00    +0.000 A 
ATOM     28  C   UNL     1       7.836   7.810  17.793  0.00  0.00    +0.000 A 
ATOM     29  N   UNL     1       8.412   6.989  18.696  0.00  0.00    +0.000 NA
ATOM     30  C   UNL     1       7.696   5.912  19.072  0.00  0.00    +0.000 A 
ATOM     31  C   UNL     1       6.440   5.608  18.573  0.00  0.00    +0.000 A 
ENDBRANCH  25  26
ENDBRANCH   3  25
TORSDOF 6
ENDMDL
MODEL 8
REMARK VINA RESULT:      -7.9      1.345      1.827
REMARK  Name = 
REMARK  7 active torsions:
REMARK  status: ('A' for Active; 'I' for Inactive)
REMARK    1  A    between atoms: C_1  and  C_2
REMARK    2  A    between atoms: C_2  and  N_3
REMARK    3  A    between atoms: N_3  and  C_25
REMARK    4  A    between atoms: C_4  and  C_6
REMARK    5  A    between atoms: C_6  and  N_7
REMARK    6  A    between atoms: C_9  and  C_10
REMARK    7  A    between atoms: C_10  and  C_11
REMARK                            x       y       z     vdW  Elec       q    Type
REMARK                         _______ _______ _______ _____ _____    ______ ____
ROOT
ATOM      1  N   UNL     1       2.148   6.813  20.081  0.00  0.00    +0.000 N 
ATOM      2  N   UNL     1       2.992   7.102  19.041  0.00  0.00    +0.000 NA
ATOM      3  C   UNL     1       3.207   6.222  18.113  0.00  0.00    +0.000 A 
ATOM      4  C   UNL     1       2.670   4.846  18.171  0.00  0.00    +0.000 A 
ATOM      5  C   UNL     1       3.001   3.851  17.243  0.00  0.00    +0.000 A 
ATOM      6  C   UNL     1       2.539   2.545  17.421  0.00  0.00    +0.000 A 
ATOM      7  C   UNL     1       1.725   2.233  18.507  0.00  0.00    +0.000 A 
ATOM      8  C   UNL     1       1.366   3.231  19.416  0.00  0.00    +0.000 A 
ATOM      9  C   UNL     1       1.849   4.538  19.252  0.00  0.00    +0.000 A 
ATOM     10  C   UNL     1       1.512   5.585  20.238  0.00  0.00    +0.000 A 
ATOM     11  O   UNL     1       0.723   5.333  21.144  0.00  0.00    +0.000 OA
ENDROOT
BRANCH   1  12
ATOM     12  C   UNL     1       1.884   7.912  21.018  0.00  0.00    +0.000 C 
BRANCH  12  14
ATOM     13  N   UNL     1       0.619   9.709  19.755  0.00  0.00    +0.000 N 
ATOM     14  C   UNL     1       0.575   8.661  20.698  0.00  0.00    +0.000 C 
ATOM     15  O   UNL     1      -0.487   8.333  21.236  0.00  0.00    +0.000 OA
BRANCH  13  16
ATOM     16  C   UNL     1      -0.600  10.427  19.511  0.00  0.00    +0.000 A 
ATOM     17  C   UNL     1      -0.969  11.519  20.313  0.00  0.00    +0.000 A 
ATOM     18  C   UNL     1      -2.147  12.218  20.063  0.00  0.00    +0.000 A 
ATOM     19  C   UNL     1      -2.968  11.848  18.991  0.00  0.00    +0.000 A 
ATOM     20  C   UNL     1      -2.587  10.786  18.176  0.00  0.00    +0.000 A 
ATOM     21 CL   UNL     1      -3.568  10.343  16.831  0.00  0.00    +0.000 Cl
ATOM     22  C   UNL     1      -1.414  10.078  18.429  0.00  0.00    +0.000 A 
ENDBRANCH  13  16
BRANCH  13  24
ATOM     23  C   UNL     1       2.002   9.854  17.669  0.00  0.00    +0.000 C 
ATOM     24  C   UNL     1       1.842  10.254  19.131  0.00  0.00    +0.000 C 
ENDBRANCH  13  24
ENDBRANCH  12  14
ENDBRANCH   1  12
BRANCH   3  25
ATOM     25  C   UNL     1       4.112   6.653  16.966  0.00  0.00    +0.000 C 
BRANCH  25  26
ATOM     26  C   UNL     1       5.389   5.850  16.948  0.00  0.00    +0.000 A 
ATOM     27  C   UNL     1       6.160   5.696  18.101  0.00  0.00    +0.000 A 
ATOM     28  C   UNL     1       7.373   5.033  18.000  0.00  0.00    +0.000 A 
ATOM     29  N   UNL     1       7.849   4.499  16.855  0.00  0.00    +0.000 NA
ATOM     30  C   UNL     1       7.071   4.623  15.763  0.00  0.00    +0.000 A 
ATOM     31  C   UNL     1       5.848   5.273  15.759  0.00  0.00    +0.000 A 
ENDBRANCH  25  26
ENDBRANCH   3  25
TORSDOF 6
ENDMDL
MODEL 9
REMARK VINA RESULT:      -7.8      1.528      1.867
REMARK  Name = 
REMARK  7 active torsions:
REMARK  status: ('A' for Active; 'I' for Inactive)
REMARK    1  A    between atoms: C_1  and  C_2
REMARK    2  A    between atoms: C_2  and  N_3
REMARK    3  A    between atoms: N_3  and  C_25
REMARK    4  A    between atoms: C_4  and  C_6
REMARK    5  A    between atoms: C_6  and  N_7
REMARK    6  A    between atoms: C_9  and  C_10
REMARK    7  A    between atoms: C_10  and  C_11
REMARK                            x       y       z     vdW  Elec       q    Type
REMARK                         _______ _______ _______ _____ _____    ______ ____
ROOT
ATOM      1  N   UNL     1       2.166   6.442  19.955  0.00  0.00    +0.000 N 
ATOM      2  N   UNL     1       3.001   6.786  18.925  0.00  0.00    +0.000 NA
ATOM      3  C   UNL     1       3.275   5.925  17.994  0.00  0.00    +0.000 A 
ATOM      4  C   UNL     1       2.817   4.520  18.039  0.00  0.00    +0.000 A 
ATOM      5  C   UNL     1       3.213   3.551  17.109  0.00  0.00    +0.000 A 
ATOM      6  C   UNL     1       2.824   2.220  17.275  0.00  0.00    +0.000 A 
ATOM      7  C   UNL     1       2.020   1.856  18.352  0.00  0.00    +0.000 A 
ATOM      8  C   UNL     1       1.597   2.826  19.263  0.00  0.00    +0.000 A 
ATOM      9  C   UNL     1       2.005   4.159  19.110  0.00  0.00    +0.000 A 
ATOM     10  C   UNL     1       1.600   5.180  20.099  0.00  0.00    +0.000 A 
ATOM     11  O   UNL     1       0.818   4.878  20.996  0.00  0.00    +0.000 OA
ENDROOT
BRANCH   1  12
ATOM     12  C   UNL     1       1.831   7.519  20.896  0.00  0.00    +0.000 C 
BRANCH  12  14
ATOM     13  N   UNL     1       0.174   9.435  20.775  0.00  0.00    +0.000 N 
ATOM     14  C   UNL     1       1.271   8.770  20.189  0.00  0.00    +0.000 C 
ATOM     15  O   UNL     1       1.787   9.190  19.148  0.00  0.00    +0.000 OA
BRANCH  13  16
ATOM     16  C   UNL     1      -0.363  10.565  20.072  0.00  0.00    +0.000 A 
ATOM     17  C   UNL     1      -1.287  10.393  19.029  0.00  0.00    +0.000 A 
ATOM     18  C   UNL     1      -1.815  11.495  18.360  0.00  0.00    +0.000 A 
ATOM     19  C   UNL     1      -1.440  12.790  18.738  0.00  0.00    +0.000 A 
ATOM     20  C   UNL     1      -0.549  12.962  19.794  0.00  0.00    +0.000 A 
ATOM     21 CL   UNL     1      -0.108  14.550  20.294  0.00  0.00    +0.000 Cl
ATOM     22  C   UNL     1      -0.013  11.861  20.459  0.00  0.00    +0.000 A 
ENDBRANCH  13  16
BRANCH  13  24
ATOM     23  C   UNL     1      -0.078   9.548  23.267  0.00  0.00    +0.000 C 
ATOM     24  C   UNL     1      -0.586   8.965  21.953  0.00  0.00    +0.000 C 
ENDBRANCH  13  24
ENDBRANCH  12  14
ENDBRANCH   1  12
BRANCH   3  25
ATOM     25  C   UNL     1       4.164   6.414  16.858  0.00  0.00    +0.000 C 
BRANCH  25  26
ATOM     26  C   UNL     1       5.471   5.661  16.826  0.00  0.00    +0.000 A 
ATOM     27  C   UNL     1       6.251   5.520  17.975  0.00  0.00    +0.000 A 
ATOM     28  C   UNL     1       7.487   4.904  17.862  0.00  0.00    +0.000 A 
ATOM     29  N   UNL     1       7.981   4.406  16.709  0.00  0.00    +0.000 NA
ATOM     30  C   UNL     1       7.195   4.516  15.620  0.00  0.00    +0.000 A 
ATOM     31  C   UNL     1       5.948   5.119  15.628  0.00  0.00    +0.000 A 
ENDBRANCH  25  26
ENDBRANCH   3  25
TORSDOF 6
ENDMDL
