MODEL 1
REMARK VINA RESULT:      -7.3      0.000      0.000
REMARK  Name = 
REMARK  9 active torsions:
REMARK  status: ('A' for Active; 'I' for Inactive)
REMARK    1  A    between atoms: C_1  and  O_2
REMARK    2  A    between atoms: O_2  and  C_3
REMARK    3  A    between atoms: C_8  and  C_9
REMARK    4  A    between atoms: C_9  and  N_10
REMARK    5  A    between atoms: C_22  and  C_23
REMARK    6  A    between atoms: C_23  and  C_24
REMARK    7  A    between atoms: C_24  and  C_25
REMARK    8  A    between atoms: C_25  and  C_26
REMARK    9  A    between atoms: C_26  and  O_27
REMARK                            x       y       z     vdW  Elec       q    Type
REMARK                         _______ _______ _______ _____ _____    ______ ____
ROOT
ATOM      1  N   UNL     1       4.556   5.512  18.400  0.00  0.00    +0.000 NA
ATOM      2  C   UNL     1       4.418   5.061  19.825  0.00  0.00    +0.000 C 
ATOM      3  C   UNL     1       3.194   4.206  20.252  0.00  0.00    +0.000 C 
ATOM      4  C   UNL     1       2.404   4.449  21.552  0.00  0.00    +0.000 C 
ATOM      5  C   UNL     1       1.508   3.195  21.816  0.00  0.00    +0.000 C 
ATOM      6  C   UNL     1       1.332   2.176  20.638  0.00  0.00    +0.000 C 
ATOM      7  N   UNL     1       1.641   2.615  19.260  0.00  0.00    +0.000 NA
ATOM      8  C   UNL     1       2.661   1.796  18.595  0.00  0.00    +0.000 C 
ATOM      9  C   UNL     1       2.721   2.161  17.115  0.00  0.00    +0.000 C 
ATOM     10  C   UNL     1       2.299   3.596  16.753  0.00  0.00    +0.000 C 
ATOM     11  C   UNL     1       2.235   4.669  17.862  0.00  0.00    +0.000 C 
ATOM     12  C   UNL     1       2.061   4.031  19.236  0.00  0.00    +0.000 C 
ATOM     13  C   UNL     1       3.250   5.867  17.844  0.00  0.00    +0.000 C 
ENDROOT
BRANCH   1  14
ATOM     14  C   UNL     1       5.357   4.512  17.629  0.00  0.00    +0.000 C 
BRANCH  14  20
ATOM     15  C   UNL     1       7.003   5.367  15.947  0.00  0.00    +0.000 A 
ATOM     16  C   UNL     1       7.630   5.416  14.700  0.00  0.00    +0.000 A 
ATOM     17  C   UNL     1       7.097   4.694  13.623  0.00  0.00    +0.000 A 
ATOM     18  C   UNL     1       5.894   4.005  13.795  0.00  0.00    +0.000 A 
ATOM     19  C   UNL     1       5.235   4.021  15.045  0.00  0.00    +0.000 A 
ATOM     20  C   UNL     1       5.802   4.632  16.164  0.00  0.00    +0.000 A 
BRANCH  15  22
ATOM     21  C   UNL     1       7.530   7.294  17.278  0.00  0.00    +0.000 C 
ATOM     22  O   UNL     1       7.571   5.895  17.078  0.00  0.00    +0.000 OA
ENDBRANCH  15  22
ENDBRANCH  14  20
ENDBRANCH   1  14
BRANCH  13  23
ATOM     23  C   UNL     1       2.681   7.166  18.540  0.00  0.00    +0.000 C 
BRANCH  23  24
ATOM     24  C   UNL     1       2.421   8.476  17.738  0.00  0.00    +0.000 C 
BRANCH  24  25
ATOM     25  C   UNL     1       1.190   9.374  17.967  0.00  0.00    +0.000 C 
BRANCH  25  26
ATOM     26  C   UNL     1       1.435  10.765  18.546  0.00  0.00    +0.000 C 
BRANCH  26  27
ATOM     27  O   UNL     1       2.331  11.504  17.737  0.00  0.00    +0.000 OA
ATOM     28  H   UNL     1       2.060  11.354  16.812  0.00  0.00    +0.000 HD
ENDBRANCH  26  27
ENDBRANCH  25  26
ENDBRANCH  24  25
ENDBRANCH  23  24
ENDBRANCH  13  23
TORSDOF 8
ENDMDL
MODEL 2
REMARK VINA RESULT:      -6.4      1.244      1.331
REMARK  Name = 
REMARK  9 active torsions:
REMARK  status: ('A' for Active; 'I' for Inactive)
REMARK    1  A    between atoms: C_1  and  O_2
REMARK    2  A    between atoms: O_2  and  C_3
REMARK    3  A    between atoms: C_8  and  C_9
REMARK    4  A    between atoms: C_9  and  N_10
REMARK    5  A    between atoms: C_22  and  C_23
REMARK    6  A    between atoms: C_23  and  C_24
REMARK    7  A    between atoms: C_24  and  C_25
REMARK    8  A    between atoms: C_25  and  C_26
REMARK    9  A    between atoms: C_26  and  O_27
REMARK                            x       y       z     vdW  Elec       q    Type
REMARK                         _______ _______ _______ _____ _____    ______ ____
ROOT
ATOM      1  N   UNL     1       4.703   5.447  18.322  0.00  0.00    +0.000 NA
ATOM      2  C   UNL     1       4.591   4.990  19.747  0.00  0.00    +0.000 C 
ATOM      3  C   UNL     1       3.331   4.211  20.214  0.00  0.00    +0.000 C 
ATOM      4  C   UNL     1       2.609   4.490  21.547  0.00  0.00    +0.000 C 
ATOM      5  C   UNL     1       1.644   3.294  21.834  0.00  0.00    +0.000 C 
ATOM      6  C   UNL     1       1.357   2.303  20.655  0.00  0.00    +0.000 C 
ATOM      7  N   UNL     1       1.639   2.736  19.271  0.00  0.00    +0.000 NA
ATOM      8  C   UNL     1       2.577   1.860  18.558  0.00  0.00    +0.000 C 
ATOM      9  C   UNL     1       2.604   2.238  17.080  0.00  0.00    +0.000 C 
ATOM     10  C   UNL     1       2.262   3.701  16.748  0.00  0.00    +0.000 C 
ATOM     11  C   UNL     1       2.312   4.763  17.868  0.00  0.00    +0.000 C 
ATOM     12  C   UNL     1       2.150   4.123  19.242  0.00  0.00    +0.000 C 
ATOM     13  C   UNL     1       3.402   5.893  17.821  0.00  0.00    +0.000 C 
ENDROOT
BRANCH   1  14
ATOM     14  C   UNL     1       5.406   4.406  17.511  0.00  0.00    +0.000 C 
BRANCH  14  20
ATOM     15  C   UNL     1       7.019   5.289  15.812  0.00  0.00    +0.000 A 
ATOM     16  C   UNL     1       7.635   5.346  14.559  0.00  0.00    +0.000 A 
ATOM     17  C   UNL     1       7.109   4.608  13.490  0.00  0.00    +0.000 A 
ATOM     18  C   UNL     1       5.923   3.894  13.675  0.00  0.00    +0.000 A 
ATOM     19  C   UNL     1       5.273   3.901  14.931  0.00  0.00    +0.000 A 
ATOM     20  C   UNL     1       5.836   4.529  16.042  0.00  0.00    +0.000 A 
BRANCH  15  22
ATOM     21  C   UNL     1       7.514   7.233  17.131  0.00  0.00    +0.000 C 
ATOM     22  O   UNL     1       7.585   5.834  16.936  0.00  0.00    +0.000 OA
ENDBRANCH  15  22
ENDBRANCH  14  20
ENDBRANCH   1  14
BRANCH  13  23
ATOM     23  C   UNL     1       2.947   7.218  18.551  0.00  0.00    +0.000 C 
BRANCH  23  24
ATOM     24  C   UNL     1       1.622   7.289  19.365  0.00  0.00    +0.000 C 
BRANCH  24  25
ATOM     25  C   UNL     1       1.536   7.871  20.789  0.00  0.00    +0.000 C 
BRANCH  25  26
ATOM     26  C   UNL     1       0.934   9.265  20.942  0.00  0.00    +0.000 C 
BRANCH  26  27
ATOM     27  O   UNL     1       1.252   9.823  22.203  0.00  0.00    +0.000 OA
ATOM     28  H   UNL     1       0.591   9.481  22.834  0.00  0.00    +0.000 HD
ENDBRANCH  26  27
ENDBRANCH  25  26
ENDBRANCH  24  25
ENDBRANCH  23  24
ENDBRANCH  13  23
TORSDOF 8
ENDMDL
MODEL 3
REMARK VINA RESULT:      -6.2      7.036     10.926
REMARK  Name = 
REMARK  9 active torsions:
REMARK  status: ('A' for Active; 'I' for Inactive)
REMARK    1  A    between atoms: C_1  and  O_2
REMARK    2  A    between atoms: O_2  and  C_3
REMARK    3  A    between atoms: C_8  and  C_9
REMARK    4  A    between atoms: C_9  and  N_10
REMARK    5  A    between atoms: C_22  and  C_23
REMARK    6  A    between atoms: C_23  and  C_24
REMARK    7  A    between atoms: C_24  and  C_25
REMARK    8  A    between atoms: C_25  and  C_26
REMARK    9  A    between atoms: C_26  and  O_27
REMARK                            x       y       z     vdW  Elec       q    Type
REMARK                         _______ _______ _______ _____ _____    ______ ____
ROOT
ATOM      1  N   UNL     1      -1.990  12.331  19.216  0.00  0.00    +0.000 NA
ATOM      2  C   UNL     1      -1.541  10.899  19.213  0.00  0.00    +0.000 C 
ATOM      3  C   UNL     1      -0.576  10.387  20.316  0.00  0.00    +0.000 C 
ATOM      4  C   UNL     1       0.631   9.473  20.029  0.00  0.00    +0.000 C 
ATOM      5  C   UNL     1       1.125   8.881  21.389  0.00  0.00    +0.000 C 
ATOM      6  C   UNL     1       0.578   9.540  22.702  0.00  0.00    +0.000 C 
ATOM      7  N   UNL     1      -0.011  10.894  22.630  0.00  0.00    +0.000 NA
ATOM      8  C   UNL     1      -1.394  10.962  23.116  0.00  0.00    +0.000 C 
ATOM      9  C   UNL     1      -1.819  12.421  23.242  0.00  0.00    +0.000 C 
ATOM     10  C   UNL     1      -1.113  13.416  22.304  0.00  0.00    +0.000 C 
ATOM     11  C   UNL     1      -0.359  12.884  21.066  0.00  0.00    +0.000 C 
ATOM     12  C   UNL     1       0.048  11.427  21.253  0.00  0.00    +0.000 C 
ATOM     13  C   UNL     1      -0.896  13.212  19.627  0.00  0.00    +0.000 C 
ENDROOT
BRANCH   1  14
ATOM     14  C   UNL     1      -3.269  12.457  19.981  0.00  0.00    +0.000 C 
BRANCH  14  20
ATOM     15  C   UNL     1      -5.720  12.194  20.419  0.00  0.00    +0.000 A 
ATOM     16  C   UNL     1      -7.072  12.150  20.070  0.00  0.00    +0.000 A 
ATOM     17  C   UNL     1      -7.443  12.152  18.718  0.00  0.00    +0.000 A 
ATOM     18  C   UNL     1      -6.447  12.108  17.739  0.00  0.00    +0.000 A 
ATOM     19  C   UNL     1      -5.083  12.083  18.109  0.00  0.00    +0.000 A 
ATOM     20  C   UNL     1      -4.684  12.200  19.442  0.00  0.00    +0.000 A 
BRANCH  15  22
ATOM     21  C   UNL     1      -6.229  12.822  22.679  0.00  0.00    +0.000 C 
ATOM     22  O   UNL     1      -5.299  12.381  21.710  0.00  0.00    +0.000 OA
ENDBRANCH  15  22
ENDBRANCH  14  20
ENDBRANCH   1  14
BRANCH  13  23
ATOM     23  C   UNL     1       0.244  13.234  18.534  0.00  0.00    +0.000 C 
BRANCH  23  24
ATOM     24  C   UNL     1       1.530  14.094  18.712  0.00  0.00    +0.000 C 
BRANCH  24  25
ATOM     25  C   UNL     1       2.948  13.559  18.430  0.00  0.00    +0.000 C 
BRANCH  25  26
ATOM     26  C   UNL     1       4.036  14.585  18.126  0.00  0.00    +0.000 C 
BRANCH  26  27
ATOM     27  O   UNL     1       3.729  15.324  16.959  0.00  0.00    +0.000 OA
ATOM     28  H   UNL     1       2.895  15.798  17.139  0.00  0.00    +0.000 HD
ENDBRANCH  26  27
ENDBRANCH  25  26
ENDBRANCH  24  25
ENDBRANCH  23  24
ENDBRANCH  13  23
TORSDOF 8
ENDMDL
MODEL 4
REMARK VINA RESULT:      -6.1      8.672     11.991
REMARK  Name = 
REMARK  9 active torsions:
REMARK  status: ('A' for Active; 'I' for Inactive)
REMARK    1  A    between atoms: C_1  and  O_2
REMARK    2  A    between atoms: O_2  and  C_3
REMARK    3  A    between atoms: C_8  and  C_9
REMARK    4  A    between atoms: C_9  and  N_10
REMARK    5  A    between atoms: C_22  and  C_23
REMARK    6  A    between atoms: C_23  and  C_24
REMARK    7  A    between atoms: C_24  and  C_25
REMARK    8  A    between atoms: C_25  and  C_26
REMARK    9  A    between atoms: C_26  and  O_27
REMARK                            x       y       z     vdW  Elec       q    Type
REMARK                         _______ _______ _______ _____ _____    ______ ____
ROOT
ATOM      1  N   UNL     1      -4.407  13.510  20.899  0.00  0.00    +0.000 NA
ATOM      2  C   UNL     1      -4.337  14.945  21.332  0.00  0.00    +0.000 C 
ATOM      3  C   UNL     1      -3.788  15.305  22.739  0.00  0.00    +0.000 C 
ATOM      4  C   UNL     1      -4.444  16.349  23.663  0.00  0.00    +0.000 C 
ATOM      5  C   UNL     1      -3.426  16.700  24.797  0.00  0.00    +0.000 C 
ATOM      6  C   UNL     1      -2.187  15.755  24.969  0.00  0.00    +0.000 C 
ATOM      7  N   UNL     1      -2.234  14.400  24.380  0.00  0.00    +0.000 NA
ATOM      8  C   UNL     1      -1.146  14.131  23.433  0.00  0.00    +0.000 C 
ATOM      9  C   UNL     1      -1.131  12.646  23.082  0.00  0.00    +0.000 C 
ATOM     10  C   UNL     1      -2.480  11.913  23.183  0.00  0.00    +0.000 C 
ATOM     11  C   UNL     1      -3.787  12.734  23.223  0.00  0.00    +0.000 C 
ATOM     12  C   UNL     1      -3.531  14.154  23.716  0.00  0.00    +0.000 C 
ATOM     13  C   UNL     1      -4.794  12.653  22.021  0.00  0.00    +0.000 C 
ENDROOT
BRANCH   1  14
ATOM     14  C   UNL     1      -3.150  13.137  20.180  0.00  0.00    +0.000 C 
BRANCH  14  20
ATOM     15  C   UNL     1      -1.691  11.590  18.860  0.00  0.00    +0.000 A 
ATOM     16  C   UNL     1      -1.428  10.507  18.018  0.00  0.00    +0.000 A 
ATOM     17  C   UNL     1      -2.487   9.844  17.384  0.00  0.00    +0.000 A 
ATOM     18  C   UNL     1      -3.786  10.335  17.537  0.00  0.00    +0.000 A 
ATOM     19  C   UNL     1      -4.029  11.474  18.338  0.00  0.00    +0.000 A 
ATOM     20  C   UNL     1      -3.010  12.081  19.074  0.00  0.00    +0.000 A 
BRANCH  15  22
ATOM     21  C   UNL     1       0.623  12.115  19.226  0.00  0.00    +0.000 C 
ATOM     22  O   UNL     1      -0.725  12.160  19.650  0.00  0.00    +0.000 OA
ENDBRANCH  15  22
ENDBRANCH  14  20
ENDBRANCH   1  14
BRANCH  13  23
ATOM     23  C   UNL     1      -6.288  12.935  22.449  0.00  0.00    +0.000 C 
BRANCH  23  24
ATOM     24  C   UNL     1      -7.480  12.153  21.822  0.00  0.00    +0.000 C 
BRANCH  24  25
ATOM     25  C   UNL     1      -7.472  11.622  20.375  0.00  0.00    +0.000 C 
BRANCH  25  26
ATOM     26  C   UNL     1      -7.249  10.125  20.179  0.00  0.00    +0.000 C 
BRANCH  26  27
ATOM     27  O   UNL     1      -7.294   9.778  18.808  0.00  0.00    +0.000 OA
ATOM     28  H   UNL     1      -6.369   9.698  18.510  0.00  0.00    +0.000 HD
ENDBRANCH  26  27
ENDBRANCH  25  26
ENDBRANCH  24  25
ENDBRANCH  23  24
ENDBRANCH  13  23
TORSDOF 8
ENDMDL
MODEL 5
REMARK VINA RESULT:      -6.0      7.226     10.751
REMARK  Name = 
REMARK  9 active torsions:
REMARK  status: ('A' for Active; 'I' for Inactive)
REMARK    1  A    between atoms: C_1  and  O_2
REMARK    2  A    between atoms: O_2  and  C_3
REMARK    3  A    between atoms: C_8  and  C_9
REMARK    4  A    between atoms: C_9  and  N_10
REMARK    5  A    between atoms: C_22  and  C_23
REMARK    6  A    between atoms: C_23  and  C_24
REMARK    7  A    between atoms: C_24  and  C_25
REMARK    8  A    between atoms: C_25  and  C_26
REMARK    9  A    between atoms: C_26  and  O_27
REMARK                            x       y       z     vdW  Elec       q    Type
REMARK                         _______ _______ _______ _____ _____    ______ ____
ROOT
ATOM      1  N   UNL     1      -1.522  12.350  19.151  0.00  0.00    +0.000 NA
ATOM      2  C   UNL     1      -1.239  10.878  19.224  0.00  0.00    +0.000 C 
ATOM      3  C   UNL     1      -0.433  10.302  20.419  0.00  0.00    +0.000 C 
ATOM      4  C   UNL     1       0.681   9.250  20.261  0.00  0.00    +0.000 C 
ATOM      5  C   UNL     1       0.991   8.656  21.673  0.00  0.00    +0.000 C 
ATOM      6  C   UNL     1       0.416   9.418  22.916  0.00  0.00    +0.000 C 
ATOM      7  N   UNL     1      -0.007  10.825  22.759  0.00  0.00    +0.000 NA
ATOM      8  C   UNL     1      -1.409  11.063  23.122  0.00  0.00    +0.000 C 
ATOM      9  C   UNL     1      -1.675  12.565  23.173  0.00  0.00    +0.000 C 
ATOM     10  C   UNL     1      -0.786  13.441  22.273  0.00  0.00    +0.000 C 
ATOM     11  C   UNL     1       0.003  12.785  21.119  0.00  0.00    +0.000 C 
ATOM     12  C   UNL     1       0.225  11.299  21.378  0.00  0.00    +0.000 C 
ATOM     13  C   UNL     1      -0.373  13.119  19.631  0.00  0.00    +0.000 C 
ENDROOT
BRANCH   1  14
ATOM     14  C   UNL     1      -2.837  12.645  19.799  0.00  0.00    +0.000 C 
BRANCH  14  20
ATOM     15  C   UNL     1      -5.248  12.216  20.322  0.00  0.00    +0.000 A 
ATOM     16  C   UNL     1      -6.585  11.956  20.012  0.00  0.00    +0.000 A 
ATOM     17  C   UNL     1      -6.945  11.637  18.695  0.00  0.00    +0.000 A 
ATOM     18  C   UNL     1      -5.944  11.499  17.731  0.00  0.00    +0.000 A 
ATOM     19  C   UNL     1      -4.588  11.698  18.075  0.00  0.00    +0.000 A 
ATOM     20  C   UNL     1      -4.212  12.131  19.348  0.00  0.00    +0.000 A 
BRANCH  15  22
ATOM     21  C   UNL     1      -5.843  12.992  22.514  0.00  0.00    +0.000 C 
ATOM     22  O   UNL     1      -4.858  12.711  21.540  0.00  0.00    +0.000 OA
ENDBRANCH  15  22
ENDBRANCH  14  20
ENDBRANCH   1  14
BRANCH  13  23
ATOM     23  C   UNL     1       0.848  12.975  18.640  0.00  0.00    +0.000 C 
BRANCH  23  24
ATOM     24  C   UNL     1       1.918  14.098  18.493  0.00  0.00    +0.000 C 
BRANCH  24  25
ATOM     25  C   UNL     1       1.747  15.509  19.088  0.00  0.00    +0.000 C 
BRANCH  25  26
ATOM     26  C   UNL     1       2.229  16.687  18.247  0.00  0.00    +0.000 C 
BRANCH  26  27
ATOM     27  O   UNL     1       2.769  17.710  19.063  0.00  0.00    +0.000 OA
ATOM     28  H   UNL     1       3.118  18.393  18.460  0.00  0.00    +0.000 HD
ENDBRANCH  26  27
ENDBRANCH  25  26
ENDBRANCH  24  25
ENDBRANCH  23  24
ENDBRANCH  13  23
TORSDOF 8
ENDMDL
MODEL 6
REMARK VINA RESULT:      -6.0      2.395      6.305
REMARK  Name = 
REMARK  9 active torsions:
REMARK  status: ('A' for Active; 'I' for Inactive)
REMARK    1  A    between atoms: C_1  and  O_2
REMARK    2  A    between atoms: O_2  and  C_3
REMARK    3  A    between atoms: C_8  and  C_9
REMARK    4  A    between atoms: C_9  and  N_10
REMARK    5  A    between atoms: C_22  and  C_23
REMARK    6  A    between atoms: C_23  and  C_24
REMARK    7  A    between atoms: C_24  and  C_25
REMARK    8  A    between atoms: C_25  and  C_26
REMARK    9  A    between atoms: C_26  and  O_27
REMARK                            x       y       z     vdW  Elec       q    Type
REMARK                         _______ _______ _______ _____ _____    ______ ____
ROOT
ATOM      1  N   UNL     1       4.982   7.217  17.366  0.00  0.00    +0.000 NA
ATOM      2  C   UNL     1       5.057   6.962  15.889  0.00  0.00    +0.000 C 
ATOM      3  C   UNL     1       5.542   5.584  15.364  0.00  0.00    +0.000 C 
ATOM      4  C   UNL     1       6.524   5.423  14.188  0.00  0.00    +0.000 C 
ATOM      5  C   UNL     1       6.482   3.931  13.722  0.00  0.00    +0.000 C 
ATOM      6  C   UNL     1       5.783   2.900  14.673  0.00  0.00    +0.000 C 
ATOM      7  N   UNL     1       5.578   3.260  16.092  0.00  0.00    +0.000 NA
ATOM      8  C   UNL     1       4.174   3.209  16.516  0.00  0.00    +0.000 C 
ATOM      9  C   UNL     1       4.096   3.342  18.034  0.00  0.00    +0.000 C 
ATOM     10  C   UNL     1       5.243   4.116  18.706  0.00  0.00    +0.000 C 
ATOM     11  C   UNL     1       6.148   5.027  17.848  0.00  0.00    +0.000 C 
ATOM     12  C   UNL     1       6.127   4.601  16.384  0.00  0.00    +0.000 C 
ATOM     13  C   UNL     1       6.106   6.583  18.055  0.00  0.00    +0.000 C 
ENDROOT
BRANCH   1  14
ATOM     14  C   UNL     1       3.615   6.875  17.869  0.00  0.00    +0.000 C 
BRANCH  14  20
ATOM     15  C   UNL     1       2.081   7.587  19.714  0.00  0.00    +0.000 A 
ATOM     16  C   UNL     1       1.262   8.482  20.406  0.00  0.00    +0.000 A 
ATOM     17  C   UNL     1       0.926   9.712  19.824  0.00  0.00    +0.000 A 
ATOM     18  C   UNL     1       1.348   9.985  18.521  0.00  0.00    +0.000 A 
ATOM     19  C   UNL     1       2.120   9.040  17.807  0.00  0.00    +0.000 A 
ATOM     20  C   UNL     1       2.566   7.860  18.404  0.00  0.00    +0.000 A 
BRANCH  15  22
ATOM     21  C   UNL     1       1.728   5.376  20.581  0.00  0.00    +0.000 C 
ATOM     22  O   UNL     1       2.594   6.456  20.298  0.00  0.00    +0.000 OA
ENDBRANCH  15  22
ENDBRANCH  14  20
ENDBRANCH   1  14
BRANCH  13  23
ATOM     23  C   UNL     1       7.466   7.291  17.675  0.00  0.00    +0.000 C 
BRANCH  23  24
ATOM     24  C   UNL     1       7.625   8.839  17.732  0.00  0.00    +0.000 C 
BRANCH  24  25
ATOM     25  C   UNL     1       8.790   9.541  18.457  0.00  0.00    +0.000 C 
BRANCH  25  26
ATOM     26  C   UNL     1       9.017  11.019  18.151  0.00  0.00    +0.000 C 
BRANCH  26  27
ATOM     27  O   UNL     1      10.397  11.307  18.025  0.00  0.00    +0.000 OA
ATOM     28  H   UNL     1      10.693  11.638  18.894  0.00  0.00    +0.000 HD
ENDBRANCH  26  27
ENDBRANCH  25  26
ENDBRANCH  24  25
ENDBRANCH  23  24
ENDBRANCH  13  23
TORSDOF 8
ENDMDL
MODEL 7
REMARK VINA RESULT:      -6.0      4.650      9.568
REMARK  Name = 
REMARK  9 active torsions:
REMARK  status: ('A' for Active; 'I' for Inactive)
REMARK    1  A    between atoms: C_1  and  O_2
REMARK    2  A    between atoms: O_2  and  C_3
REMARK    3  A    between atoms: C_8  and  C_9
REMARK    4  A    between atoms: C_9  and  N_10
REMARK    5  A    between atoms: C_22  and  C_23
REMARK    6  A    between atoms: C_23  and  C_24
REMARK    7  A    between atoms: C_24  and  C_25
REMARK    8  A    between atoms: C_25  and  C_26
REMARK    9  A    between atoms: C_26  and  O_27
REMARK                            x       y       z     vdW  Elec       q    Type
REMARK                         _______ _______ _______ _____ _____    ______ ____
ROOT
ATOM      1  N   UNL     1      -0.292  11.208  18.251  0.00  0.00    +0.000 NA
ATOM      2  C   UNL     1      -0.802  10.048  19.056  0.00  0.00    +0.000 C 
ATOM      3  C   UNL     1      -0.598  10.024  20.596  0.00  0.00    +0.000 C 
ATOM      4  C   UNL     1      -0.153   8.769  21.371  0.00  0.00    +0.000 C 
ATOM      5  C   UNL     1      -0.415   9.022  22.892  0.00  0.00    +0.000 C 
ATOM      6  C   UNL     1      -0.720  10.494  23.334  0.00  0.00    +0.000 C 
ATOM      7  N   UNL     1      -0.349  11.604  22.432  0.00  0.00    +0.000 NA
ATOM      8  C   UNL     1      -1.480  12.460  22.054  0.00  0.00    +0.000 C 
ATOM      9  C   UNL     1      -0.960  13.706  21.343  0.00  0.00    +0.000 C 
ATOM     10  C   UNL     1       0.379  13.554  20.602  0.00  0.00    +0.000 C 
ATOM     11  C   UNL     1       0.906  12.140  20.272  0.00  0.00    +0.000 C 
ATOM     12  C   UNL     1       0.308  11.097  21.209  0.00  0.00    +0.000 C 
ATOM     13  C   UNL     1       0.993  11.672  18.775  0.00  0.00    +0.000 C 
ENDROOT
BRANCH   1  14
ATOM     14  C   UNL     1      -1.366  12.239  18.115  0.00  0.00    +0.000 C 
BRANCH  14  20
ATOM     15  C   UNL     1      -3.440  11.379  17.006  0.00  0.00    +0.000 A 
ATOM     16  C   UNL     1      -4.762  10.930  16.966  0.00  0.00    +0.000 A 
ATOM     17  C   UNL     1      -5.570  11.040  18.107  0.00  0.00    +0.000 A 
ATOM     18  C   UNL     1      -5.063  11.679  19.240  0.00  0.00    +0.000 A 
ATOM     19  C   UNL     1      -3.745  12.191  19.243  0.00  0.00    +0.000 A 
ATOM     20  C   UNL     1      -2.881  11.991  18.165  0.00  0.00    +0.000 A 
BRANCH  15  22
ATOM     21  C   UNL     1      -2.939  10.298  14.922  0.00  0.00    +0.000 C 
ATOM     22  O   UNL     1      -2.548  11.134  15.993  0.00  0.00    +0.000 OA
ENDBRANCH  15  22
ENDBRANCH  14  20
ENDBRANCH   1  14
BRANCH  13  23
ATOM     23  C   UNL     1       2.119  10.591  18.533  0.00  0.00    +0.000 C 
BRANCH  23  24
ATOM     24  C   UNL     1       1.859   9.320  17.671  0.00  0.00    +0.000 C 
BRANCH  24  25
ATOM     25  C   UNL     1       2.239   7.898  18.128  0.00  0.00    +0.000 C 
BRANCH  25  26
ATOM     26  C   UNL     1       3.554   7.324  17.609  0.00  0.00    +0.000 C 
BRANCH  26  27
ATOM     27  O   UNL     1       3.581   5.914  17.736  0.00  0.00    +0.000 OA
ATOM     28  H   UNL     1       3.334   5.551  16.865  0.00  0.00    +0.000 HD
ENDBRANCH  26  27
ENDBRANCH  25  26
ENDBRANCH  24  25
ENDBRANCH  23  24
ENDBRANCH  13  23
TORSDOF 8
ENDMDL
MODEL 8
REMARK VINA RESULT:      -6.0      6.739      9.335
REMARK  Name = 
REMARK  9 active torsions:
REMARK  status: ('A' for Active; 'I' for Inactive)
REMARK    1  A    between atoms: C_1  and  O_2
REMARK    2  A    between atoms: O_2  and  C_3
REMARK    3  A    between atoms: C_8  and  C_9
REMARK    4  A    between atoms: C_9  and  N_10
REMARK    5  A    between atoms: C_22  and  C_23
REMARK    6  A    between atoms: C_23  and  C_24
REMARK    7  A    between atoms: C_24  and  C_25
REMARK    8  A    between atoms: C_25  and  C_26
REMARK    9  A    between atoms: C_26  and  O_27
REMARK                            x       y       z     vdW  Elec       q    Type
REMARK                         _______ _______ _______ _____ _____    ______ ____
ROOT
ATOM      1  N   UNL     1      -1.099  13.124  19.252  0.00  0.00    +0.000 NA
ATOM      2  C   UNL     1      -0.756  12.975  20.706  0.00  0.00    +0.000 C 
ATOM      3  C   UNL     1      -0.516  11.562  21.305  0.00  0.00    +0.000 C 
ATOM      4  C   UNL     1      -1.079  11.112  22.666  0.00  0.00    +0.000 C 
ATOM      5  C   UNL     1      -0.337   9.803  23.090  0.00  0.00    +0.000 C 
ATOM      6  C   UNL     1       0.507   9.069  21.993  0.00  0.00    +0.000 C 
ATOM      7  N   UNL     1       0.248   9.370  20.569  0.00  0.00    +0.000 NA
ATOM      8  C   UNL     1       1.429   9.853  19.844  0.00  0.00    +0.000 C 
ATOM      9  C   UNL     1       1.129   9.889  18.349  0.00  0.00    +0.000 C 
ATOM     10  C   UNL     1      -0.346  10.084  17.958  0.00  0.00    +0.000 C 
ATOM     11  C   UNL     1      -1.343  10.620  19.009  0.00  0.00    +0.000 C 
ATOM     12  C   UNL     1      -0.847  10.352  20.425  0.00  0.00    +0.000 C 
ATOM     13  C   UNL     1      -1.984  12.041  18.820  0.00  0.00    +0.000 C 
ENDROOT
BRANCH   1  14
ATOM     14  C   UNL     1       0.151  13.320  18.456  0.00  0.00    +0.000 C 
BRANCH  14  20
ATOM     15  C   UNL     1       1.265  15.515  18.913  0.00  0.00    +0.000 A 
ATOM     16  C   UNL     1       2.246  16.349  19.454  0.00  0.00    +0.000 A 
ATOM     17  C   UNL     1       3.391  15.790  20.038  0.00  0.00    +0.000 A 
ATOM     18  C   UNL     1       3.573  14.406  19.990  0.00  0.00    +0.000 A 
ATOM     19  C   UNL     1       2.603  13.579  19.378  0.00  0.00    +0.000 A 
ATOM     20  C   UNL     1       1.400  14.097  18.895  0.00  0.00    +0.000 A 
BRANCH  15  22
ATOM     21  C   UNL     1      -0.122  17.374  18.297  0.00  0.00    +0.000 C 
ATOM     22  O   UNL     1       0.045  15.985  18.498  0.00  0.00    +0.000 OA
ENDBRANCH  15  22
ENDBRANCH  14  20
ENDBRANCH   1  14
BRANCH  13  23
ATOM     23  C   UNL     1      -3.402  12.173  19.502  0.00  0.00    +0.000 C 
BRANCH  23  24
ATOM     24  C   UNL     1      -4.702  11.706  18.783  0.00  0.00    +0.000 C 
BRANCH  24  25
ATOM     25  C   UNL     1      -4.970  11.946  17.284  0.00  0.00    +0.000 C 
BRANCH  25  26
ATOM     26  C   UNL     1      -4.303  10.997  16.292  0.00  0.00    +0.000 C 
BRANCH  26  27
ATOM     27  O   UNL     1      -3.167  11.596  15.698  0.00  0.00    +0.000 OA
ATOM     28  H   UNL     1      -2.975  12.403  16.212  0.00  0.00    +0.000 HD
ENDBRANCH  26  27
ENDBRANCH  25  26
ENDBRANCH  24  25
ENDBRANCH  23  24
ENDBRANCH  13  23
TORSDOF 8
ENDMDL
MODEL 9
REMARK VINA RESULT:      -5.9      8.077     11.850
REMARK  Name = 
REMARK  9 active torsions:
REMARK  status: ('A' for Active; 'I' for Inactive)
REMARK    1  A    between atoms: C_1  and  O_2
REMARK    2  A    between atoms: O_2  and  C_3
REMARK    3  A    between atoms: C_8  and  C_9
REMARK    4  A    between atoms: C_9  and  N_10
REMARK    5  A    between atoms: C_22  and  C_23
REMARK    6  A    between atoms: C_23  and  C_24
REMARK    7  A    between atoms: C_24  and  C_25
REMARK    8  A    between atoms: C_25  and  C_26
REMARK    9  A    between atoms: C_26  and  O_27
REMARK                            x       y       z     vdW  Elec       q    Type
REMARK                         _______ _______ _______ _____ _____    ______ ____
ROOT
ATOM      1  N   UNL     1      -3.995  13.568  20.505  0.00  0.00    +0.000 NA
ATOM      2  C   UNL     1      -4.258  14.944  21.042  0.00  0.00    +0.000 C 
ATOM      3  C   UNL     1      -4.131  15.220  22.565  0.00  0.00    +0.000 C 
ATOM      4  C   UNL     1      -5.147  16.060  23.361  0.00  0.00    +0.000 C 
ATOM      5  C   UNL     1      -4.504  16.420  24.740  0.00  0.00    +0.000 C 
ATOM      6  C   UNL     1      -3.212  15.637  25.157  0.00  0.00    +0.000 C 
ATOM      7  N   UNL     1      -2.901  14.359  24.481  0.00  0.00    +0.000 NA
ATOM      8  C   UNL     1      -1.587  14.343  23.828  0.00  0.00    +0.000 C 
ATOM      9  C   UNL     1      -1.254  12.920  23.389  0.00  0.00    +0.000 C 
ATOM     10  C   UNL     1      -2.455  12.006  23.087  0.00  0.00    +0.000 C 
ATOM     11  C   UNL     1      -3.845  12.635  22.849  0.00  0.00    +0.000 C 
ATOM     12  C   UNL     1      -3.942  14.014  23.491  0.00  0.00    +0.000 C 
ATOM     13  C   UNL     1      -4.504  12.551  21.426  0.00  0.00    +0.000 C 
ENDROOT
BRANCH   1  14
ATOM     14  C   UNL     1      -2.558  13.447  20.108  0.00  0.00    +0.000 C 
BRANCH  14  20
ATOM     15  C   UNL     1      -0.525  12.171  19.396  0.00  0.00    +0.000 A 
ATOM     16  C   UNL     1       0.161  11.090  18.837  0.00  0.00    +0.000 A 
ATOM     17  C   UNL     1      -0.548  10.092  18.156  0.00  0.00    +0.000 A 
ATOM     18  C   UNL     1      -1.925  10.241  17.971  0.00  0.00    +0.000 A 
ATOM     19  C   UNL     1      -2.595  11.375  18.484  0.00  0.00    +0.000 A 
ATOM     20  C   UNL     1      -1.935  12.323  19.267  0.00  0.00    +0.000 A 
BRANCH  15  22
ATOM     21  C   UNL     1       1.157  13.849  19.734  0.00  0.00    +0.000 C 
ATOM     22  O   UNL     1       0.081  13.077  20.228  0.00  0.00    +0.000 OA
ENDBRANCH  15  22
ENDBRANCH  14  20
ENDBRANCH   1  14
BRANCH  13  23
ATOM     23  C   UNL     1      -6.082  12.581  21.476  0.00  0.00    +0.000 C 
BRANCH  23  24
ATOM     24  C   UNL     1      -6.947  11.726  20.503  0.00  0.00    +0.000 C 
BRANCH  24  25
ATOM     25  C   UNL     1      -7.906  10.618  20.980  0.00  0.00    +0.000 C 
BRANCH  25  26
ATOM     26  C   UNL     1      -7.593   9.188  20.550  0.00  0.00    +0.000 C 
BRANCH  26  27
ATOM     27  O   UNL     1      -7.687   9.045  19.145  0.00  0.00    +0.000 OA
ATOM     28  H   UNL     1      -6.774   9.046  18.803  0.00  0.00    +0.000 HD
ENDBRANCH  26  27
ENDBRANCH  25  26
ENDBRANCH  24  25
ENDBRANCH  23  24
ENDBRANCH  13  23
TORSDOF 8
ENDMDL
