MODEL 1
REMARK VINA RESULT:      -7.9      0.000      0.000
REMARK  Name = 
REMARK  4 active torsions:
REMARK  status: ('A' for Active; 'I' for Inactive)
REMARK    1  A    between atoms: C_2  and  C_3
REMARK    2  A    between atoms: N_11  and  C_12
REMARK    3  A    between atoms: C_14  and  C_15
REMARK    4  A    between atoms: C_24  and  C_25
REMARK                            x       y       z     vdW  Elec       q    Type
REMARK                         _______ _______ _______ _____ _____    ______ ____
ROOT
ATOM      1  C   UNL     1       1.223  11.509  19.913  0.00  0.00    +0.000 A 
ATOM      2  C   UNL     1       1.692  10.322  19.487  0.00  0.00    +0.000 A 
ATOM      3  C   UNL     1       1.246   9.086  20.195  0.00  0.00    +0.000 A 
ATOM      4  N   UNL     1       0.379   9.065  21.169  0.00  0.00    +0.000 NA
ATOM      5  C   UNL     1      -0.099  10.274  21.580  0.00  0.00    +0.000 A 
ATOM      6  C   UNL     1      -0.993  10.591  22.572  0.00  0.00    +0.000 A 
ATOM      7  C   UNL     1      -1.102  12.000  22.576  0.00  0.00    +0.000 A 
ATOM      8  N   UNL     1      -0.296  12.543  21.650  0.00  0.00    +0.000 NA
ATOM      9  N   UNL     1       0.298  11.491  21.006  0.00  0.00    +0.000 N 
ENDROOT
BRANCH   1  15
ATOM     10  O   UNL     1       3.226  17.208  18.828  0.00  0.00    +0.000 OA
ATOM     11  C   UNL     1       2.084  16.788  18.660  0.00  0.00    +0.000 C 
ATOM     12  N   UNL     1       1.662  15.588  19.228  0.00  0.00    +0.000 N 
ATOM     13  C   UNL     1       0.436  14.837  18.897  0.00  0.00    +0.000 C 
ATOM     14  C   UNL     1       0.766  13.449  18.337  0.00  0.00    +0.000 C 
ATOM     15  N   UNL     1       1.614  12.711  19.285  0.00  0.00    +0.000 N 
ATOM     16  C   UNL     1       2.878  13.428  19.580  0.00  0.00    +0.000 C 
ATOM     17  C   UNL     1       2.585  14.851  20.105  0.00  0.00    +0.000 C 
BRANCH  11  18
ATOM     18  C   UNL     1       1.167  17.541  17.809  0.00  0.00    +0.000 A 
ATOM     19  C   UNL     1       1.428  18.008  16.485  0.00  0.00    +0.000 A 
ATOM     20  C   UNL     1       0.278  18.617  16.045  0.00  0.00    +0.000 A 
ATOM     21  O   UNL     1      -0.654  18.628  17.029  0.00  0.00    +0.000 OA
ATOM     22  C   UNL     1      -0.093  18.025  18.106  0.00  0.00    +0.000 A 
ENDBRANCH  11  18
ENDBRANCH   1  15
BRANCH   3  23
ATOM     23  C   UNL     1       1.840   7.811  19.702  0.00  0.00    +0.000 A 
ATOM     24  C   UNL     1       2.542   7.753  18.490  0.00  0.00    +0.000 A 
ATOM     25  C   UNL     1       3.061   6.541  18.037  0.00  0.00    +0.000 A 
ATOM     26  C   UNL     1       2.899   5.387  18.800  0.00  0.00    +0.000 A 
ATOM     27  C   UNL     1       2.224   5.443  20.019  0.00  0.00    +0.000 A 
ATOM     28  C   UNL     1       1.696   6.652  20.473  0.00  0.00    +0.000 A 
ENDBRANCH   3  23
BRANCH   7  29
ATOM     29  C   UNL     1      -1.926  12.828  23.463  0.00  0.00    +0.000 A 
ATOM     30  C   UNL     1      -3.185  12.382  23.888  0.00  0.00    +0.000 A 
ATOM     31  C   UNL     1      -4.004  13.192  24.682  0.00  0.00    +0.000 A 
ATOM     32  C   UNL     1      -3.565  14.456  25.072  0.00  0.00    +0.000 A 
ATOM     33  C   UNL     1      -2.304  14.902  24.685  0.00  0.00    +0.000 A 
ATOM     34  C   UNL     1      -1.486  14.094  23.887  0.00  0.00    +0.000 A 
ENDBRANCH   7  29
TORSDOF 4
ENDMDL
MODEL 2
REMARK VINA RESULT:      -7.8      0.431      1.079
REMARK  Name = 
REMARK  4 active torsions:
REMARK  status: ('A' for Active; 'I' for Inactive)
REMARK    1  A    between atoms: C_2  and  C_3
REMARK    2  A    between atoms: N_11  and  C_12
REMARK    3  A    between atoms: C_14  and  C_15
REMARK    4  A    between atoms: C_24  and  C_25
REMARK                            x       y       z     vdW  Elec       q    Type
REMARK                         _______ _______ _______ _____ _____    ______ ____
ROOT
ATOM      1  C   UNL     1       1.161  11.590  20.057  0.00  0.00    +0.000 A 
ATOM      2  C   UNL     1       1.585  10.373  19.669  0.00  0.00    +0.000 A 
ATOM      3  C   UNL     1       1.086   9.177  20.410  0.00  0.00    +0.000 A 
ATOM      4  N   UNL     1       0.215   9.218  21.378  0.00  0.00    +0.000 NA
ATOM      5  C   UNL     1      -0.218  10.457  21.751  0.00  0.00    +0.000 A 
ATOM      6  C   UNL     1      -1.105  10.838  22.727  0.00  0.00    +0.000 A 
ATOM      7  C   UNL     1      -1.158  12.249  22.688  0.00  0.00    +0.000 A 
ATOM      8  N   UNL     1      -0.327  12.732  21.752  0.00  0.00    +0.000 NA
ATOM      9  N   UNL     1       0.229  11.640  21.144  0.00  0.00    +0.000 N 
ENDROOT
BRANCH   1  15
ATOM     10  O   UNL     1       3.320  17.200  18.821  0.00  0.00    +0.000 OA
ATOM     11  C   UNL     1       2.179  16.794  18.621  0.00  0.00    +0.000 C 
ATOM     12  N   UNL     1       1.708  15.627  19.220  0.00  0.00    +0.000 N 
ATOM     13  C   UNL     1       0.484  14.884  18.868  0.00  0.00    +0.000 C 
ATOM     14  C   UNL     1       0.810  13.467  18.382  0.00  0.00    +0.000 C 
ATOM     15  N   UNL     1       1.602  12.756  19.397  0.00  0.00    +0.000 N 
ATOM     16  C   UNL     1       2.865  13.463  19.715  0.00  0.00    +0.000 C 
ATOM     17  C   UNL     1       2.579  14.912  20.167  0.00  0.00    +0.000 C 
BRANCH  11  18
ATOM     18  C   UNL     1       1.314  17.525  17.700  0.00  0.00    +0.000 A 
ATOM     19  C   UNL     1      -0.035  17.927  17.939  0.00  0.00    +0.000 A 
ATOM     20  C   UNL     1      -0.443  18.631  16.831  0.00  0.00    +0.000 A 
ATOM     21  O   UNL     1       0.532  18.630  15.890  0.00  0.00    +0.000 OA
ATOM     22  C   UNL     1       1.568  17.918  16.399  0.00  0.00    +0.000 A 
ENDBRANCH  11  18
ENDBRANCH   1  15
BRANCH   3  23
ATOM     23  C   UNL     1       1.633   7.865  19.958  0.00  0.00    +0.000 A 
ATOM     24  C   UNL     1       1.503   6.711  20.743  0.00  0.00    +0.000 A 
ATOM     25  C   UNL     1       2.050   5.504  20.312  0.00  0.00    +0.000 A 
ATOM     26  C   UNL     1       2.710   5.438  19.086  0.00  0.00    +0.000 A 
ATOM     27  C   UNL     1       2.820   6.577  18.290  0.00  0.00    +0.000 A 
ATOM     28  C   UNL     1       2.281   7.790  18.721  0.00  0.00    +0.000 A 
ENDBRANCH   3  23
BRANCH   7  29
ATOM     29  C   UNL     1      -1.954  13.135  23.545  0.00  0.00    +0.000 A 
ATOM     30  C   UNL     1      -3.290  12.831  23.839  0.00  0.00    +0.000 A 
ATOM     31  C   UNL     1      -4.074  13.702  24.603  0.00  0.00    +0.000 A 
ATOM     32  C   UNL     1      -3.524  14.884  25.095  0.00  0.00    +0.000 A 
ATOM     33  C   UNL     1      -2.189  15.186  24.840  0.00  0.00    +0.000 A 
ATOM     34  C   UNL     1      -1.406  14.317  24.072  0.00  0.00    +0.000 A 
ENDBRANCH   7  29
TORSDOF 4
ENDMDL
MODEL 3
REMARK VINA RESULT:      -7.7      4.049      7.910
REMARK  Name = 
REMARK  4 active torsions:
REMARK  status: ('A' for Active; 'I' for Inactive)
REMARK    1  A    between atoms: C_2  and  C_3
REMARK    2  A    between atoms: N_11  and  C_12
REMARK    3  A    between atoms: C_14  and  C_15
REMARK    4  A    between atoms: C_24  and  C_25
REMARK                            x       y       z     vdW  Elec       q    Type
REMARK                         _______ _______ _______ _____ _____    ______ ____
ROOT
ATOM      1  C   UNL     1       0.633  11.365  19.571  0.00  0.00    +0.000 A 
ATOM      2  C   UNL     1       1.772  12.065  19.412  0.00  0.00    +0.000 A 
ATOM      3  C   UNL     1       1.701  13.555  19.449  0.00  0.00    +0.000 A 
ATOM      4  N   UNL     1       0.616  14.238  19.686  0.00  0.00    +0.000 NA
ATOM      5  C   UNL     1      -0.528  13.515  19.860  0.00  0.00    +0.000 A 
ATOM      6  C   UNL     1      -1.815  13.924  20.105  0.00  0.00    +0.000 A 
ATOM      7  C   UNL     1      -2.600  12.751  20.171  0.00  0.00    +0.000 A 
ATOM      8  N   UNL     1      -1.849  11.661  19.952  0.00  0.00    +0.000 NA
ATOM      9  N   UNL     1      -0.566  12.114  19.796  0.00  0.00    +0.000 N 
ENDROOT
BRANCH   1  15
ATOM     10  O   UNL     1       1.600   5.448  20.881  0.00  0.00    +0.000 OA
ATOM     11  C   UNL     1       2.055   6.071  19.926  0.00  0.00    +0.000 C 
ATOM     12  N   UNL     1       2.037   7.463  19.892  0.00  0.00    +0.000 N 
ATOM     13  C   UNL     1       2.290   8.323  18.720  0.00  0.00    +0.000 C 
ATOM     14  C   UNL     1       1.059   9.167  18.371  0.00  0.00    +0.000 C 
ATOM     15  N   UNL     1       0.639   9.955  19.540  0.00  0.00    +0.000 N 
ATOM     16  C   UNL     1       0.324   9.097  20.707  0.00  0.00    +0.000 C 
ATOM     17  C   UNL     1       1.529   8.198  21.062  0.00  0.00    +0.000 C 
BRANCH  11  18
ATOM     18  C   UNL     1       2.581   5.332  18.781  0.00  0.00    +0.000 A 
ATOM     19  C   UNL     1       3.932   5.335  18.317  0.00  0.00    +0.000 A 
ATOM     20  C   UNL     1       3.989   4.466  17.254  0.00  0.00    +0.000 A 
ATOM     21  O   UNL     1       2.754   3.981  16.978  0.00  0.00    +0.000 OA
ATOM     22  C   UNL     1       1.902   4.547  17.868  0.00  0.00    +0.000 A 
ENDBRANCH  11  18
ENDBRANCH   1  15
BRANCH   3  23
ATOM     23  C   UNL     1       2.990  14.267  19.220  0.00  0.00    +0.000 A 
ATOM     24  C   UNL     1       3.429  14.586  17.927  0.00  0.00    +0.000 A 
ATOM     25  C   UNL     1       4.653  15.224  17.738  0.00  0.00    +0.000 A 
ATOM     26  C   UNL     1       5.436  15.567  18.840  0.00  0.00    +0.000 A 
ATOM     27  C   UNL     1       4.993  15.276  20.130  0.00  0.00    +0.000 A 
ATOM     28  C   UNL     1       3.771  14.630  20.323  0.00  0.00    +0.000 A 
ENDBRANCH   3  23
BRANCH   7  29
ATOM     29  C   UNL     1      -4.046  12.659  20.401  0.00  0.00    +0.000 A 
ATOM     30  C   UNL     1      -4.586  12.938  21.664  0.00  0.00    +0.000 A 
ATOM     31  C   UNL     1      -5.956  12.791  21.907  0.00  0.00    +0.000 A 
ATOM     32  C   UNL     1      -6.805  12.374  20.884  0.00  0.00    +0.000 A 
ATOM     33  C   UNL     1      -6.290  12.123  19.615  0.00  0.00    +0.000 A 
ATOM     34  C   UNL     1      -4.919  12.266  19.372  0.00  0.00    +0.000 A 
ENDBRANCH   7  29
TORSDOF 4
ENDMDL
MODEL 4
REMARK VINA RESULT:      -7.7      4.051      7.968
REMARK  Name = 
REMARK  4 active torsions:
REMARK  status: ('A' for Active; 'I' for Inactive)
REMARK    1  A    between atoms: C_2  and  C_3
REMARK    2  A    between atoms: N_11  and  C_12
REMARK    3  A    between atoms: C_14  and  C_15
REMARK    4  A    between atoms: C_24  and  C_25
REMARK                            x       y       z     vdW  Elec       q    Type
REMARK                         _______ _______ _______ _____ _____    ______ ____
ROOT
ATOM      1  C   UNL     1       0.628  11.355  19.616  0.00  0.00    +0.000 A 
ATOM      2  C   UNL     1       1.769  12.055  19.466  0.00  0.00    +0.000 A 
ATOM      3  C   UNL     1       1.697  13.545  19.494  0.00  0.00    +0.000 A 
ATOM      4  N   UNL     1       0.609  14.229  19.714  0.00  0.00    +0.000 NA
ATOM      5  C   UNL     1      -0.536  13.507  19.879  0.00  0.00    +0.000 A 
ATOM      6  C   UNL     1      -1.827  13.917  20.107  0.00  0.00    +0.000 A 
ATOM      7  C   UNL     1      -2.612  12.744  20.170  0.00  0.00    +0.000 A 
ATOM      8  N   UNL     1      -1.858  11.653  19.966  0.00  0.00    +0.000 NA
ATOM      9  N   UNL     1      -0.574  12.106  19.823  0.00  0.00    +0.000 N 
ENDROOT
BRANCH   1  15
ATOM     10  O   UNL     1       1.609   5.446  20.954  0.00  0.00    +0.000 OA
ATOM     11  C   UNL     1       2.055   6.064  19.991  0.00  0.00    +0.000 C 
ATOM     12  N   UNL     1       2.037   7.456  19.949  0.00  0.00    +0.000 N 
ATOM     13  C   UNL     1       2.280   8.309  18.770  0.00  0.00    +0.000 C 
ATOM     14  C   UNL     1       1.046   9.151  18.425  0.00  0.00    +0.000 C 
ATOM     15  N   UNL     1       0.635   9.945  19.593  0.00  0.00    +0.000 N 
ATOM     16  C   UNL     1       0.329   9.094  20.768  0.00  0.00    +0.000 C 
ATOM     17  C   UNL     1       1.537   8.197  21.118  0.00  0.00    +0.000 C 
BRANCH  11  18
ATOM     18  C   UNL     1       2.573   5.319  18.846  0.00  0.00    +0.000 A 
ATOM     19  C   UNL     1       1.846   4.396  18.035  0.00  0.00    +0.000 A 
ATOM     20  C   UNL     1       2.703   3.973  17.048  0.00  0.00    +0.000 A 
ATOM     21  O   UNL     1       3.933   4.511  17.233  0.00  0.00    +0.000 OA
ATOM     22  C   UNL     1       3.862   5.279  18.348  0.00  0.00    +0.000 A 
ENDBRANCH  11  18
ENDBRANCH   1  15
BRANCH   3  23
ATOM     23  C   UNL     1       2.989  14.256  19.276  0.00  0.00    +0.000 A 
ATOM     24  C   UNL     1       3.833  14.582  20.346  0.00  0.00    +0.000 A 
ATOM     25  C   UNL     1       5.021  15.275  20.118  0.00  0.00    +0.000 A 
ATOM     26  C   UNL     1       5.382  15.627  18.819  0.00  0.00    +0.000 A 
ATOM     27  C   UNL     1       4.559  15.283  17.747  0.00  0.00    +0.000 A 
ATOM     28  C   UNL     1       3.365  14.596  17.972  0.00  0.00    +0.000 A 
ENDBRANCH   3  23
BRANCH   7  29
ATOM     29  C   UNL     1      -4.060  12.653  20.384  0.00  0.00    +0.000 A 
ATOM     30  C   UNL     1      -4.612  12.902  21.648  0.00  0.00    +0.000 A 
ATOM     31  C   UNL     1      -5.984  12.755  21.875  0.00  0.00    +0.000 A 
ATOM     32  C   UNL     1      -6.825  12.370  20.833  0.00  0.00    +0.000 A 
ATOM     33  C   UNL     1      -6.299  12.150  19.562  0.00  0.00    +0.000 A 
ATOM     34  C   UNL     1      -4.925  12.292  19.336  0.00  0.00    +0.000 A 
ENDBRANCH   7  29
TORSDOF 4
ENDMDL
MODEL 5
REMARK VINA RESULT:      -7.6      3.946      7.905
REMARK  Name = 
REMARK  4 active torsions:
REMARK  status: ('A' for Active; 'I' for Inactive)
REMARK    1  A    between atoms: C_2  and  C_3
REMARK    2  A    between atoms: N_11  and  C_12
REMARK    3  A    between atoms: C_14  and  C_15
REMARK    4  A    between atoms: C_24  and  C_25
REMARK                            x       y       z     vdW  Elec       q    Type
REMARK                         _______ _______ _______ _____ _____    ______ ____
ROOT
ATOM      1  C   UNL     1       0.573  11.427  19.568  0.00  0.00    +0.000 A 
ATOM      2  C   UNL     1       1.693  12.145  19.364  0.00  0.00    +0.000 A 
ATOM      3  C   UNL     1       1.598  13.634  19.395  0.00  0.00    +0.000 A 
ATOM      4  N   UNL     1       0.510  14.300  19.664  0.00  0.00    +0.000 NA
ATOM      5  C   UNL     1      -0.614  13.559  19.883  0.00  0.00    +0.000 A 
ATOM      6  C   UNL     1      -1.899  13.948  20.170  0.00  0.00    +0.000 A 
ATOM      7  C   UNL     1      -2.661  12.762  20.271  0.00  0.00    +0.000 A 
ATOM      8  N   UNL     1      -1.899  11.684  20.033  0.00  0.00    +0.000 NA
ATOM      9  N   UNL     1      -0.631  12.157  19.830  0.00  0.00    +0.000 N 
ENDROOT
BRANCH   1  15
ATOM     10  O   UNL     1       1.653   5.535  20.905  0.00  0.00    +0.000 OA
ATOM     11  C   UNL     1       2.086   6.159  19.940  0.00  0.00    +0.000 C 
ATOM     12  N   UNL     1       2.045   7.551  19.897  0.00  0.00    +0.000 N 
ATOM     13  C   UNL     1       2.269   8.407  18.717  0.00  0.00    +0.000 C 
ATOM     14  C   UNL     1       1.021   9.228  18.377  0.00  0.00    +0.000 C 
ATOM     15  N   UNL     1       0.601  10.017  19.546  0.00  0.00    +0.000 N 
ATOM     16  C   UNL     1       0.315   9.161  20.722  0.00  0.00    +0.000 C 
ATOM     17  C   UNL     1       1.538   8.284  21.068  0.00  0.00    +0.000 C 
BRANCH  11  18
ATOM     18  C   UNL     1       2.610   5.422  18.794  0.00  0.00    +0.000 A 
ATOM     19  C   UNL     1       3.952   5.453  18.306  0.00  0.00    +0.000 A 
ATOM     20  C   UNL     1       4.013   4.575  17.251  0.00  0.00    +0.000 A 
ATOM     21  O   UNL     1       2.786   4.057  17.001  0.00  0.00    +0.000 OA
ATOM     22  C   UNL     1       1.936   4.611  17.901  0.00  0.00    +0.000 A 
ENDBRANCH  11  18
ENDBRANCH   1  15
BRANCH   3  23
ATOM     23  C   UNL     1       2.867  14.366  19.116  0.00  0.00    +0.000 A 
ATOM     24  C   UNL     1       3.874  14.477  20.084  0.00  0.00    +0.000 A 
ATOM     25  C   UNL     1       5.037  15.193  19.809  0.00  0.00    +0.000 A 
ATOM     26  C   UNL     1       5.209  15.785  18.559  0.00  0.00    +0.000 A 
ATOM     27  C   UNL     1       4.222  15.656  17.582  0.00  0.00    +0.000 A 
ATOM     28  C   UNL     1       3.053  14.946  17.857  0.00  0.00    +0.000 A 
ENDBRANCH   3  23
BRANCH   7  29
ATOM     29  C   UNL     1      -4.096  12.648  20.552  0.00  0.00    +0.000 A 
ATOM     30  C   UNL     1      -4.997  12.304  19.535  0.00  0.00    +0.000 A 
ATOM     31  C   UNL     1      -6.373  12.254  19.781  0.00  0.00    +0.000 A 
ATOM     32  C   UNL     1      -6.864  12.536  21.055  0.00  0.00    +0.000 A 
ATOM     33  C   UNL     1      -5.980  12.848  22.085  0.00  0.00    +0.000 A 
ATOM     34  C   UNL     1      -4.604  12.902  21.838  0.00  0.00    +0.000 A 
ENDBRANCH   7  29
TORSDOF 4
ENDMDL
MODEL 6
REMARK VINA RESULT:      -7.6      3.977      7.898
REMARK  Name = 
REMARK  4 active torsions:
REMARK  status: ('A' for Active; 'I' for Inactive)
REMARK    1  A    between atoms: C_2  and  C_3
REMARK    2  A    between atoms: N_11  and  C_12
REMARK    3  A    between atoms: C_14  and  C_15
REMARK    4  A    between atoms: C_24  and  C_25
REMARK                            x       y       z     vdW  Elec       q    Type
REMARK                         _______ _______ _______ _____ _____    ______ ____
ROOT
ATOM      1  C   UNL     1       0.574  11.412  19.524  0.00  0.00    +0.000 A 
ATOM      2  C   UNL     1       1.696  12.130  19.328  0.00  0.00    +0.000 A 
ATOM      3  C   UNL     1       1.600  13.619  19.357  0.00  0.00    +0.000 A 
ATOM      4  N   UNL     1       0.510  14.285  19.619  0.00  0.00    +0.000 NA
ATOM      5  C   UNL     1      -0.615  13.544  19.830  0.00  0.00    +0.000 A 
ATOM      6  C   UNL     1      -1.902  13.933  20.108  0.00  0.00    +0.000 A 
ATOM      7  C   UNL     1      -2.665  12.747  20.204  0.00  0.00    +0.000 A 
ATOM      8  N   UNL     1      -1.901  11.669  19.972  0.00  0.00    +0.000 NA
ATOM      9  N   UNL     1      -0.632  12.143  19.778  0.00  0.00    +0.000 N 
ENDROOT
BRANCH   1  15
ATOM     10  O   UNL     1       1.627   5.520  20.884  0.00  0.00    +0.000 OA
ATOM     11  C   UNL     1       2.079   6.144  19.928  0.00  0.00    +0.000 C 
ATOM     12  N   UNL     1       2.039   7.536  19.884  0.00  0.00    +0.000 N 
ATOM     13  C   UNL     1       2.288   8.392  18.709  0.00  0.00    +0.000 C 
ATOM     14  C   UNL     1       1.046   9.213  18.343  0.00  0.00    +0.000 C 
ATOM     15  N   UNL     1       0.603  10.002  19.503  0.00  0.00    +0.000 N 
ATOM     16  C   UNL     1       0.293   9.147  20.673  0.00  0.00    +0.000 C 
ATOM     17  C   UNL     1       1.508   8.270  21.044  0.00  0.00    +0.000 C 
BRANCH  11  18
ATOM     18  C   UNL     1       2.627   5.407  18.793  0.00  0.00    +0.000 A 
ATOM     19  C   UNL     1       1.962   4.395  18.036  0.00  0.00    +0.000 A 
ATOM     20  C   UNL     1       2.824   4.014  17.037  0.00  0.00    +0.000 A 
ATOM     21  O   UNL     1       4.007   4.663  17.164  0.00  0.00    +0.000 OA
ATOM     22  C   UNL     1       3.899   5.462  18.255  0.00  0.00    +0.000 A 
ENDBRANCH  11  18
ENDBRANCH   1  15
BRANCH   3  23
ATOM     23  C   UNL     1       2.870  14.351  19.087  0.00  0.00    +0.000 A 
ATOM     24  C   UNL     1       3.156  14.875  17.819  0.00  0.00    +0.000 A 
ATOM     25  C   UNL     1       4.365  15.528  17.584  0.00  0.00    +0.000 A 
ATOM     26  C   UNL     1       5.284  15.681  18.620  0.00  0.00    +0.000 A 
ATOM     27  C   UNL     1       4.995  15.185  19.891  0.00  0.00    +0.000 A 
ATOM     28  C   UNL     1       3.789  14.523  20.128  0.00  0.00    +0.000 A 
ENDBRANCH   3  23
BRANCH   7  29
ATOM     29  C   UNL     1      -4.102  12.632  20.475  0.00  0.00    +0.000 A 
ATOM     30  C   UNL     1      -4.994  12.276  19.455  0.00  0.00    +0.000 A 
ATOM     31  C   UNL     1      -6.372  12.226  19.691  0.00  0.00    +0.000 A 
ATOM     32  C   UNL     1      -6.874  12.519  20.958  0.00  0.00    +0.000 A 
ATOM     33  C   UNL     1      -5.999  12.844  21.991  0.00  0.00    +0.000 A 
ATOM     34  C   UNL     1      -4.620  12.898  21.755  0.00  0.00    +0.000 A 
ENDBRANCH   7  29
TORSDOF 4
ENDMDL
MODEL 7
REMARK VINA RESULT:      -7.4      0.819      1.189
REMARK  Name = 
REMARK  4 active torsions:
REMARK  status: ('A' for Active; 'I' for Inactive)
REMARK    1  A    between atoms: C_2  and  C_3
REMARK    2  A    between atoms: N_11  and  C_12
REMARK    3  A    between atoms: C_14  and  C_15
REMARK    4  A    between atoms: C_24  and  C_25
REMARK                            x       y       z     vdW  Elec       q    Type
REMARK                         _______ _______ _______ _____ _____    ______ ____
ROOT
ATOM      1  C   UNL     1       1.197  10.860  19.529  0.00  0.00    +0.000 A 
ATOM      2  C   UNL     1       1.726   9.665  19.203  0.00  0.00    +0.000 A 
ATOM      3  C   UNL     1       1.428   8.494  20.079  0.00  0.00    +0.000 A 
ATOM      4  N   UNL     1       0.638   8.528  21.116  0.00  0.00    +0.000 NA
ATOM      5  C   UNL     1       0.098   9.741  21.425  0.00  0.00    +0.000 A 
ATOM      6  C   UNL     1      -0.746  10.111  22.443  0.00  0.00    +0.000 A 
ATOM      7  C   UNL     1      -0.963  11.499  22.296  0.00  0.00    +0.000 A 
ATOM      8  N   UNL     1      -0.271  11.983  21.254  0.00  0.00    +0.000 NA
ATOM      9  N   UNL     1       0.356  10.906  20.688  0.00  0.00    +0.000 N 
ENDROOT
BRANCH   1  15
ATOM     10  O   UNL     1       3.521  16.084  17.299  0.00  0.00    +0.000 OA
ATOM     11  C   UNL     1       2.408  15.929  17.794  0.00  0.00    +0.000 C 
ATOM     12  N   UNL     1       2.099  14.800  18.549  0.00  0.00    +0.000 N 
ATOM     13  C   UNL     1       0.756  14.354  18.966  0.00  0.00    +0.000 C 
ATOM     14  C   UNL     1       0.414  12.982  18.374  0.00  0.00    +0.000 C 
ATOM     15  N   UNL     1       1.448  12.002  18.741  0.00  0.00    +0.000 N 
ATOM     16  C   UNL     1       2.794  12.410  18.274  0.00  0.00    +0.000 C 
ATOM     17  C   UNL     1       3.156  13.811  18.815  0.00  0.00    +0.000 C 
BRANCH  11  18
ATOM     18  C   UNL     1       1.373  16.929  17.545  0.00  0.00    +0.000 A 
ATOM     19  C   UNL     1       1.405  17.955  16.552  0.00  0.00    +0.000 A 
ATOM     20  C   UNL     1       0.212  18.630  16.638  0.00  0.00    +0.000 A 
ATOM     21  O   UNL     1      -0.529  18.144  17.664  0.00  0.00    +0.000 OA
ATOM     22  C   UNL     1       0.199  17.155  18.239  0.00  0.00    +0.000 A 
ENDBRANCH  11  18
ENDBRANCH   1  15
BRANCH   3  23
ATOM     23  C   UNL     1       2.083   7.214  19.687  0.00  0.00    +0.000 A 
ATOM     24  C   UNL     1       2.032   6.083  20.515  0.00  0.00    +0.000 A 
ATOM     25  C   UNL     1       2.679   4.907  20.139  0.00  0.00    +0.000 A 
ATOM     26  C   UNL     1       3.363   4.848  18.926  0.00  0.00    +0.000 A 
ATOM     27  C   UNL     1       3.395   5.961  18.086  0.00  0.00    +0.000 A 
ATOM     28  C   UNL     1       2.755   7.142  18.462  0.00  0.00    +0.000 A 
ENDBRANCH   3  23
BRANCH   7  29
ATOM     29  C   UNL     1      -1.785  12.367  23.148  0.00  0.00    +0.000 A 
ATOM     30  C   UNL     1      -3.023  11.925  23.633  0.00  0.00    +0.000 A 
ATOM     31  C   UNL     1      -3.839  12.769  24.393  0.00  0.00    +0.000 A 
ATOM     32  C   UNL     1      -3.419  14.065  24.688  0.00  0.00    +0.000 A 
ATOM     33  C   UNL     1      -2.178  14.510  24.240  0.00  0.00    +0.000 A 
ATOM     34  C   UNL     1      -1.363  13.667  23.477  0.00  0.00    +0.000 A 
ENDBRANCH   7  29
TORSDOF 4
ENDMDL
MODEL 8
REMARK VINA RESULT:      -7.4      3.547      7.660
REMARK  Name = 
REMARK  4 active torsions:
REMARK  status: ('A' for Active; 'I' for Inactive)
REMARK    1  A    between atoms: C_2  and  C_3
REMARK    2  A    between atoms: N_11  and  C_12
REMARK    3  A    between atoms: C_14  and  C_15
REMARK    4  A    between atoms: C_24  and  C_25
REMARK                            x       y       z     vdW  Elec       q    Type
REMARK                         _______ _______ _______ _____ _____    ______ ____
ROOT
ATOM      1  C   UNL     1       0.404  11.653  19.955  0.00  0.00    +0.000 A 
ATOM      2  C   UNL     1       1.370  12.386  19.370  0.00  0.00    +0.000 A 
ATOM      3  C   UNL     1       1.286  13.873  19.458  0.00  0.00    +0.000 A 
ATOM      4  N   UNL     1       0.367  14.523  20.117  0.00  0.00    +0.000 NA
ATOM      5  C   UNL     1      -0.597  13.768  20.717  0.00  0.00    +0.000 A 
ATOM      6  C   UNL     1      -1.691  14.138  21.459  0.00  0.00    +0.000 A 
ATOM      7  C   UNL     1      -2.358  12.944  21.810  0.00  0.00    +0.000 A 
ATOM      8  N   UNL     1      -1.730  11.877  21.292  0.00  0.00    +0.000 NA
ATOM      9  N   UNL     1      -0.625  12.367  20.650  0.00  0.00    +0.000 N 
ENDROOT
BRANCH   1  15
ATOM     10  O   UNL     1       1.494   5.730  21.136  0.00  0.00    +0.000 OA
ATOM     11  C   UNL     1       1.912   6.376  20.179  0.00  0.00    +0.000 C 
ATOM     12  N   UNL     1       1.873   7.768  20.170  0.00  0.00    +0.000 N 
ATOM     13  C   UNL     1       2.080   8.651  19.006  0.00  0.00    +0.000 C 
ATOM     14  C   UNL     1       0.828   9.482  18.706  0.00  0.00    +0.000 C 
ATOM     15  N   UNL     1       0.429  10.244  19.899  0.00  0.00    +0.000 N 
ATOM     16  C   UNL     1       0.160   9.362  21.060  0.00  0.00    +0.000 C 
ATOM     17  C   UNL     1       1.387   8.475  21.365  0.00  0.00    +0.000 C 
BRANCH  11  18
ATOM     18  C   UNL     1       2.417   5.665  19.008  0.00  0.00    +0.000 A 
ATOM     19  C   UNL     1       3.736   5.745  18.469  0.00  0.00    +0.000 A 
ATOM     20  C   UNL     1       3.786   4.877  17.405  0.00  0.00    +0.000 A 
ATOM     21  O   UNL     1       2.569   4.318  17.199  0.00  0.00    +0.000 OA
ATOM     22  C   UNL     1       1.736   4.836  18.135  0.00  0.00    +0.000 A 
ENDBRANCH  11  18
ENDBRANCH   1  15
BRANCH   3  23
ATOM     23  C   UNL     1       2.362  14.623  18.750  0.00  0.00    +0.000 A 
ATOM     24  C   UNL     1       3.611  14.041  18.494  0.00  0.00    +0.000 A 
ATOM     25  C   UNL     1       4.611  14.774  17.857  0.00  0.00    +0.000 A 
ATOM     26  C   UNL     1       4.361  16.084  17.454  0.00  0.00    +0.000 A 
ATOM     27  C   UNL     1       3.112  16.661  17.682  0.00  0.00    +0.000 A 
ATOM     28  C   UNL     1       2.111  15.933  18.326  0.00  0.00    +0.000 A 
ENDBRANCH   3  23
BRANCH   7  29
ATOM     29  C   UNL     1      -3.592  12.809  22.592  0.00  0.00    +0.000 A 
ATOM     30  C   UNL     1      -3.541  12.474  23.952  0.00  0.00    +0.000 A 
ATOM     31  C   UNL     1      -4.715  12.283  24.689  0.00  0.00    +0.000 A 
ATOM     32  C   UNL     1      -5.956  12.438  24.075  0.00  0.00    +0.000 A 
ATOM     33  C   UNL     1      -6.025  12.801  22.732  0.00  0.00    +0.000 A 
ATOM     34  C   UNL     1      -4.851  12.989  21.994  0.00  0.00    +0.000 A 
ENDBRANCH   7  29
TORSDOF 4
ENDMDL
MODEL 9
REMARK VINA RESULT:      -7.4      4.356      8.187
REMARK  Name = 
REMARK  4 active torsions:
REMARK  status: ('A' for Active; 'I' for Inactive)
REMARK    1  A    between atoms: C_2  and  C_3
REMARK    2  A    between atoms: N_11  and  C_12
REMARK    3  A    between atoms: C_14  and  C_15
REMARK    4  A    between atoms: C_24  and  C_25
REMARK                            x       y       z     vdW  Elec       q    Type
REMARK                         _______ _______ _______ _____ _____    ______ ____
ROOT
ATOM      1  C   UNL     1       0.668  11.079  19.321  0.00  0.00    +0.000 A 
ATOM      2  C   UNL     1       1.788  11.826  19.314  0.00  0.00    +0.000 A 
ATOM      3  C   UNL     1       1.650  13.312  19.293  0.00  0.00    +0.000 A 
ATOM      4  N   UNL     1       0.514  13.950  19.340  0.00  0.00    +0.000 NA
ATOM      5  C   UNL     1      -0.612  13.180  19.362  0.00  0.00    +0.000 A 
ATOM      6  C   UNL     1      -1.938  13.535  19.397  0.00  0.00    +0.000 A 
ATOM      7  C   UNL     1      -2.674  12.329  19.380  0.00  0.00    +0.000 A 
ATOM      8  N   UNL     1      -1.853  11.270  19.312  0.00  0.00    +0.000 NA
ATOM      9  N   UNL     1      -0.582  11.778  19.339  0.00  0.00    +0.000 N 
ENDROOT
BRANCH   1  15
ATOM     10  O   UNL     1       1.837   5.254  20.863  0.00  0.00    +0.000 OA
ATOM     11  C   UNL     1       2.304   5.868  19.907  0.00  0.00    +0.000 C 
ATOM     12  N   UNL     1       2.227   7.256  19.827  0.00  0.00    +0.000 N 
ATOM     13  C   UNL     1       2.492   8.090  18.639  0.00  0.00    +0.000 C 
ATOM     14  C   UNL     1       1.241   8.867  18.212  0.00  0.00    +0.000 C 
ATOM     15  N   UNL     1       0.737   9.670  19.336  0.00  0.00    +0.000 N 
ATOM     16  C   UNL     1       0.411   8.835  20.517  0.00  0.00    +0.000 C 
ATOM     17  C   UNL     1       1.637   8.002  20.950  0.00  0.00    +0.000 C 
BRANCH  11  18
ATOM     18  C   UNL     1       2.911   5.119  18.810  0.00  0.00    +0.000 A 
ATOM     19  C   UNL     1       2.220   4.383  17.800  0.00  0.00    +0.000 A 
ATOM     20  C   UNL     1       3.175   3.884  16.947  0.00  0.00    +0.000 A 
ATOM     21  O   UNL     1       4.415   4.196  17.398  0.00  0.00    +0.000 OA
ATOM     22  C   UNL     1       4.250   4.895  18.548  0.00  0.00    +0.000 A 
ENDBRANCH  11  18
ENDBRANCH   1  15
BRANCH   3  23
ATOM     23  C   UNL     1       2.929  14.077  19.238  0.00  0.00    +0.000 A 
ATOM     24  C   UNL     1       3.460  14.694  20.380  0.00  0.00    +0.000 A 
ATOM     25  C   UNL     1       4.641  15.429  20.295  0.00  0.00    +0.000 A 
ATOM     26  C   UNL     1       5.308  15.534  19.076  0.00  0.00    +0.000 A 
ATOM     27  C   UNL     1       4.798  14.901  17.943  0.00  0.00    +0.000 A 
ATOM     28  C   UNL     1       3.612  14.171  18.022  0.00  0.00    +0.000 A 
ENDBRANCH   3  23
BRANCH   7  29
ATOM     29  C   UNL     1      -4.133  12.177  19.392  0.00  0.00    +0.000 A 
ATOM     30  C   UNL     1      -4.788  11.509  18.349  0.00  0.00    +0.000 A 
ATOM     31  C   UNL     1      -6.184  11.414  18.322  0.00  0.00    +0.000 A 
ATOM     32  C   UNL     1      -6.941  11.977  19.348  0.00  0.00    +0.000 A 
ATOM     33  C   UNL     1      -6.304  12.617  20.408  0.00  0.00    +0.000 A 
ATOM     34  C   UNL     1      -4.908  12.715  20.434  0.00  0.00    +0.000 A 
ENDBRANCH   7  29
TORSDOF 4
ENDMDL
