MODEL 1
REMARK VINA RESULT:      -8.0      0.000      0.000
REMARK  Name = 
REMARK  4 active torsions:
REMARK  status: ('A' for Active; 'I' for Inactive)
REMARK    1  A    between atoms: C_1  and  N_2
REMARK    2  A    between atoms: C_5  and  C_6
REMARK    3  A    between atoms: C_6  and  C_7
REMARK    4  A    between atoms: N_12  and  C_13
REMARK                            x       y       z     vdW  Elec       q    Type
REMARK                         _______ _______ _______ _____ _____    ______ ____
ROOT
ATOM      1  C   UNL     1      -2.142  12.355  20.061  0.00  0.00    +0.000 C 
ATOM      2  C   UNL     1      -2.487  13.628  20.905  0.00  0.00    +0.000 A 
ATOM      3  C   UNL     1      -1.602  14.728  21.001  0.00  0.00    +0.000 A 
ATOM      4  C   UNL     1      -1.869  15.839  21.805  0.00  0.00    +0.000 A 
ATOM      5  C   UNL     1      -3.081  15.924  22.464  0.00  0.00    +0.000 A 
ATOM      6 CL   UNL     1      -3.472  17.334  23.366  0.00  0.00    +0.000 Cl
ATOM      7  C   UNL     1      -3.988  14.875  22.381  0.00  0.00    +0.000 A 
ATOM      8  C   UNL     1      -3.676  13.711  21.650  0.00  0.00    +0.000 A 
ATOM      9  C   UNL     1      -4.678  12.600  21.605  0.00  0.00    +0.000 C 
ATOM     10  C   UNL     1      -5.393  12.646  20.273  0.00  0.00    +0.000 C 
ATOM     11  C   UNL     1      -4.622  12.211  19.051  0.00  0.00    +0.000 A 
ATOM     12  C   UNL     1      -5.416  11.920  17.896  0.00  0.00    +0.000 A 
ATOM     13 CL   UNL     1      -7.132  12.217  17.845  0.00  0.00    +0.000 Cl
ATOM     14  C   UNL     1      -4.873  11.383  16.742  0.00  0.00    +0.000 A 
ATOM     15  C   UNL     1      -3.537  11.123  16.766  0.00  0.00    +0.000 A 
ATOM     16  N   UNL     1      -2.750  11.426  17.812  0.00  0.00    +0.000 NA
ATOM     17  C   UNL     1      -3.226  12.039  18.937  0.00  0.00    +0.000 A 
ENDROOT
BRANCH   1  23
ATOM     18  C   UNL     1       1.246   8.763  20.819  0.00  0.00    +0.000 C 
ATOM     19  O   UNL     1       1.497   8.538  22.005  0.00  0.00    +0.000 OA
ATOM     20  N   UNL     1       0.767   9.992  20.376  0.00  0.00    +0.000 N 
ATOM     21  C   UNL     1       0.587  11.033  21.378  0.00  0.00    +0.000 C 
ATOM     22  C   UNL     1       0.269  12.419  20.792  0.00  0.00    +0.000 C 
ATOM     23  N   UNL     1      -0.680  12.462  19.639  0.00  0.00    +0.000 NA
ATOM     24  C   UNL     1      -0.145  11.517  18.652  0.00  0.00    +0.000 C 
ATOM     25  C   UNL     1      -0.077  10.086  19.178  0.00  0.00    +0.000 C 
BRANCH  18  26
ATOM     26  C   UNL     1       1.495   7.766  19.707  0.00  0.00    +0.000 C 
BRANCH  26  31
ATOM     27  C   UNL     1       4.120   2.706  20.093  0.00  0.00    +0.000 C 
ATOM     28  N   UNL     1       3.293   3.845  19.702  0.00  0.00    +0.000 NA
ATOM     29  C   UNL     1       2.378   4.197  20.792  0.00  0.00    +0.000 C 
ATOM     30  C   UNL     1       1.525   5.409  20.441  0.00  0.00    +0.000 C 
ATOM     31  C   UNL     1       2.408   6.600  20.050  0.00  0.00    +0.000 C 
ATOM     32  C   UNL     1       3.317   6.182  18.895  0.00  0.00    +0.000 C 
ATOM     33  C   UNL     1       4.150   4.975  19.318  0.00  0.00    +0.000 C 
ENDBRANCH  26  31
ENDBRANCH  18  26
ENDBRANCH   1  23
TORSDOF 3
ENDMDL
MODEL 2
REMARK VINA RESULT:      -7.8      1.149      1.481
REMARK  Name = 
REMARK  4 active torsions:
REMARK  status: ('A' for Active; 'I' for Inactive)
REMARK    1  A    between atoms: C_1  and  N_2
REMARK    2  A    between atoms: C_5  and  C_6
REMARK    3  A    between atoms: C_6  and  C_7
REMARK    4  A    between atoms: N_12  and  C_13
REMARK                            x       y       z     vdW  Elec       q    Type
REMARK                         _______ _______ _______ _____ _____    ______ ____
ROOT
ATOM      1  C   UNL     1      -2.317  12.523  20.132  0.00  0.00    +0.000 C 
ATOM      2  C   UNL     1      -2.284  13.965  20.738  0.00  0.00    +0.000 A 
ATOM      3  C   UNL     1      -1.276  14.900  20.399  0.00  0.00    +0.000 A 
ATOM      4  C   UNL     1      -1.198  16.165  20.985  0.00  0.00    +0.000 A 
ATOM      5  C   UNL     1      -2.188  16.571  21.861  0.00  0.00    +0.000 A 
ATOM      6 CL   UNL     1      -2.168  18.165  22.503  0.00  0.00    +0.000 Cl
ATOM      7  C   UNL     1      -3.207  15.692  22.206  0.00  0.00    +0.000 A 
ATOM      8  C   UNL     1      -3.230  14.380  21.691  0.00  0.00    +0.000 A 
ATOM      9  C   UNL     1      -4.339  13.464  22.107  0.00  0.00    +0.000 C 
ATOM     10  C   UNL     1      -5.352  13.391  20.987  0.00  0.00    +0.000 C 
ATOM     11  C   UNL     1      -4.969  12.620  19.747  0.00  0.00    +0.000 A 
ATOM     12  C   UNL     1      -6.055  12.265  18.885  0.00  0.00    +0.000 A 
ATOM     13 CL   UNL     1      -7.681  12.833  19.151  0.00  0.00    +0.000 Cl
ATOM     14  C   UNL     1      -5.887  11.445  17.783  0.00  0.00    +0.000 A 
ATOM     15  C   UNL     1      -4.628  10.972  17.567  0.00  0.00    +0.000 A 
ATOM     16  N   UNL     1      -3.574  11.321  18.325  0.00  0.00    +0.000 NA
ATOM     17  C   UNL     1      -3.677  12.197  19.368  0.00  0.00    +0.000 A 
ENDROOT
BRANCH   1  23
ATOM     18  C   UNL     1       1.116   9.147  21.465  0.00  0.00    +0.000 C 
ATOM     19  O   UNL     1       1.651   9.363  22.554  0.00  0.00    +0.000 OA
ATOM     20  N   UNL     1       0.555  10.159  20.692  0.00  0.00    +0.000 N 
ATOM     21  C   UNL     1       0.640  11.515  21.216  0.00  0.00    +0.000 C 
ATOM     22  C   UNL     1       0.200  12.600  20.218  0.00  0.00    +0.000 C 
ATOM     23  N   UNL     1      -1.004  12.304  19.386  0.00  0.00    +0.000 NA
ATOM     24  C   UNL     1      -0.741  11.003  18.760  0.00  0.00    +0.000 C 
ATOM     25  C   UNL     1      -0.559   9.880  19.777  0.00  0.00    +0.000 C 
BRANCH  18  26
ATOM     26  C   UNL     1       1.071   7.782  20.811  0.00  0.00    +0.000 C 
BRANCH  26  31
ATOM     27  C   UNL     1       4.713   5.509  17.041  0.00  0.00    +0.000 C 
ATOM     28  N   UNL     1       3.533   5.928  17.793  0.00  0.00    +0.000 NA
ATOM     29  C   UNL     1       3.613   5.429  19.169  0.00  0.00    +0.000 C 
ATOM     30  C   UNL     1       2.419   5.879  20.001  0.00  0.00    +0.000 C 
ATOM     31  C   UNL     1       2.281   7.406  19.970  0.00  0.00    +0.000 C 
ATOM     32  C   UNL     1       2.173   7.862  18.516  0.00  0.00    +0.000 C 
ATOM     33  C   UNL     1       3.404   7.390  17.745  0.00  0.00    +0.000 C 
ENDBRANCH  26  31
ENDBRANCH  18  26
ENDBRANCH   1  23
TORSDOF 3
ENDMDL
MODEL 3
REMARK VINA RESULT:      -7.6      1.161      1.315
REMARK  Name = 
REMARK  4 active torsions:
REMARK  status: ('A' for Active; 'I' for Inactive)
REMARK    1  A    between atoms: C_1  and  N_2
REMARK    2  A    between atoms: C_5  and  C_6
REMARK    3  A    between atoms: C_6  and  C_7
REMARK    4  A    between atoms: N_12  and  C_13
REMARK                            x       y       z     vdW  Elec       q    Type
REMARK                         _______ _______ _______ _____ _____    ______ ____
ROOT
ATOM      1  C   UNL     1      -1.969  12.446  20.142  0.00  0.00    +0.000 C 
ATOM      2  C   UNL     1      -2.380  13.674  21.021  0.00  0.00    +0.000 A 
ATOM      3  C   UNL     1      -1.558  14.821  21.140  0.00  0.00    +0.000 A 
ATOM      4  C   UNL     1      -1.881  15.892  21.976  0.00  0.00    +0.000 A 
ATOM      5  C   UNL     1      -3.092  15.891  22.645  0.00  0.00    +0.000 A 
ATOM      6 CL   UNL     1      -3.555  17.252  23.586  0.00  0.00    +0.000 Cl
ATOM      7  C   UNL     1      -3.938  14.794  22.539  0.00  0.00    +0.000 A 
ATOM      8  C   UNL     1      -3.565  13.669  21.775  0.00  0.00    +0.000 A 
ATOM      9  C   UNL     1      -4.503  12.504  21.708  0.00  0.00    +0.000 C 
ATOM     10  C   UNL     1      -5.230  12.544  20.382  0.00  0.00    +0.000 C 
ATOM     11  C   UNL     1      -4.445  12.186  19.144  0.00  0.00    +0.000 A 
ATOM     12  C   UNL     1      -5.230  11.880  17.987  0.00  0.00    +0.000 A 
ATOM     13 CL   UNL     1      -6.961  12.080  17.955  0.00  0.00    +0.000 Cl
ATOM     14  C   UNL     1      -4.667  11.405  16.815  0.00  0.00    +0.000 A 
ATOM     15  C   UNL     1      -3.318  11.222  16.824  0.00  0.00    +0.000 A 
ATOM     16  N   UNL     1      -2.541  11.542  17.873  0.00  0.00    +0.000 NA
ATOM     17  C   UNL     1      -3.042  12.097  19.016  0.00  0.00    +0.000 A 
ENDROOT
BRANCH   1  23
ATOM     18  C   UNL     1       1.398   8.765  19.888  0.00  0.00    +0.000 C 
ATOM     19  O   UNL     1       1.682   8.254  20.973  0.00  0.00    +0.000 OA
ATOM     20  N   UNL     1       0.921  10.067  19.775  0.00  0.00    +0.000 N 
ATOM     21  C   UNL     1       0.782  10.830  21.007  0.00  0.00    +0.000 C 
ATOM     22  C   UNL     1       0.463  12.319  20.789  0.00  0.00    +0.000 C 
ATOM     23  N   UNL     1      -0.519  12.648  19.713  0.00  0.00    +0.000 NA
ATOM     24  C   UNL     1      -0.025  11.971  18.508  0.00  0.00    +0.000 C 
ATOM     25  C   UNL     1       0.043  10.455  18.664  0.00  0.00    +0.000 C 
BRANCH  18  26
ATOM     26  C   UNL     1       1.603   8.071  18.558  0.00  0.00    +0.000 C 
BRANCH  26  31
ATOM     27  C   UNL     1       5.491   4.169  17.038  0.00  0.00    +0.000 C 
ATOM     28  N   UNL     1       4.393   5.132  17.078  0.00  0.00    +0.000 NA
ATOM     29  C   UNL     1       3.402   4.720  18.076  0.00  0.00    +0.000 C 
ATOM     30  C   UNL     1       2.258   5.720  18.181  0.00  0.00    +0.000 C 
ATOM     31  C   UNL     1       2.792   7.127  18.475  0.00  0.00    +0.000 C 
ATOM     32  C   UNL     1       3.796   7.511  17.388  0.00  0.00    +0.000 C 
ATOM     33  C   UNL     1       4.918   6.477  17.348  0.00  0.00    +0.000 C 
ENDBRANCH  26  31
ENDBRANCH  18  26
ENDBRANCH   1  23
TORSDOF 3
ENDMDL
MODEL 4
REMARK VINA RESULT:      -7.5      0.999      1.044
REMARK  Name = 
REMARK  4 active torsions:
REMARK  status: ('A' for Active; 'I' for Inactive)
REMARK    1  A    between atoms: C_1  and  N_2
REMARK    2  A    between atoms: C_5  and  C_6
REMARK    3  A    between atoms: C_6  and  C_7
REMARK    4  A    between atoms: N_12  and  C_13
REMARK                            x       y       z     vdW  Elec       q    Type
REMARK                         _______ _______ _______ _____ _____    ______ ____
ROOT
ATOM      1  C   UNL     1      -1.613  12.092  19.916  0.00  0.00    +0.000 C 
ATOM      2  C   UNL     1      -2.053  13.342  20.748  0.00  0.00    +0.000 A 
ATOM      3  C   UNL     1      -1.186  14.439  20.972  0.00  0.00    +0.000 A 
ATOM      4  C   UNL     1      -1.544  15.528  21.769  0.00  0.00    +0.000 A 
ATOM      5  C   UNL     1      -2.824  15.599  22.289  0.00  0.00    +0.000 A 
ATOM      6 CL   UNL     1      -3.316  16.985  23.177  0.00  0.00    +0.000 Cl
ATOM      7  C   UNL     1      -3.714  14.553  22.076  0.00  0.00    +0.000 A 
ATOM      8  C   UNL     1      -3.319  13.408  21.355  0.00  0.00    +0.000 A 
ATOM      9  C   UNL     1      -4.308  12.300  21.168  0.00  0.00    +0.000 C 
ATOM     10  C   UNL     1      -4.867  12.382  19.765  0.00  0.00    +0.000 C 
ATOM     11  C   UNL     1      -3.962  11.977  18.628  0.00  0.00    +0.000 A 
ATOM     12  C   UNL     1      -4.620  11.718  17.383  0.00  0.00    +0.000 A 
ATOM     13 CL   UNL     1      -6.319  12.018  17.145  0.00  0.00    +0.000 Cl
ATOM     14  C   UNL     1      -3.949  11.209  16.284  0.00  0.00    +0.000 A 
ATOM     15  C   UNL     1      -2.623  10.947  16.453  0.00  0.00    +0.000 A 
ATOM     16  N   UNL     1      -1.960  11.222  17.589  0.00  0.00    +0.000 NA
ATOM     17  C   UNL     1      -2.562  11.806  18.668  0.00  0.00    +0.000 A 
ENDROOT
BRANCH   1  23
ATOM     18  C   UNL     1       1.575   8.263  20.276  0.00  0.00    +0.000 C 
ATOM     19  O   UNL     1       1.696   7.802  21.413  0.00  0.00    +0.000 OA
ATOM     20  N   UNL     1       1.180   9.576  20.038  0.00  0.00    +0.000 N 
ATOM     21  C   UNL     1       0.927  10.412  21.204  0.00  0.00    +0.000 C 
ATOM     22  C   UNL     1       0.710  11.898  20.873  0.00  0.00    +0.000 C 
ATOM     23  N   UNL     1      -0.112  12.208  19.665  0.00  0.00    +0.000 NA
ATOM     24  C   UNL     1       0.494  11.445  18.568  0.00  0.00    +0.000 C 
ATOM     25  C   UNL     1       0.467   9.938  18.807  0.00  0.00    +0.000 C 
BRANCH  18  26
ATOM     26  C   UNL     1       1.909   7.488  19.019  0.00  0.00    +0.000 C 
BRANCH  26  31
ATOM     27  C   UNL     1       3.597   2.055  18.479  0.00  0.00    +0.000 C 
ATOM     28  N   UNL     1       3.390   3.494  18.333  0.00  0.00    +0.000 NA
ATOM     29  C   UNL     1       1.973   3.772  18.077  0.00  0.00    +0.000 C 
ATOM     30  C   UNL     1       1.705   5.267  17.960  0.00  0.00    +0.000 C 
ATOM     31  C   UNL     1       2.201   6.007  19.208  0.00  0.00    +0.000 C 
ATOM     32  C   UNL     1       3.685   5.702  19.406  0.00  0.00    +0.000 C 
ATOM     33  C   UNL     1       3.879   4.193  19.528  0.00  0.00    +0.000 C 
ENDBRANCH  26  31
ENDBRANCH  18  26
ENDBRANCH   1  23
TORSDOF 3
ENDMDL
MODEL 5
REMARK VINA RESULT:      -7.3      4.627      8.440
REMARK  Name = 
REMARK  4 active torsions:
REMARK  status: ('A' for Active; 'I' for Inactive)
REMARK    1  A    between atoms: C_1  and  N_2
REMARK    2  A    between atoms: C_5  and  C_6
REMARK    3  A    between atoms: C_6  and  C_7
REMARK    4  A    between atoms: N_12  and  C_13
REMARK                            x       y       z     vdW  Elec       q    Type
REMARK                         _______ _______ _______ _____ _____    ______ ____
ROOT
ATOM      1  C   UNL     1       0.260  13.299  21.117  0.00  0.00    +0.000 C 
ATOM      2  C   UNL     1       1.547  13.747  20.348  0.00  0.00    +0.000 A 
ATOM      3  C   UNL     1       2.380  14.791  20.819  0.00  0.00    +0.000 A 
ATOM      4  C   UNL     1       3.492  15.244  20.106  0.00  0.00    +0.000 A 
ATOM      5  C   UNL     1       3.862  14.597  18.941  0.00  0.00    +0.000 A 
ATOM      6 CL   UNL     1       5.291  15.070  18.112  0.00  0.00    +0.000 Cl
ATOM      7  C   UNL     1       3.084  13.555  18.453  0.00  0.00    +0.000 A 
ATOM      8  C   UNL     1       1.905  13.163  19.121  0.00  0.00    +0.000 A 
ATOM      9  C   UNL     1       1.091  12.046  18.545  0.00  0.00    +0.000 C 
ATOM     10  C   UNL     1       1.368  10.788  19.337  0.00  0.00    +0.000 C 
ATOM     11  C   UNL     1       0.793  10.699  20.730  0.00  0.00    +0.000 A 
ATOM     12  C   UNL     1       0.758   9.385  21.297  0.00  0.00    +0.000 A 
ATOM     13 CL   UNL     1       1.487   8.011  20.512  0.00  0.00    +0.000 Cl
ATOM     14  C   UNL     1       0.141   9.118  22.507  0.00  0.00    +0.000 A 
ATOM     15  C   UNL     1      -0.454  10.173  23.129  0.00  0.00    +0.000 A 
ATOM     16  N   UNL     1      -0.401  11.430  22.653  0.00  0.00    +0.000 NA
ATOM     17  C   UNL     1       0.273  11.754  21.510  0.00  0.00    +0.000 A 
ENDROOT
BRANCH   1  23
ATOM     18  C   UNL     1      -4.111  15.616  21.810  0.00  0.00    +0.000 C 
ATOM     19  O   UNL     1      -4.441  16.372  20.894  0.00  0.00    +0.000 OA
ATOM     20  N   UNL     1      -2.784  15.292  22.072  0.00  0.00    +0.000 N 
ATOM     21  C   UNL     1      -1.772  15.904  21.222  0.00  0.00    +0.000 C 
ATOM     22  C   UNL     1      -0.329  15.678  21.702  0.00  0.00    +0.000 C 
ATOM     23  N   UNL     1       0.004  14.319  22.223  0.00  0.00    +0.000 NA
ATOM     24  C   UNL     1      -1.007  14.030  23.247  0.00  0.00    +0.000 C 
ATOM     25  C   UNL     1      -2.428  14.008  22.689  0.00  0.00    +0.000 C 
BRANCH  18  26
ATOM     26  C   UNL     1      -5.093  15.015  22.794  0.00  0.00    +0.000 C 
BRANCH  26  31
ATOM     27  C   UNL     1      -7.917  10.359  21.062  0.00  0.00    +0.000 C 
ATOM     28  N   UNL     1      -6.996  11.305  21.689  0.00  0.00    +0.000 NA
ATOM     29  C   UNL     1      -6.275  12.059  20.658  0.00  0.00    +0.000 C 
ATOM     30  C   UNL     1      -5.333  13.088  21.270  0.00  0.00    +0.000 C 
ATOM     31  C   UNL     1      -6.092  14.024  22.217  0.00  0.00    +0.000 C 
ATOM     32  C   UNL     1      -6.797  13.185  23.282  0.00  0.00    +0.000 C 
ATOM     33  C   UNL     1      -7.732  12.188  22.602  0.00  0.00    +0.000 C 
ENDBRANCH  26  31
ENDBRANCH  18  26
ENDBRANCH   1  23
TORSDOF 3
ENDMDL
MODEL 6
REMARK VINA RESULT:      -7.2      1.254      1.476
REMARK  Name = 
REMARK  4 active torsions:
REMARK  status: ('A' for Active; 'I' for Inactive)
REMARK    1  A    between atoms: C_1  and  N_2
REMARK    2  A    between atoms: C_5  and  C_6
REMARK    3  A    between atoms: C_6  and  C_7
REMARK    4  A    between atoms: N_12  and  C_13
REMARK                            x       y       z     vdW  Elec       q    Type
REMARK                         _______ _______ _______ _____ _____    ______ ____
ROOT
ATOM      1  C   UNL     1      -2.382  12.592  21.098  0.00  0.00    +0.000 C 
ATOM      2  C   UNL     1      -2.366  13.756  22.144  0.00  0.00    +0.000 A 
ATOM      3  C   UNL     1      -1.401  14.791  22.102  0.00  0.00    +0.000 A 
ATOM      4  C   UNL     1      -1.335  15.796  23.070  0.00  0.00    +0.000 A 
ATOM      5  C   UNL     1      -2.301  15.851  24.059  0.00  0.00    +0.000 A 
ATOM      6 CL   UNL     1      -2.301  17.145  25.190  0.00  0.00    +0.000 Cl
ATOM      7  C   UNL     1      -3.279  14.866  24.124  0.00  0.00    +0.000 A 
ATOM      8  C   UNL     1      -3.285  13.796  23.207  0.00  0.00    +0.000 A 
ATOM      9  C   UNL     1      -4.348  12.750  23.330  0.00  0.00    +0.000 C 
ATOM     10  C   UNL     1      -5.404  13.007  22.278  0.00  0.00    +0.000 C 
ATOM     11  C   UNL     1      -5.049  12.702  20.843  0.00  0.00    +0.000 A 
ATOM     12  C   UNL     1      -6.159  12.605  19.944  0.00  0.00    +0.000 A 
ATOM     13 CL   UNL     1      -7.788  12.988  20.429  0.00  0.00    +0.000 Cl
ATOM     14  C   UNL     1      -6.011  12.200  18.629  0.00  0.00    +0.000 A 
ATOM     15  C   UNL     1      -4.749  11.876  18.233  0.00  0.00    +0.000 A 
ATOM     16  N   UNL     1      -3.676  12.000  19.032  0.00  0.00    +0.000 NA
ATOM     17  C   UNL     1      -3.762  12.480  20.308  0.00  0.00    +0.000 A 
ENDROOT
BRANCH   1  23
ATOM     18  C   UNL     1       1.123   9.033  21.013  0.00  0.00    +0.000 C 
ATOM     19  O   UNL     1       1.695   8.852  22.090  0.00  0.00    +0.000 OA
ATOM     20  N   UNL     1       0.527  10.245  20.677  0.00  0.00    +0.000 N 
ATOM     21  C   UNL     1       0.620  11.322  21.653  0.00  0.00    +0.000 C 
ATOM     22  C   UNL     1       0.136  12.685  21.129  0.00  0.00    +0.000 C 
ATOM     23  N   UNL     1      -1.095  12.685  20.283  0.00  0.00    +0.000 NA
ATOM     24  C   UNL     1      -0.844  11.704  19.221  0.00  0.00    +0.000 C 
ATOM     25  C   UNL     1      -0.617  10.293  19.757  0.00  0.00    +0.000 C 
BRANCH  18  26
ATOM     26  C   UNL     1       1.065   7.996  19.912  0.00  0.00    +0.000 C 
BRANCH  26  31
ATOM     27  C   UNL     1       4.757   3.791  18.757  0.00  0.00    +0.000 C 
ATOM     28  N   UNL     1       3.602   4.684  18.816  0.00  0.00    +0.000 NA
ATOM     29  C   UNL     1       3.095   4.756  20.190  0.00  0.00    +0.000 C 
ATOM     30  C   UNL     1       1.914   5.711  20.304  0.00  0.00    +0.000 C 
ATOM     31  C   UNL     1       2.287   7.101  19.775  0.00  0.00    +0.000 C 
ATOM     32  C   UNL     1       2.780   6.966  18.335  0.00  0.00    +0.000 C 
ATOM     33  C   UNL     1       3.968   6.008  18.295  0.00  0.00    +0.000 C 
ENDBRANCH  26  31
ENDBRANCH  18  26
ENDBRANCH   1  23
TORSDOF 3
ENDMDL
MODEL 7
REMARK VINA RESULT:      -7.2      0.969      1.148
REMARK  Name = 
REMARK  4 active torsions:
REMARK  status: ('A' for Active; 'I' for Inactive)
REMARK    1  A    between atoms: C_1  and  N_2
REMARK    2  A    between atoms: C_5  and  C_6
REMARK    3  A    between atoms: C_6  and  C_7
REMARK    4  A    between atoms: N_12  and  C_13
REMARK                            x       y       z     vdW  Elec       q    Type
REMARK                         _______ _______ _______ _____ _____    ______ ____
ROOT
ATOM      1  C   UNL     1      -1.931  12.581  20.047  0.00  0.00    +0.000 C 
ATOM      2  C   UNL     1      -1.781  14.056  20.548  0.00  0.00    +0.000 A 
ATOM      3  C   UNL     1      -0.748  14.906  20.085  0.00  0.00    +0.000 A 
ATOM      4  C   UNL     1      -0.564  16.201  20.577  0.00  0.00    +0.000 A 
ATOM      5  C   UNL     1      -1.473  16.720  21.481  0.00  0.00    +0.000 A 
ATOM      6 CL   UNL     1      -1.326  18.349  22.008  0.00  0.00    +0.000 Cl
ATOM      7  C   UNL     1      -2.514  15.926  21.946  0.00  0.00    +0.000 A 
ATOM      8  C   UNL     1      -2.641  14.587  21.525  0.00  0.00    +0.000 A 
ATOM      9  C   UNL     1      -3.769  13.766  22.070  0.00  0.00    +0.000 C 
ATOM     10  C   UNL     1      -4.854  13.679  21.020  0.00  0.00    +0.000 C 
ATOM     11  C   UNL     1      -4.593  12.807  19.816  0.00  0.00    +0.000 A 
ATOM     12  C   UNL     1      -5.749  12.460  19.047  0.00  0.00    +0.000 A 
ATOM     13 CL   UNL     1      -7.322  13.138  19.370  0.00  0.00    +0.000 Cl
ATOM     14  C   UNL     1      -5.696  11.562  17.996  0.00  0.00    +0.000 A 
ATOM     15  C   UNL     1      -4.481  11.003  17.738  0.00  0.00    +0.000 A 
ATOM     16  N   UNL     1      -3.363  11.339  18.406  0.00  0.00    +0.000 NA
ATOM     17  C   UNL     1      -3.352  12.286  19.390  0.00  0.00    +0.000 A 
ENDROOT
BRANCH   1  23
ATOM     18  C   UNL     1       1.124   8.778  21.124  0.00  0.00    +0.000 C 
ATOM     19  O   UNL     1       1.722   8.890  22.197  0.00  0.00    +0.000 OA
ATOM     20  N   UNL     1       0.659   9.877  20.409  0.00  0.00    +0.000 N 
ATOM     21  C   UNL     1       0.924  11.194  20.973  0.00  0.00    +0.000 C 
ATOM     22  C   UNL     1       0.580  12.359  20.030  0.00  0.00    +0.000 C 
ATOM     23  N   UNL     1      -0.682  12.238  19.240  0.00  0.00    +0.000 NA
ATOM     24  C   UNL     1      -0.599  10.940  18.561  0.00  0.00    +0.000 C 
ATOM     25  C   UNL     1      -0.513   9.766  19.533  0.00  0.00    +0.000 C 
BRANCH  18  26
ATOM     26  C   UNL     1       0.893   7.454  20.429  0.00  0.00    +0.000 C 
BRANCH  26  31
ATOM     27  C   UNL     1       4.506   3.105  19.602  0.00  0.00    +0.000 C 
ATOM     28  N   UNL     1       3.435   4.093  19.503  0.00  0.00    +0.000 NA
ATOM     29  C   UNL     1       2.573   4.017  20.687  0.00  0.00    +0.000 C 
ATOM     30  C   UNL     1       1.465   5.062  20.644  0.00  0.00    +0.000 C 
ATOM     31  C   UNL     1       2.050   6.468  20.471  0.00  0.00    +0.000 C 
ATOM     32  C   UNL     1       2.913   6.492  19.210  0.00  0.00    +0.000 C 
ATOM     33  C   UNL     1       4.007   5.434  19.325  0.00  0.00    +0.000 C 
ENDBRANCH  26  31
ENDBRANCH  18  26
ENDBRANCH   1  23
TORSDOF 3
ENDMDL
MODEL 8
REMARK VINA RESULT:      -7.1      5.422      7.382
REMARK  Name = 
REMARK  4 active torsions:
REMARK  status: ('A' for Active; 'I' for Inactive)
REMARK    1  A    between atoms: C_1  and  N_2
REMARK    2  A    between atoms: C_5  and  C_6
REMARK    3  A    between atoms: C_6  and  C_7
REMARK    4  A    between atoms: N_12  and  C_13
REMARK                            x       y       z     vdW  Elec       q    Type
REMARK                         _______ _______ _______ _____ _____    ______ ____
ROOT
ATOM      1  C   UNL     1       1.134  11.526  19.990  0.00  0.00    +0.000 C 
ATOM      2  C   UNL     1      -0.071  11.618  20.983  0.00  0.00    +0.000 A 
ATOM      3  C   UNL     1      -1.211  12.414  20.712  0.00  0.00    +0.000 A 
ATOM      4  C   UNL     1      -2.261  12.558  21.622  0.00  0.00    +0.000 A 
ATOM      5  C   UNL     1      -2.246  11.827  22.796  0.00  0.00    +0.000 A 
ATOM      6 CL   UNL     1      -3.583  11.906  23.873  0.00  0.00    +0.000 Cl
ATOM      7  C   UNL     1      -1.157  11.018  23.093  0.00  0.00    +0.000 A 
ATOM      8  C   UNL     1      -0.052  10.951  22.220  0.00  0.00    +0.000 A 
ATOM      9  C   UNL     1       1.107  10.079  22.593  0.00  0.00    +0.000 C 
ATOM     10  C   UNL     1       1.027   8.799  21.792  0.00  0.00    +0.000 C 
ATOM     11  C   UNL     1       1.355   8.874  20.321  0.00  0.00    +0.000 A 
ATOM     12  C   UNL     1       1.625   7.620  19.687  0.00  0.00    +0.000 A 
ATOM     13 CL   UNL     1       1.416   6.097  20.508  0.00  0.00    +0.000 Cl
ATOM     14  C   UNL     1       2.070   7.532  18.380  0.00  0.00    +0.000 A 
ATOM     15  C   UNL     1       2.260   8.711  17.725  0.00  0.00    +0.000 A 
ATOM     16  N   UNL     1       1.972   9.906  18.269  0.00  0.00    +0.000 NA
ATOM     17  C   UNL     1       1.447  10.035  19.523  0.00  0.00    +0.000 A 
ENDROOT
BRANCH   1  23
ATOM     18  C   UNL     1       4.420  15.153  18.985  0.00  0.00    +0.000 C 
ATOM     19  O   UNL     1       4.583  15.964  19.899  0.00  0.00    +0.000 OA
ATOM     20  N   UNL     1       3.249  14.416  18.838  0.00  0.00    +0.000 N 
ATOM     21  C   UNL     1       2.191  14.654  19.809  0.00  0.00    +0.000 C 
ATOM     22  C   UNL     1       0.856  13.975  19.461  0.00  0.00    +0.000 C 
ATOM     23  N   UNL     1       0.927  12.587  18.913  0.00  0.00    +0.000 NA
ATOM     24  C   UNL     1       1.862  12.657  17.783  0.00  0.00    +0.000 C 
ATOM     25  C   UNL     1       3.264  13.094  18.200  0.00  0.00    +0.000 C 
BRANCH  18  26
ATOM     26  C   UNL     1       5.433  14.918  17.884  0.00  0.00    +0.000 C 
BRANCH  26  31
ATOM     27  C   UNL     1      11.041  13.885  18.241  0.00  0.00    +0.000 C 
ATOM     28  N   UNL     1       9.696  14.264  17.814  0.00  0.00    +0.000 NA
ATOM     29  C   UNL     1       8.808  13.099  17.870  0.00  0.00    +0.000 C 
ATOM     30  C   UNL     1       7.382  13.459  17.473  0.00  0.00    +0.000 C 
ATOM     31  C   UNL     1       6.851  14.607  18.339  0.00  0.00    +0.000 C 
ATOM     32  C   UNL     1       7.800  15.798  18.218  0.00  0.00    +0.000 C 
ATOM     33  C   UNL     1       9.203  15.371  18.643  0.00  0.00    +0.000 C 
ENDBRANCH  26  31
ENDBRANCH  18  26
ENDBRANCH   1  23
TORSDOF 3
ENDMDL
MODEL 9
REMARK VINA RESULT:      -6.8      4.882      7.155
REMARK  Name = 
REMARK  4 active torsions:
REMARK  status: ('A' for Active; 'I' for Inactive)
REMARK    1  A    between atoms: C_1  and  N_2
REMARK    2  A    between atoms: C_5  and  C_6
REMARK    3  A    between atoms: C_6  and  C_7
REMARK    4  A    between atoms: N_12  and  C_13
REMARK                            x       y       z     vdW  Elec       q    Type
REMARK                         _______ _______ _______ _____ _____    ______ ____
ROOT
ATOM      1  C   UNL     1      -0.672  13.160  20.476  0.00  0.00    +0.000 C 
ATOM      2  C   UNL     1      -2.040  13.075  21.231  0.00  0.00    +0.000 A 
ATOM      3  C   UNL     1      -3.221  13.663  20.715  0.00  0.00    +0.000 A 
ATOM      4  C   UNL     1      -4.431  13.653  21.412  0.00  0.00    +0.000 A 
ATOM      5  C   UNL     1      -4.520  12.964  22.609  0.00  0.00    +0.000 A 
ATOM      6 CL   UNL     1      -6.029  12.846  23.422  0.00  0.00    +0.000 Cl
ATOM      7  C   UNL     1      -3.390  12.356  23.141  0.00  0.00    +0.000 A 
ATOM      8  C   UNL     1      -2.145  12.452  22.486  0.00  0.00    +0.000 A 
ATOM      9  C   UNL     1      -0.953  11.794  23.109  0.00  0.00    +0.000 C 
ATOM     10  C   UNL     1      -0.678  10.499  22.379  0.00  0.00    +0.000 C 
ATOM     11  C   UNL     1      -0.098  10.591  20.988  0.00  0.00    +0.000 A 
ATOM     12  C   UNL     1       0.481   9.383  20.484  0.00  0.00    +0.000 A 
ATOM     13 CL   UNL     1       0.368   7.867  21.337  0.00  0.00    +0.000 Cl
ATOM     14  C   UNL     1       1.171   9.337  19.285  0.00  0.00    +0.000 A 
ATOM     15  C   UNL     1       1.289  10.515  18.611  0.00  0.00    +0.000 A 
ATOM     16  N   UNL     1       0.719  11.659  19.027  0.00  0.00    +0.000 NA
ATOM     17  C   UNL     1      -0.045  11.730  20.157  0.00  0.00    +0.000 A 
ENDROOT
BRANCH   1  23
ATOM     18  C   UNL     1       2.659  16.702  19.329  0.00  0.00    +0.000 C 
ATOM     19  O   UNL     1       2.796  17.574  20.189  0.00  0.00    +0.000 OA
ATOM     20  N   UNL     1       1.490  15.959  19.196  0.00  0.00    +0.000 N 
ATOM     21  C   UNL     1       0.403  16.266  20.115  0.00  0.00    +0.000 C 
ATOM     22  C   UNL     1      -0.923  15.566  19.771  0.00  0.00    +0.000 C 
ATOM     23  N   UNL     1      -0.840  14.144  19.323  0.00  0.00    +0.000 NA
ATOM     24  C   UNL     1       0.131  14.134  18.222  0.00  0.00    +0.000 C 
ATOM     25  C   UNL     1       1.520  14.596  18.652  0.00  0.00    +0.000 C 
BRANCH  18  26
ATOM     26  C   UNL     1       3.705  16.389  18.280  0.00  0.00    +0.000 C 
BRANCH  26  31
ATOM     27  C   UNL     1       9.245  15.159  18.947  0.00  0.00    +0.000 C 
ATOM     28  N   UNL     1       7.946  15.620  18.463  0.00  0.00    +0.000 NA
ATOM     29  C   UNL     1       7.031  14.483  18.324  0.00  0.00    +0.000 C 
ATOM     30  C   UNL     1       5.649  14.926  17.861  0.00  0.00    +0.000 C 
ATOM     31  C   UNL     1       5.076  15.990  18.805  0.00  0.00    +0.000 C 
ATOM     32  C   UNL     1       6.057  17.158  18.887  0.00  0.00    +0.000 C 
ATOM     33  C   UNL     1       7.413  16.647  19.368  0.00  0.00    +0.000 C 
ENDBRANCH  26  31
ENDBRANCH  18  26
ENDBRANCH   1  23
TORSDOF 3
ENDMDL
