MODEL 1
REMARK VINA RESULT:      -8.5      0.000      0.000
REMARK  Name = 
REMARK  8 active torsions:
REMARK  status: ('A' for Active; 'I' for Inactive)
REMARK    1  A    between atoms: C_1  and  C_2
REMARK    2  A    between atoms: C_4  and  C_5
REMARK    3  A    between atoms: C_9  and  C_10
REMARK    4  A    between atoms: N_12  and  C_13
REMARK    5  A    between atoms: C_15  and  C_16
REMARK    6  A    between atoms: C_19  and  C_20
REMARK    7  A    between atoms: C_20  and  C_21
REMARK    8  A    between atoms: C_24  and  C_25
REMARK                            x       y       z     vdW  Elec       q    Type
REMARK                         _______ _______ _______ _____ _____    ______ ____
ROOT
ATOM      1  C   UNL     1       1.835   6.498  20.021  0.00  0.00    +0.000 A 
ATOM      2  C   UNL     1       1.350   5.497  20.861  0.00  0.00    +0.000 A 
ATOM      3  C   UNL     1       1.877   4.204  20.833  0.00  0.00    +0.000 A 
ATOM      4  C   UNL     1       1.284   3.145  21.713  0.00  0.00    +0.000 C 
ATOM      5  C   UNL     1       2.908   3.911  19.936  0.00  0.00    +0.000 A 
ATOM      6  F   UNL     1       3.427   2.675  19.952  0.00  0.00    +0.000 F 
ATOM      7  C   UNL     1       3.383   4.857  19.013  0.00  0.00    +0.000 A 
ATOM      8  C   UNL     1       2.833   6.166  19.090  0.00  0.00    +0.000 A 
ENDROOT
BRANCH   7   9
ATOM      9  C   UNL     1       4.406   4.464  17.924  0.00  0.00    +0.000 C 
ATOM     10  C   UNL     1       5.853   4.386  18.429  0.00  0.00    +0.000 C 
ATOM     11  C   UNL     1       6.425   5.776  18.618  0.00  0.00    +0.000 C 
ATOM     12  O   UNL     1       6.251   6.560  17.418  0.00  0.00    +0.000 OA
ATOM     13  C   UNL     1       5.203   6.304  16.618  0.00  0.00    +0.000 C 
ATOM     14  N   UNL     1       5.159   7.170  15.592  0.00  0.00    +0.000 N 
ATOM     15  N   UNL     1       4.334   5.387  16.780  0.00  0.00    +0.000 NA
ATOM     16  H   UNL     1       5.874   7.870  15.480  0.00  0.00    +0.000 HD
ATOM     17  H   UNL     1       4.426   7.077  14.905  0.00  0.00    +0.000 HD
BRANCH  11  18
ATOM     18  C   UNL     1       7.912   5.710  19.000  0.00  0.00    +0.000 C 
ATOM     19  F   UNL     1       8.570   4.709  18.373  0.00  0.00    +0.000 F 
ATOM     20  F   UNL     1       8.570   6.858  18.715  0.00  0.00    +0.000 F 
ATOM     21  F   UNL     1       8.049   5.496  20.332  0.00  0.00    +0.000 F 
ENDBRANCH  11  18
BRANCH   9  22
ATOM     22  C   UNL     1       4.055   3.055  17.352  0.00  0.00    +0.000 C 
ATOM     23  F   UNL     1       2.803   3.078  16.799  0.00  0.00    +0.000 F 
ENDBRANCH   9  22
ENDBRANCH   7   9
BRANCH   1  26
ATOM     24  C   UNL     1       1.361   8.669  21.174  0.00  0.00    +0.000 C 
ATOM     25  O   UNL     1       1.892   8.414  22.255  0.00  0.00    +0.000 OA
ATOM     26  N   UNL     1       1.321   7.815  20.071  0.00  0.00    +0.000 N 
ATOM     27  H   UNL     1       0.927   8.215  19.220  0.00  0.00    +0.000 HD
BRANCH  24  34
ATOM     28  C   UNL     1      -0.632   9.940  23.164  0.00  0.00    +0.000 C 
ATOM     29  C   UNL     1      -0.174  10.590  21.886  0.00  0.00    +0.000 A 
ATOM     30  C   UNL     1      -0.691  11.861  21.579  0.00  0.00    +0.000 A 
ATOM     31  C   UNL     1      -0.309  12.506  20.402  0.00  0.00    +0.000 A 
ATOM     32  C   UNL     1       0.580  11.861  19.561  0.00  0.00    +0.000 A 
ATOM     33  N   UNL     1       1.109  10.640  19.811  0.00  0.00    +0.000 NA
ATOM     34  C   UNL     1       0.724  10.018  20.968  0.00  0.00    +0.000 A 
BRANCH  31  35
ATOM     35  C   UNL     1      -0.809  13.805  20.079  0.00  0.00    +0.000 C 
ATOM     36  N   UNL     1      -1.202  14.867  19.822  0.00  0.00    +0.000 NA
ENDBRANCH  31  35
ENDBRANCH  24  34
ENDBRANCH   1  26
TORSDOF 6
ENDMDL
MODEL 2
REMARK VINA RESULT:      -8.3      0.752      1.447
REMARK  Name = 
REMARK  8 active torsions:
REMARK  status: ('A' for Active; 'I' for Inactive)
REMARK    1  A    between atoms: C_1  and  C_2
REMARK    2  A    between atoms: C_4  and  C_5
REMARK    3  A    between atoms: C_9  and  C_10
REMARK    4  A    between atoms: N_12  and  C_13
REMARK    5  A    between atoms: C_15  and  C_16
REMARK    6  A    between atoms: C_19  and  C_20
REMARK    7  A    between atoms: C_20  and  C_21
REMARK    8  A    between atoms: C_24  and  C_25
REMARK                            x       y       z     vdW  Elec       q    Type
REMARK                         _______ _______ _______ _____ _____    ______ ____
ROOT
ATOM      1  C   UNL     1       1.742   6.326  20.028  0.00  0.00    +0.000 A 
ATOM      2  C   UNL     1       1.327   5.313  20.891  0.00  0.00    +0.000 A 
ATOM      3  C   UNL     1       1.932   4.055  20.882  0.00  0.00    +0.000 A 
ATOM      4  C   UNL     1       1.414   2.979  21.787  0.00  0.00    +0.000 C 
ATOM      5  C   UNL     1       2.970   3.807  19.978  0.00  0.00    +0.000 A 
ATOM      6  F   UNL     1       3.564   2.606  20.011  0.00  0.00    +0.000 F 
ATOM      7  C   UNL     1       3.377   4.763  19.033  0.00  0.00    +0.000 A 
ATOM      8  C   UNL     1       2.748   6.037  19.091  0.00  0.00    +0.000 A 
ENDROOT
BRANCH   7   9
ATOM      9  C   UNL     1       4.411   4.412  17.940  0.00  0.00    +0.000 C 
ATOM     10  C   UNL     1       5.858   4.358  18.447  0.00  0.00    +0.000 C 
ATOM     11  C   UNL     1       6.398   5.757  18.662  0.00  0.00    +0.000 C 
ATOM     12  O   UNL     1       6.209   6.558  17.475  0.00  0.00    +0.000 OA
ATOM     13  C   UNL     1       5.169   6.292  16.668  0.00  0.00    +0.000 C 
ATOM     14  N   UNL     1       5.107   7.175  15.657  0.00  0.00    +0.000 N 
ATOM     15  N   UNL     1       4.320   5.353  16.811  0.00  0.00    +0.000 NA
ATOM     16  H   UNL     1       5.807   7.892  15.559  0.00  0.00    +0.000 HD
ATOM     17  H   UNL     1       4.378   7.077  14.966  0.00  0.00    +0.000 HD
BRANCH  11  18
ATOM     18  C   UNL     1       7.885   5.718  19.047  0.00  0.00    +0.000 C 
ATOM     19  F   UNL     1       8.534   6.866  18.744  0.00  0.00    +0.000 F 
ATOM     20  F   UNL     1       8.071   5.494  20.368  0.00  0.00    +0.000 F 
ATOM     21  F   UNL     1       8.519   4.721  18.383  0.00  0.00    +0.000 F 
ENDBRANCH  11  18
BRANCH   9  22
ATOM     22  C   UNL     1       4.093   3.006  17.343  0.00  0.00    +0.000 C 
ATOM     23  F   UNL     1       2.807   2.982  16.874  0.00  0.00    +0.000 F 
ENDBRANCH   9  22
ENDBRANCH   7   9
BRANCH   1  26
ATOM     24  C   UNL     1       1.274   8.545  21.087  0.00  0.00    +0.000 C 
ATOM     25  O   UNL     1       1.959   8.405  22.099  0.00  0.00    +0.000 OA
ATOM     26  N   UNL     1       1.149   7.609  20.059  0.00  0.00    +0.000 N 
ATOM     27  H   UNL     1       0.619   7.920  19.245  0.00  0.00    +0.000 HD
BRANCH  24  34
ATOM     28  C   UNL     1       1.387  10.185  18.471  0.00  0.00    +0.000 C 
ATOM     29  C   UNL     1       0.574  10.566  19.680  0.00  0.00    +0.000 A 
ATOM     30  C   UNL     1      -0.182  11.749  19.612  0.00  0.00    +0.000 A 
ATOM     31  C   UNL     1      -0.945  12.156  20.707  0.00  0.00    +0.000 A 
ATOM     32  C   UNL     1      -0.931  11.369  21.844  0.00  0.00    +0.000 A 
ATOM     33  N   UNL     1      -0.223  10.220  21.960  0.00  0.00    +0.000 NA
ATOM     34  C   UNL     1       0.523   9.835  20.879  0.00  0.00    +0.000 A 
BRANCH  31  35
ATOM     35  C   UNL     1      -1.734  13.346  20.652  0.00  0.00    +0.000 C 
ATOM     36  N   UNL     1      -2.365  14.319  20.598  0.00  0.00    +0.000 NA
ENDBRANCH  31  35
ENDBRANCH  24  34
ENDBRANCH   1  26
TORSDOF 6
ENDMDL
MODEL 3
REMARK VINA RESULT:      -8.3      1.140      1.620
REMARK  Name = 
REMARK  8 active torsions:
REMARK  status: ('A' for Active; 'I' for Inactive)
REMARK    1  A    between atoms: C_1  and  C_2
REMARK    2  A    between atoms: C_4  and  C_5
REMARK    3  A    between atoms: C_9  and  C_10
REMARK    4  A    between atoms: N_12  and  C_13
REMARK    5  A    between atoms: C_15  and  C_16
REMARK    6  A    between atoms: C_19  and  C_20
REMARK    7  A    between atoms: C_20  and  C_21
REMARK    8  A    between atoms: C_24  and  C_25
REMARK                            x       y       z     vdW  Elec       q    Type
REMARK                         _______ _______ _______ _____ _____    ______ ____
ROOT
ATOM      1  C   UNL     1       1.787   6.396  20.068  0.00  0.00    +0.000 A 
ATOM      2  C   UNL     1       1.347   5.376  20.910  0.00  0.00    +0.000 A 
ATOM      3  C   UNL     1       1.921   4.104  20.875  0.00  0.00    +0.000 A 
ATOM      4  C   UNL     1       1.376   3.022  21.758  0.00  0.00    +0.000 C 
ATOM      5  C   UNL     1       2.952   3.849  19.966  0.00  0.00    +0.000 A 
ATOM      6  F   UNL     1       3.516   2.633  19.974  0.00  0.00    +0.000 F 
ATOM      7  C   UNL     1       3.383   4.814  19.041  0.00  0.00    +0.000 A 
ATOM      8  C   UNL     1       2.787   6.102  19.126  0.00  0.00    +0.000 A 
ENDROOT
BRANCH   7   9
ATOM      9  C   UNL     1       4.408   4.460  17.940  0.00  0.00    +0.000 C 
ATOM     10  C   UNL     1       5.858   4.394  18.439  0.00  0.00    +0.000 C 
ATOM     11  C   UNL     1       6.409   5.788  18.656  0.00  0.00    +0.000 C 
ATOM     12  O   UNL     1       6.219   6.595  17.474  0.00  0.00    +0.000 OA
ATOM     13  C   UNL     1       5.172   6.340  16.671  0.00  0.00    +0.000 C 
ATOM     14  N   UNL     1       5.111   7.227  15.665  0.00  0.00    +0.000 N 
ATOM     15  N   UNL     1       4.318   5.406  16.816  0.00  0.00    +0.000 NA
ATOM     16  H   UNL     1       5.815   7.940  15.565  0.00  0.00    +0.000 HD
ATOM     17  H   UNL     1       4.378   7.137  14.977  0.00  0.00    +0.000 HD
BRANCH  11  18
ATOM     18  C   UNL     1       7.898   5.738  19.032  0.00  0.00    +0.000 C 
ATOM     19  F   UNL     1       8.554   6.880  18.726  0.00  0.00    +0.000 F 
ATOM     20  F   UNL     1       8.090   5.512  20.353  0.00  0.00    +0.000 F 
ATOM     21  F   UNL     1       8.520   4.735  18.365  0.00  0.00    +0.000 F 
ENDBRANCH  11  18
BRANCH   9  22
ATOM     22  C   UNL     1       4.077   3.059  17.340  0.00  0.00    +0.000 C 
ATOM     23  F   UNL     1       2.796   3.052  16.857  0.00  0.00    +0.000 F 
ENDBRANCH   9  22
ENDBRANCH   7   9
BRANCH   1  26
ATOM     24  C   UNL     1       1.490   8.739  19.240  0.00  0.00    +0.000 C 
ATOM     25  O   UNL     1       2.217   8.670  18.250  0.00  0.00    +0.000 OA
ATOM     26  N   UNL     1       1.226   7.693  20.126  0.00  0.00    +0.000 N 
ATOM     27  H   UNL     1       0.525   7.889  20.839  0.00  0.00    +0.000 HD
BRANCH  24  34
ATOM     28  C   UNL     1      -0.970   9.730  17.653  0.00  0.00    +0.000 C 
ATOM     29  C   UNL     1      -0.352  10.465  18.814  0.00  0.00    +0.000 A 
ATOM     30  C   UNL     1      -0.936  11.685  19.198  0.00  0.00    +0.000 A 
ATOM     31  C   UNL     1      -0.399  12.414  20.260  0.00  0.00    +0.000 A 
ATOM     32  C   UNL     1       0.710  11.903  20.910  0.00  0.00    +0.000 A 
ATOM     33  N   UNL     1       1.307  10.733  20.582  0.00  0.00    +0.000 NA
ATOM     34  C   UNL     1       0.772  10.030  19.536  0.00  0.00    +0.000 A 
BRANCH  31  35
ATOM     35  C   UNL     1      -0.987  13.647  20.678  0.00  0.00    +0.000 C 
ATOM     36  N   UNL     1      -1.478  14.645  21.010  0.00  0.00    +0.000 NA
ENDBRANCH  31  35
ENDBRANCH  24  34
ENDBRANCH   1  26
TORSDOF 6
ENDMDL
MODEL 4
REMARK VINA RESULT:      -8.2      0.956      1.175
REMARK  Name = 
REMARK  8 active torsions:
REMARK  status: ('A' for Active; 'I' for Inactive)
REMARK    1  A    between atoms: C_1  and  C_2
REMARK    2  A    between atoms: C_4  and  C_5
REMARK    3  A    between atoms: C_9  and  C_10
REMARK    4  A    between atoms: N_12  and  C_13
REMARK    5  A    between atoms: C_15  and  C_16
REMARK    6  A    between atoms: C_19  and  C_20
REMARK    7  A    between atoms: C_20  and  C_21
REMARK    8  A    between atoms: C_24  and  C_25
REMARK                            x       y       z     vdW  Elec       q    Type
REMARK                         _______ _______ _______ _____ _____    ______ ____
ROOT
ATOM      1  C   UNL     1       1.977   6.419  20.187  0.00  0.00    +0.000 A 
ATOM      2  C   UNL     1       1.409   5.380  20.921  0.00  0.00    +0.000 A 
ATOM      3  C   UNL     1       1.847   4.062  20.778  0.00  0.00    +0.000 A 
ATOM      4  C   UNL     1       1.166   2.969  21.545  0.00  0.00    +0.000 C 
ATOM      5  C   UNL     1       2.871   3.782  19.869  0.00  0.00    +0.000 A 
ATOM      6  F   UNL     1       3.304   2.516  19.774  0.00  0.00    +0.000 F 
ATOM      7  C   UNL     1       3.428   4.775  19.046  0.00  0.00    +0.000 A 
ATOM      8  C   UNL     1       2.968   6.106  19.240  0.00  0.00    +0.000 A 
ENDROOT
BRANCH   7   9
ATOM      9  C   UNL     1       4.442   4.415  17.937  0.00  0.00    +0.000 C 
ATOM     10  C   UNL     1       5.896   4.341  18.424  0.00  0.00    +0.000 C 
ATOM     11  C   UNL     1       6.455   5.732  18.635  0.00  0.00    +0.000 C 
ATOM     12  O   UNL     1       6.260   6.539  17.454  0.00  0.00    +0.000 OA
ATOM     13  C   UNL     1       5.205   6.289  16.660  0.00  0.00    +0.000 C 
ATOM     14  N   UNL     1       5.140   7.176  15.653  0.00  0.00    +0.000 N 
ATOM     15  N   UNL     1       4.347   5.360  16.813  0.00  0.00    +0.000 NA
ATOM     16  H   UNL     1       5.847   7.885  15.548  0.00  0.00    +0.000 HD
ATOM     17  H   UNL     1       4.400   7.089  14.973  0.00  0.00    +0.000 HD
BRANCH  11  18
ATOM     18  C   UNL     1       7.947   5.674  18.999  0.00  0.00    +0.000 C 
ATOM     19  F   UNL     1       8.604   6.818  18.700  0.00  0.00    +0.000 F 
ATOM     20  F   UNL     1       8.150   5.433  20.315  0.00  0.00    +0.000 F 
ATOM     21  F   UNL     1       8.562   4.678  18.315  0.00  0.00    +0.000 F 
ENDBRANCH  11  18
BRANCH   9  22
ATOM     22  C   UNL     1       4.098   3.014  17.341  0.00  0.00    +0.000 C 
ATOM     23  F   UNL     1       2.856   3.047  16.767  0.00  0.00    +0.000 F 
ENDBRANCH   9  22
ENDBRANCH   7   9
BRANCH   1  26
ATOM     24  C   UNL     1       1.392   8.699  19.336  0.00  0.00    +0.000 C 
ATOM     25  O   UNL     1       1.551   8.485  18.135  0.00  0.00    +0.000 OA
ATOM     26  N   UNL     1       1.555   7.758  20.354  0.00  0.00    +0.000 N 
ATOM     27  H   UNL     1       1.290   8.071  21.287  0.00  0.00    +0.000 HD
BRANCH  24  34
ATOM     28  C   UNL     1      -0.248   9.199  21.907  0.00  0.00    +0.000 C 
ATOM     29  C   UNL     1       0.210  10.281  20.965  0.00  0.00    +0.000 A 
ATOM     30  C   UNL     1      -0.136  11.607  21.278  0.00  0.00    +0.000 A 
ATOM     31  C   UNL     1       0.253  12.649  20.435  0.00  0.00    +0.000 A 
ATOM     32  C   UNL     1       0.976  12.336  19.298  0.00  0.00    +0.000 A 
ATOM     33  N   UNL     1       1.336  11.078  18.953  0.00  0.00    +0.000 NA
ATOM     34  C   UNL     1       0.946  10.065  19.787  0.00  0.00    +0.000 A 
BRANCH  31  35
ATOM     35  C   UNL     1      -0.073  14.006  20.744  0.00  0.00    +0.000 C 
ATOM     36  N   UNL     1      -0.322  15.111  20.998  0.00  0.00    +0.000 NA
ENDBRANCH  31  35
ENDBRANCH  24  34
ENDBRANCH   1  26
TORSDOF 6
ENDMDL
MODEL 5
REMARK VINA RESULT:      -8.2      5.268      9.582
REMARK  Name = 
REMARK  8 active torsions:
REMARK  status: ('A' for Active; 'I' for Inactive)
REMARK    1  A    between atoms: C_1  and  C_2
REMARK    2  A    between atoms: C_4  and  C_5
REMARK    3  A    between atoms: C_9  and  C_10
REMARK    4  A    between atoms: N_12  and  C_13
REMARK    5  A    between atoms: C_15  and  C_16
REMARK    6  A    between atoms: C_19  and  C_20
REMARK    7  A    between atoms: C_20  and  C_21
REMARK    8  A    between atoms: C_24  and  C_25
REMARK                            x       y       z     vdW  Elec       q    Type
REMARK                         _______ _______ _______ _____ _____    ______ ____
ROOT
ATOM      1  C   UNL     1       1.085   8.948  19.821  0.00  0.00    +0.000 A 
ATOM      2  C   UNL     1       0.960   8.804  21.202  0.00  0.00    +0.000 A 
ATOM      3  C   UNL     1       0.169   9.673  21.956  0.00  0.00    +0.000 A 
ATOM      4  C   UNL     1       0.112   9.515  23.446  0.00  0.00    +0.000 C 
ATOM      5  C   UNL     1      -0.502  10.714  21.309  0.00  0.00    +0.000 A 
ATOM      6  F   UNL     1      -1.288  11.513  22.046  0.00  0.00    +0.000 F 
ATOM      7  C   UNL     1      -0.353  10.955  19.934  0.00  0.00    +0.000 A 
ATOM      8  C   UNL     1       0.445  10.034  19.201  0.00  0.00    +0.000 A 
ENDROOT
BRANCH   7   9
ATOM      9  C   UNL     1      -0.974  12.205  19.271  0.00  0.00    +0.000 C 
ATOM     10  C   UNL     1      -2.312  12.636  19.889  0.00  0.00    +0.000 C 
ATOM     11  C   UNL     1      -3.425  11.712  19.441  0.00  0.00    +0.000 C 
ATOM     12  O   UNL     1      -3.438  11.600  18.001  0.00  0.00    +0.000 OA
ATOM     13  C   UNL     1      -2.284  11.735  17.325  0.00  0.00    +0.000 C 
ATOM     14  N   UNL     1      -2.471  11.531  16.011  0.00  0.00    +0.000 N 
ATOM     15  N   UNL     1      -1.143  12.001  17.824  0.00  0.00    +0.000 NA
ATOM     16  H   UNL     1      -3.390  11.344  15.646  0.00  0.00    +0.000 HD
ATOM     17  H   UNL     1      -1.684  11.620  15.386  0.00  0.00    +0.000 HD
BRANCH  11  18
ATOM     18  C   UNL     1      -4.788  12.209  19.948  0.00  0.00    +0.000 C 
ATOM     19  F   UNL     1      -4.842  12.301  21.296  0.00  0.00    +0.000 F 
ATOM     20  F   UNL     1      -5.111  13.426  19.453  0.00  0.00    +0.000 F 
ATOM     21  F   UNL     1      -5.771  11.355  19.572  0.00  0.00    +0.000 F 
ENDBRANCH  11  18
BRANCH   9  22
ATOM     22  C   UNL     1      -0.002  13.417  19.417  0.00  0.00    +0.000 C 
ATOM     23  F   UNL     1      -0.058  14.193  18.291  0.00  0.00    +0.000 F 
ENDBRANCH   9  22
ENDBRANCH   7   9
BRANCH   1  26
ATOM     24  C   UNL     1       2.235   6.759  19.432  0.00  0.00    +0.000 C 
ATOM     25  O   UNL     1       1.903   6.198  20.475  0.00  0.00    +0.000 OA
ATOM     26  N   UNL     1       1.862   8.050  19.053  0.00  0.00    +0.000 N 
ATOM     27  H   UNL     1       2.143   8.330  18.114  0.00  0.00    +0.000 HD
BRANCH  24  34
ATOM     28  C   UNL     1       1.512   3.968  18.321  0.00  0.00    +0.000 C 
ATOM     29  C   UNL     1       2.738   4.750  17.928  0.00  0.00    +0.000 A 
ATOM     30  C   UNL     1       3.611   4.167  16.993  0.00  0.00    +0.000 A 
ATOM     31  C   UNL     1       4.768   4.842  16.600  0.00  0.00    +0.000 A 
ATOM     32  C   UNL     1       5.022   6.083  17.155  0.00  0.00    +0.000 A 
ATOM     33  N   UNL     1       4.213   6.690  18.056  0.00  0.00    +0.000 NA
ATOM     34  C   UNL     1       3.083   6.015  18.434  0.00  0.00    +0.000 A 
BRANCH  31  35
ATOM     35  C   UNL     1       5.660   4.276  15.639  0.00  0.00    +0.000 C 
ATOM     36  N   UNL     1       6.386   3.830  14.850  0.00  0.00    +0.000 NA
ENDBRANCH  31  35
ENDBRANCH  24  34
ENDBRANCH   1  26
TORSDOF 6
ENDMDL
MODEL 6
REMARK VINA RESULT:      -8.1      1.107      1.771
REMARK  Name = 
REMARK  8 active torsions:
REMARK  status: ('A' for Active; 'I' for Inactive)
REMARK    1  A    between atoms: C_1  and  C_2
REMARK    2  A    between atoms: C_4  and  C_5
REMARK    3  A    between atoms: C_9  and  C_10
REMARK    4  A    between atoms: N_12  and  C_13
REMARK    5  A    between atoms: C_15  and  C_16
REMARK    6  A    between atoms: C_19  and  C_20
REMARK    7  A    between atoms: C_20  and  C_21
REMARK    8  A    between atoms: C_24  and  C_25
REMARK                            x       y       z     vdW  Elec       q    Type
REMARK                         _______ _______ _______ _____ _____    ______ ____
ROOT
ATOM      1  C   UNL     1       2.021   6.424  20.270  0.00  0.00    +0.000 A 
ATOM      2  C   UNL     1       1.422   5.372  20.962  0.00  0.00    +0.000 A 
ATOM      3  C   UNL     1       1.819   4.049  20.762  0.00  0.00    +0.000 A 
ATOM      4  C   UNL     1       1.107   2.946  21.485  0.00  0.00    +0.000 C 
ATOM      5  C   UNL     1       2.833   3.777  19.840  0.00  0.00    +0.000 A 
ATOM      6  F   UNL     1       3.227   2.504  19.690  0.00  0.00    +0.000 F 
ATOM      7  C   UNL     1       3.418   4.786  19.058  0.00  0.00    +0.000 A 
ATOM      8  C   UNL     1       2.999   6.121  19.308  0.00  0.00    +0.000 A 
ENDROOT
BRANCH   7   9
ATOM      9  C   UNL     1       4.419   4.442  17.932  0.00  0.00    +0.000 C 
ATOM     10  C   UNL     1       5.878   4.358  18.401  0.00  0.00    +0.000 C 
ATOM     11  C   UNL     1       6.442   5.746  18.628  0.00  0.00    +0.000 C 
ATOM     12  O   UNL     1       6.235   6.572  17.462  0.00  0.00    +0.000 OA
ATOM     13  C   UNL     1       5.171   6.336  16.676  0.00  0.00    +0.000 C 
ATOM     14  N   UNL     1       5.096   7.239  15.685  0.00  0.00    +0.000 N 
ATOM     15  N   UNL     1       4.313   5.406  16.824  0.00  0.00    +0.000 NA
ATOM     16  H   UNL     1       5.803   7.949  15.582  0.00  0.00    +0.000 HD
ATOM     17  H   UNL     1       4.349   7.164  15.011  0.00  0.00    +0.000 HD
BRANCH  11  18
ATOM     18  C   UNL     1       7.938   5.680  18.973  0.00  0.00    +0.000 C 
ATOM     19  F   UNL     1       8.163   5.497  20.295  0.00  0.00    +0.000 F 
ATOM     20  F   UNL     1       8.576   4.679  18.321  0.00  0.00    +0.000 F 
ATOM     21  F   UNL     1       8.555   6.835  18.625  0.00  0.00    +0.000 F 
ENDBRANCH  11  18
BRANCH   9  22
ATOM     22  C   UNL     1       4.066   3.053  17.317  0.00  0.00    +0.000 C 
ATOM     23  F   UNL     1       2.806   3.088  16.783  0.00  0.00    +0.000 F 
ENDBRANCH   9  22
ENDBRANCH   7   9
BRANCH   1  26
ATOM     24  C   UNL     1       1.395   8.725  19.509  0.00  0.00    +0.000 C 
ATOM     25  O   UNL     1       1.434   8.526  18.296  0.00  0.00    +0.000 OA
ATOM     26  N   UNL     1       1.639   7.767  20.495  0.00  0.00    +0.000 N 
ATOM     27  H   UNL     1       1.471   8.071  21.453  0.00  0.00    +0.000 HD
BRANCH  24  34
ATOM     28  C   UNL     1       2.217  11.356  18.113  0.00  0.00    +0.000 C 
ATOM     29  C   UNL     1       1.390  11.281  19.369  0.00  0.00    +0.000 A 
ATOM     30  C   UNL     1       0.966  12.492  19.944  0.00  0.00    +0.000 A 
ATOM     31  C   UNL     1       0.206  12.483  21.114  0.00  0.00    +0.000 A 
ATOM     32  C   UNL     1      -0.110  11.261  21.680  0.00  0.00    +0.000 A 
ATOM     33  N   UNL     1       0.271  10.068  21.166  0.00  0.00    +0.000 NA
ATOM     34  C   UNL     1       1.018  10.092  20.019  0.00  0.00    +0.000 A 
BRANCH  31  35
ATOM     35  C   UNL     1      -0.250  13.701  21.705  0.00  0.00    +0.000 C 
ATOM     36  N   UNL     1      -0.618  14.685  22.199  0.00  0.00    +0.000 NA
ENDBRANCH  31  35
ENDBRANCH  24  34
ENDBRANCH   1  26
TORSDOF 6
ENDMDL
MODEL 7
REMARK VINA RESULT:      -8.0      0.886      1.458
REMARK  Name = 
REMARK  8 active torsions:
REMARK  status: ('A' for Active; 'I' for Inactive)
REMARK    1  A    between atoms: C_1  and  C_2
REMARK    2  A    between atoms: C_4  and  C_5
REMARK    3  A    between atoms: C_9  and  C_10
REMARK    4  A    between atoms: N_12  and  C_13
REMARK    5  A    between atoms: C_15  and  C_16
REMARK    6  A    between atoms: C_19  and  C_20
REMARK    7  A    between atoms: C_20  and  C_21
REMARK    8  A    between atoms: C_24  and  C_25
REMARK                            x       y       z     vdW  Elec       q    Type
REMARK                         _______ _______ _______ _____ _____    ______ ____
ROOT
ATOM      1  C   UNL     1       1.944   6.647  20.099  0.00  0.00    +0.000 A 
ATOM      2  C   UNL     1       1.407   5.657  20.921  0.00  0.00    +0.000 A 
ATOM      3  C   UNL     1       1.865   4.339  20.868  0.00  0.00    +0.000 A 
ATOM      4  C   UNL     1       1.217   3.297  21.728  0.00  0.00    +0.000 C 
ATOM      5  C   UNL     1       2.876   4.008  19.962  0.00  0.00    +0.000 A 
ATOM      6  F   UNL     1       3.329   2.746  19.953  0.00  0.00    +0.000 F 
ATOM      7  C   UNL     1       3.401   4.945  19.056  0.00  0.00    +0.000 A 
ATOM      8  C   UNL     1       2.922   6.279  19.159  0.00  0.00    +0.000 A 
ENDROOT
BRANCH   7   9
ATOM      9  C   UNL     1       4.400   4.519  17.957  0.00  0.00    +0.000 C 
ATOM     10  C   UNL     1       5.851   4.406  18.445  0.00  0.00    +0.000 C 
ATOM     11  C   UNL     1       6.460   5.783  18.618  0.00  0.00    +0.000 C 
ATOM     12  O   UNL     1       6.291   6.563  17.415  0.00  0.00    +0.000 OA
ATOM     13  C   UNL     1       5.227   6.328  16.628  0.00  0.00    +0.000 C 
ATOM     14  N   UNL     1       5.192   7.189  15.598  0.00  0.00    +0.000 N 
ATOM     15  N   UNL     1       4.337   5.435  16.808  0.00  0.00    +0.000 NA
ATOM     16  H   UNL     1       5.924   7.869  15.472  0.00  0.00    +0.000 HD
ATOM     17  H   UNL     1       4.449   7.110  14.920  0.00  0.00    +0.000 HD
BRANCH  11  18
ATOM     18  C   UNL     1       7.949   5.682  18.982  0.00  0.00    +0.000 C 
ATOM     19  F   UNL     1       8.152   5.460  20.301  0.00  0.00    +0.000 F 
ATOM     20  F   UNL     1       8.579   4.689  18.311  0.00  0.00    +0.000 F 
ATOM     21  F   UNL     1       8.590   6.836  18.675  0.00  0.00    +0.000 F 
ENDBRANCH  11  18
BRANCH   9  22
ATOM     22  C   UNL     1       4.006   3.115  17.400  0.00  0.00    +0.000 C 
ATOM     23  F   UNL     1       2.774   3.181  16.807  0.00  0.00    +0.000 F 
ENDBRANCH   9  22
ENDBRANCH   7   9
BRANCH   1  26
ATOM     24  C   UNL     1       0.384   8.443  20.876  0.00  0.00    +0.000 C 
ATOM     25  O   UNL     1      -0.356   7.746  21.570  0.00  0.00    +0.000 OA
ATOM     26  N   UNL     1       1.502   7.988  20.175  0.00  0.00    +0.000 N 
ATOM     27  H   UNL     1       2.062   8.712  19.726  0.00  0.00    +0.000 HD
BRANCH  24  34
ATOM     28  C   UNL     1      -0.232   9.898  18.220  0.00  0.00    +0.000 C 
ATOM     29  C   UNL     1      -0.168  10.572  19.565  0.00  0.00    +0.000 A 
ATOM     30  C   UNL     1      -0.403  11.957  19.612  0.00  0.00    +0.000 A 
ATOM     31  C   UNL     1      -0.346  12.636  20.830  0.00  0.00    +0.000 A 
ATOM     32  C   UNL     1      -0.054  11.910  21.971  0.00  0.00    +0.000 A 
ATOM     33  N   UNL     1       0.177  10.576  21.980  0.00  0.00    +0.000 NA
ATOM     34  C   UNL     1       0.121   9.924  20.778  0.00  0.00    +0.000 A 
BRANCH  31  35
ATOM     35  C   UNL     1      -0.599  14.040  20.903  0.00  0.00    +0.000 C 
ATOM     36  N   UNL     1      -0.819  15.178  20.957  0.00  0.00    +0.000 NA
ENDBRANCH  31  35
ENDBRANCH  24  34
ENDBRANCH   1  26
TORSDOF 6
ENDMDL
MODEL 8
REMARK VINA RESULT:      -7.9      5.243      9.348
REMARK  Name = 
REMARK  8 active torsions:
REMARK  status: ('A' for Active; 'I' for Inactive)
REMARK    1  A    between atoms: C_1  and  C_2
REMARK    2  A    between atoms: C_4  and  C_5
REMARK    3  A    between atoms: C_9  and  C_10
REMARK    4  A    between atoms: N_12  and  C_13
REMARK    5  A    between atoms: C_15  and  C_16
REMARK    6  A    between atoms: C_19  and  C_20
REMARK    7  A    between atoms: C_20  and  C_21
REMARK    8  A    between atoms: C_24  and  C_25
REMARK                            x       y       z     vdW  Elec       q    Type
REMARK                         _______ _______ _______ _____ _____    ______ ____
ROOT
ATOM      1  C   UNL     1       0.689   9.762  18.246  0.00  0.00    +0.000 A 
ATOM      2  C   UNL     1      -0.621   9.631  17.789  0.00  0.00    +0.000 A 
ATOM      3  C   UNL     1      -1.613  10.545  18.149  0.00  0.00    +0.000 A 
ATOM      4  C   UNL     1      -3.021  10.331  17.681  0.00  0.00    +0.000 C 
ATOM      5  C   UNL     1      -1.283  11.608  18.994  0.00  0.00    +0.000 A 
ATOM      6  F   UNL     1      -2.240  12.497  19.296  0.00  0.00    +0.000 F 
ATOM      7  C   UNL     1       0.001  11.748  19.547  0.00  0.00    +0.000 A 
ATOM      8  C   UNL     1       0.985  10.807  19.138  0.00  0.00    +0.000 A 
ENDROOT
BRANCH   7   9
ATOM      9  C   UNL     1       0.300  12.834  20.604  0.00  0.00    +0.000 C 
ATOM     10  C   UNL     1      -0.166  14.240  20.200  0.00  0.00    +0.000 C 
ATOM     11  C   UNL     1       0.771  14.832  19.168  0.00  0.00    +0.000 C 
ATOM     12  O   UNL     1       2.137  14.764  19.629  0.00  0.00    +0.000 OA
ATOM     13  C   UNL     1       2.498  13.768  20.457  0.00  0.00    +0.000 C 
ATOM     14  N   UNL     1       3.813  13.819  20.725  0.00  0.00    +0.000 N 
ATOM     15  N   UNL     1       1.734  12.867  20.932  0.00  0.00    +0.000 NA
ATOM     16  H   UNL     1       4.385  14.558  20.351  0.00  0.00    +0.000 HD
ATOM     17  H   UNL     1       4.211  13.134  21.350  0.00  0.00    +0.000 HD
BRANCH  11  18
ATOM     18  C   UNL     1       0.389  16.287  18.851  0.00  0.00    +0.000 C 
ATOM     19  F   UNL     1       1.358  16.948  18.178  0.00  0.00    +0.000 F 
ATOM     20  F   UNL     1      -0.740  16.375  18.109  0.00  0.00    +0.000 F 
ATOM     21  F   UNL     1       0.164  16.977  19.996  0.00  0.00    +0.000 F 
ENDBRANCH  11  18
BRANCH   9  22
ATOM     22  C   UNL     1      -0.430  12.488  21.939  0.00  0.00    +0.000 C 
ATOM     23  F   UNL     1      -0.163  11.192  22.291  0.00  0.00    +0.000 F 
ENDBRANCH   9  22
ENDBRANCH   7   9
BRANCH   1  26
ATOM     24  C   UNL     1       2.260   7.859  18.661  0.00  0.00    +0.000 C 
ATOM     25  O   UNL     1       1.922   7.599  19.815  0.00  0.00    +0.000 OA
ATOM     26  N   UNL     1       1.700   8.853  17.857  0.00  0.00    +0.000 N 
ATOM     27  H   UNL     1       2.029   8.875  16.893  0.00  0.00    +0.000 HD
BRANCH  24  34
ATOM     28  C   UNL     1       2.005   4.825  18.130  0.00  0.00    +0.000 C 
ATOM     29  C   UNL     1       3.206   5.656  17.762  0.00  0.00    +0.000 A 
ATOM     30  C   UNL     1       4.282   5.005  17.135  0.00  0.00    +0.000 A 
ATOM     31  C   UNL     1       5.425   5.723  16.781  0.00  0.00    +0.000 A 
ATOM     32  C   UNL     1       5.461   7.077  17.065  0.00  0.00    +0.000 A 
ATOM     33  N   UNL     1       4.452   7.752  17.663  0.00  0.00    +0.000 NA
ATOM     34  C   UNL     1       3.338   7.034  18.007  0.00  0.00    +0.000 A 
BRANCH  31  35
ATOM     35  C   UNL     1       6.524   5.084  16.128  0.00  0.00    +0.000 C 
ATOM     36  N   UNL     1       7.418   4.578  15.588  0.00  0.00    +0.000 NA
ENDBRANCH  31  35
ENDBRANCH  24  34
ENDBRANCH   1  26
TORSDOF 6
ENDMDL
MODEL 9
REMARK VINA RESULT:      -7.6      5.277      9.588
REMARK  Name = 
REMARK  8 active torsions:
REMARK  status: ('A' for Active; 'I' for Inactive)
REMARK    1  A    between atoms: C_1  and  C_2
REMARK    2  A    between atoms: C_4  and  C_5
REMARK    3  A    between atoms: C_9  and  C_10
REMARK    4  A    between atoms: N_12  and  C_13
REMARK    5  A    between atoms: C_15  and  C_16
REMARK    6  A    between atoms: C_19  and  C_20
REMARK    7  A    between atoms: C_20  and  C_21
REMARK    8  A    between atoms: C_24  and  C_25
REMARK                            x       y       z     vdW  Elec       q    Type
REMARK                         _______ _______ _______ _____ _____    ______ ____
ROOT
ATOM      1  C   UNL     1       1.146   9.171  19.764  0.00  0.00    +0.000 A 
ATOM      2  C   UNL     1       0.912   9.003  21.128  0.00  0.00    +0.000 A 
ATOM      3  C   UNL     1      -0.030   9.778  21.807  0.00  0.00    +0.000 A 
ATOM      4  C   UNL     1      -0.205   9.603  23.285  0.00  0.00    +0.000 C 
ATOM      5  C   UNL     1      -0.745  10.750  21.101  0.00  0.00    +0.000 A 
ATOM      6  F   UNL     1      -1.673  11.457  21.762  0.00  0.00    +0.000 F 
ATOM      7  C   UNL     1      -0.497  11.017  19.744  0.00  0.00    +0.000 A 
ATOM      8  C   UNL     1       0.455  10.190  19.087  0.00  0.00    +0.000 A 
ENDROOT
BRANCH   7   9
ATOM      9  C   UNL     1      -1.182  12.201  19.027  0.00  0.00    +0.000 C 
ATOM     10  C   UNL     1      -2.559  12.564  19.601  0.00  0.00    +0.000 C 
ATOM     11  C   UNL     1      -3.599  11.555  19.160  0.00  0.00    +0.000 C 
ATOM     12  O   UNL     1      -3.572  11.396  17.725  0.00  0.00    +0.000 OA
ATOM     13  C   UNL     1      -2.413  11.584  17.070  0.00  0.00    +0.000 C 
ATOM     14  N   UNL     1      -2.555  11.326  15.760  0.00  0.00    +0.000 N 
ATOM     15  N   UNL     1      -1.304  11.941  17.584  0.00  0.00    +0.000 NA
ATOM     16  H   UNL     1      -3.452  11.068  15.382  0.00  0.00    +0.000 HD
ATOM     17  H   UNL     1      -1.761  11.446  15.149  0.00  0.00    +0.000 HD
BRANCH  11  18
ATOM     18  C   UNL     1      -5.003  11.977  19.622  0.00  0.00    +0.000 C 
ATOM     19  F   UNL     1      -5.939  11.030  19.383  0.00  0.00    +0.000 F 
ATOM     20  F   UNL     1      -5.050  12.256  20.945  0.00  0.00    +0.000 F 
ATOM     21  F   UNL     1      -5.399  13.096  18.967  0.00  0.00    +0.000 F 
ENDBRANCH  11  18
BRANCH   9  22
ATOM     22  C   UNL     1      -0.295  13.479  19.152  0.00  0.00    +0.000 C 
ATOM     23  F   UNL     1      -0.178  13.835  20.468  0.00  0.00    +0.000 F 
ENDBRANCH   9  22
ENDBRANCH   7   9
BRANCH   1  26
ATOM     24  C   UNL     1       2.379   7.031  19.355  0.00  0.00    +0.000 C 
ATOM     25  O   UNL     1       1.841   6.348  20.225  0.00  0.00    +0.000 OA
ATOM     26  N   UNL     1       2.079   8.365  19.071  0.00  0.00    +0.000 N 
ATOM     27  H   UNL     1       2.549   8.756  18.256  0.00  0.00    +0.000 HD
BRANCH  24  34
ATOM     28  C   UNL     1       3.312   4.098  19.626  0.00  0.00    +0.000 C 
ATOM     29  C   UNL     1       3.836   5.067  18.599  0.00  0.00    +0.000 A 
ATOM     30  C   UNL     1       4.818   4.603  17.706  0.00  0.00    +0.000 A 
ATOM     31  C   UNL     1       5.347   5.461  16.741  0.00  0.00    +0.000 A 
ATOM     32  C   UNL     1       4.881   6.762  16.696  0.00  0.00    +0.000 A 
ATOM     33  N   UNL     1       3.936   7.258  17.529  0.00  0.00    +0.000 NA
ATOM     34  C   UNL     1       3.428   6.406  18.473  0.00  0.00    +0.000 A 
BRANCH  31  35
ATOM     35  C   UNL     1       6.333   5.005  15.812  0.00  0.00    +0.000 C 
ATOM     36  N   UNL     1       7.123   4.624  15.052  0.00  0.00    +0.000 NA
ENDBRANCH  31  35
ENDBRANCH  24  34
ENDBRANCH   1  26
TORSDOF 6
ENDMDL
