MODEL 1
REMARK VINA RESULT:      -7.8      0.000      0.000
REMARK  Name = 
REMARK  8 active torsions:
REMARK  status: ('A' for Active; 'I' for Inactive)
REMARK    1  A    between atoms: C_1  and  C_2
REMARK    2  A    between atoms: C_2  and  C_3
REMARK    3  A    between atoms: C_2  and  C_4
REMARK    4  A    between atoms: N_12  and  C_13
REMARK    5  A    between atoms: C_13  and  C_14
REMARK    6  A    between atoms: C_14  and  C_16
REMARK    7  A    between atoms: C_21  and  S_22
REMARK    8  A    between atoms: S_22  and  N_23
REMARK                            x       y       z     vdW  Elec       q    Type
REMARK                         _______ _______ _______ _____ _____    ______ ____
ROOT
ATOM      1  C   UNL     1       2.146   7.964  18.802  0.00  0.00    +0.000 C 
ATOM      2  O   UNL     1       1.974   8.132  17.601  0.00  0.00    +0.000 OA
ENDROOT
BRANCH   1   3
ATOM      3  C   UNL     1       1.307   8.754  19.750  0.00  0.00    +0.000 A 
ATOM      4  C   UNL     1       1.160   8.291  21.065  0.00  0.00    +0.000 A 
ATOM      5  C   UNL     1       0.413   9.020  21.994  0.00  0.00    +0.000 A 
ATOM      6  C   UNL     1      -0.211  10.213  21.623  0.00  0.00    +0.000 A 
ATOM      7 CL   UNL     1      -1.047  11.073  22.864  0.00  0.00    +0.000 Cl
ATOM      8  C   UNL     1      -0.104  10.647  20.300  0.00  0.00    +0.000 A 
ATOM      9  C   UNL     1       0.647   9.924  19.360  0.00  0.00    +0.000 A 
BRANCH   8  10
ATOM     10  S   UNL     1      -0.880  12.145  19.760  0.00  0.00    +0.000 S 
ATOM     11  O   UNL     1      -2.311  11.959  19.834  0.00  0.00    +0.000 OA
ATOM     12  O   UNL     1      -0.221  13.257  20.401  0.00  0.00    +0.000 OA
BRANCH  10  13
ATOM     13  N   UNL     1      -0.486  12.135  18.152  0.00  0.00    +0.000 NA
ATOM     14  H   UNL     1      -1.162  12.475  17.477  0.00  0.00    +0.000 HD
ATOM     15  H   UNL     1       0.394  11.704  17.883  0.00  0.00    +0.000 HD
ENDBRANCH  10  13
ENDBRANCH   8  10
ENDBRANCH   1   3
BRANCH   1  16
ATOM     16  C   UNL     1       3.196   7.009  19.324  0.00  0.00    +0.000 C 
BRANCH  16  25
ATOM     17  C   UNL     1       4.033   5.389  17.572  0.00  0.00    +0.000 A 
ATOM     18  N   UNL     1       3.783   4.163  17.160  0.00  0.00    +0.000 NA
ATOM     19  C   UNL     1       2.792   3.681  17.965  0.00  0.00    +0.000 A 
ATOM     20  C   UNL     1       2.134   2.444  17.895  0.00  0.00    +0.000 A 
ATOM     21  C   UNL     1       1.133   2.157  18.825  0.00  0.00    +0.000 A 
ATOM     22  C   UNL     1       0.801   3.085  19.809  0.00  0.00    +0.000 A 
ATOM     23  C   UNL     1       1.443   4.331  19.889  0.00  0.00    +0.000 A 
ATOM     24  C   UNL     1       2.444   4.610  18.944  0.00  0.00    +0.000 A 
ATOM     25  N   UNL     1       3.256   5.700  18.683  0.00  0.00    +0.000 N 
BRANCH  17  27
ATOM     26  C   UNL     1       6.363   6.245  17.686  0.00  0.00    +0.000 C 
ATOM     27  C   UNL     1       5.045   6.298  16.919  0.00  0.00    +0.000 C 
ATOM     28  C   UNL     1       5.302   5.903  15.461  0.00  0.00    +0.000 C 
ENDBRANCH  17  27
ENDBRANCH  16  25
ENDBRANCH   1  16
TORSDOF 6
ENDMDL
MODEL 2
REMARK VINA RESULT:      -7.8      0.794      3.145
REMARK  Name = 
REMARK  8 active torsions:
REMARK  status: ('A' for Active; 'I' for Inactive)
REMARK    1  A    between atoms: C_1  and  C_2
REMARK    2  A    between atoms: C_2  and  C_3
REMARK    3  A    between atoms: C_2  and  C_4
REMARK    4  A    between atoms: N_12  and  C_13
REMARK    5  A    between atoms: C_13  and  C_14
REMARK    6  A    between atoms: C_14  and  C_16
REMARK    7  A    between atoms: C_21  and  S_22
REMARK    8  A    between atoms: S_22  and  N_23
REMARK                            x       y       z     vdW  Elec       q    Type
REMARK                         _______ _______ _______ _____ _____    ______ ____
ROOT
ATOM      1  C   UNL     1       1.882   8.065  19.053  0.00  0.00    +0.000 C 
ATOM      2  O   UNL     1       1.832   8.281  17.848  0.00  0.00    +0.000 OA
ENDROOT
BRANCH   1   3
ATOM      3  C   UNL     1       1.090   8.948  19.958  0.00  0.00    +0.000 A 
ATOM      4  C   UNL     1       1.003   8.615  21.317  0.00  0.00    +0.000 A 
ATOM      5  C   UNL     1       0.302   9.435  22.205  0.00  0.00    +0.000 A 
ATOM      6  C   UNL     1      -0.335  10.591  21.750  0.00  0.00    +0.000 A 
ATOM      7 CL   UNL     1      -1.110  11.572  22.940  0.00  0.00    +0.000 Cl
ATOM      8  C   UNL     1      -0.288  10.896  20.388  0.00  0.00    +0.000 A 
ATOM      9  C   UNL     1       0.416  10.081  19.489  0.00  0.00    +0.000 A 
BRANCH   8  10
ATOM     10  S   UNL     1      -1.084  12.341  19.743  0.00  0.00    +0.000 S 
ATOM     11  O   UNL     1      -2.510  12.171  19.895  0.00  0.00    +0.000 OA
ATOM     12  O   UNL     1      -0.397  13.504  20.248  0.00  0.00    +0.000 OA
BRANCH  10  13
ATOM     13  N   UNL     1      -0.758  12.178  18.128  0.00  0.00    +0.000 NA
ATOM     14  H   UNL     1      -1.299  12.716  17.459  0.00  0.00    +0.000 HD
ATOM     15  H   UNL     1      -0.080  11.474  17.850  0.00  0.00    +0.000 HD
ENDBRANCH  10  13
ENDBRANCH   8  10
ENDBRANCH   1   3
BRANCH   1  16
ATOM     16  C   UNL     1       2.739   6.958  19.624  0.00  0.00    +0.000 C 
BRANCH  16  25
ATOM     17  C   UNL     1       2.448   4.538  18.952  0.00  0.00    +0.000 A 
ATOM     18  N   UNL     1       2.938   3.692  18.068  0.00  0.00    +0.000 NA
ATOM     19  C   UNL     1       3.837   4.394  17.320  0.00  0.00    +0.000 A 
ATOM     20  C   UNL     1       4.667   3.930  16.289  0.00  0.00    +0.000 A 
ATOM     21  C   UNL     1       5.528   4.829  15.658  0.00  0.00    +0.000 A 
ATOM     22  C   UNL     1       5.554   6.168  16.044  0.00  0.00    +0.000 A 
ATOM     23  C   UNL     1       4.737   6.648  17.079  0.00  0.00    +0.000 A 
ATOM     24  C   UNL     1       3.879   5.732  17.710  0.00  0.00    +0.000 A 
ATOM     25  N   UNL     1       2.975   5.810  18.756  0.00  0.00    +0.000 N 
BRANCH  17  27
ATOM     26  C   UNL     1       0.682   2.902  19.567  0.00  0.00    +0.000 C 
ATOM     27  C   UNL     1       1.441   4.150  20.007  0.00  0.00    +0.000 C 
ATOM     28  C   UNL     1       2.113   3.874  21.356  0.00  0.00    +0.000 C 
ENDBRANCH  17  27
ENDBRANCH  16  25
ENDBRANCH   1  16
TORSDOF 6
ENDMDL
MODEL 3
REMARK VINA RESULT:      -7.7      2.123      4.144
REMARK  Name = 
REMARK  8 active torsions:
REMARK  status: ('A' for Active; 'I' for Inactive)
REMARK    1  A    between atoms: C_1  and  C_2
REMARK    2  A    between atoms: C_2  and  C_3
REMARK    3  A    between atoms: C_2  and  C_4
REMARK    4  A    between atoms: N_12  and  C_13
REMARK    5  A    between atoms: C_13  and  C_14
REMARK    6  A    between atoms: C_14  and  C_16
REMARK    7  A    between atoms: C_21  and  S_22
REMARK    8  A    between atoms: S_22  and  N_23
REMARK                            x       y       z     vdW  Elec       q    Type
REMARK                         _______ _______ _______ _____ _____    ______ ____
ROOT
ATOM      1  C   UNL     1       2.056   6.742  19.524  0.00  0.00    +0.000 C 
ATOM      2  O   UNL     1       1.952   6.265  20.647  0.00  0.00    +0.000 OA
ENDROOT
BRANCH   1   3
ATOM      3  C   UNL     1       1.757   8.193  19.346  0.00  0.00    +0.000 A 
ATOM      4  C   UNL     1       2.094   8.806  18.132  0.00  0.00    +0.000 A 
ATOM      5  C   UNL     1       1.800  10.155  17.911  0.00  0.00    +0.000 A 
ATOM      6  C   UNL     1       1.179  10.915  18.903  0.00  0.00    +0.000 A 
ATOM      7 CL   UNL     1       0.792  12.549  18.504  0.00  0.00    +0.000 Cl
ATOM      8  C   UNL     1       0.888  10.316  20.131  0.00  0.00    +0.000 A 
ATOM      9  C   UNL     1       1.177   8.962  20.361  0.00  0.00    +0.000 A 
BRANCH   8  10
ATOM     10  S   UNL     1       0.112  11.227  21.437  0.00  0.00    +0.000 S 
ATOM     11  O   UNL     1       0.909  12.403  21.697  0.00  0.00    +0.000 OA
ATOM     12  O   UNL     1      -1.301  11.311  21.157  0.00  0.00    +0.000 OA
BRANCH  10  13
ATOM     13  N   UNL     1       0.352  10.202  22.714  0.00  0.00    +0.000 NA
ATOM     14  H   UNL     1      -0.061   9.276  22.687  0.00  0.00    +0.000 HD
ATOM     15  H   UNL     1       0.837  10.566  23.529  0.00  0.00    +0.000 HD
ENDBRANCH  10  13
ENDBRANCH   8  10
ENDBRANCH   1   3
BRANCH   1  16
ATOM     16  C   UNL     1       2.444   5.892  18.335  0.00  0.00    +0.000 C 
BRANCH  16  25
ATOM     17  C   UNL     1       3.986   3.992  18.975  0.00  0.00    +0.000 A 
ATOM     18  N   UNL     1       5.276   3.729  18.990  0.00  0.00    +0.000 NA
ATOM     19  C   UNL     1       5.900   4.832  18.482  0.00  0.00    +0.000 A 
ATOM     20  C   UNL     1       7.275   5.071  18.344  0.00  0.00    +0.000 A 
ATOM     21  C   UNL     1       7.698   6.286  17.801  0.00  0.00    +0.000 A 
ATOM     22  C   UNL     1       6.765   7.239  17.397  0.00  0.00    +0.000 A 
ATOM     23  C   UNL     1       5.386   7.019  17.536  0.00  0.00    +0.000 A 
ATOM     24  C   UNL     1       4.973   5.796  18.089  0.00  0.00    +0.000 A 
ATOM     25  N   UNL     1       3.747   5.238  18.406  0.00  0.00    +0.000 N 
BRANCH  17  27
ATOM     26  C   UNL     1       2.982   1.734  18.708  0.00  0.00    +0.000 C 
ATOM     27  C   UNL     1       2.935   3.041  19.495  0.00  0.00    +0.000 C 
ATOM     28  C   UNL     1       3.137   2.733  20.982  0.00  0.00    +0.000 C 
ENDBRANCH  17  27
ENDBRANCH  16  25
ENDBRANCH   1  16
TORSDOF 6
ENDMDL
MODEL 4
REMARK VINA RESULT:      -7.7      1.949      2.250
REMARK  Name = 
REMARK  8 active torsions:
REMARK  status: ('A' for Active; 'I' for Inactive)
REMARK    1  A    between atoms: C_1  and  C_2
REMARK    2  A    between atoms: C_2  and  C_3
REMARK    3  A    between atoms: C_2  and  C_4
REMARK    4  A    between atoms: N_12  and  C_13
REMARK    5  A    between atoms: C_13  and  C_14
REMARK    6  A    between atoms: C_14  and  C_16
REMARK    7  A    between atoms: C_21  and  S_22
REMARK    8  A    between atoms: S_22  and  N_23
REMARK                            x       y       z     vdW  Elec       q    Type
REMARK                         _______ _______ _______ _____ _____    ______ ____
ROOT
ATOM      1  C   UNL     1       2.411   8.055  18.227  0.00  0.00    +0.000 C 
ATOM      2  O   UNL     1       2.562   8.162  17.017  0.00  0.00    +0.000 OA
ENDROOT
BRANCH   1   3
ATOM      3  C   UNL     1       1.431   8.961  18.895  0.00  0.00    +0.000 A 
ATOM      4  C   UNL     1       0.630   9.791  18.099  0.00  0.00    +0.000 A 
ATOM      5  C   UNL     1      -0.325  10.628  18.682  0.00  0.00    +0.000 A 
ATOM      6  C   UNL     1      -0.486  10.661  20.068  0.00  0.00    +0.000 A 
ATOM      7 CL   UNL     1      -1.742  11.673  20.683  0.00  0.00    +0.000 Cl
ATOM      8  C   UNL     1       0.346   9.870  20.864  0.00  0.00    +0.000 A 
ATOM      9  C   UNL     1       1.306   9.024  20.287  0.00  0.00    +0.000 A 
BRANCH   8  10
ATOM     10  S   UNL     1       0.203   9.873  22.630  0.00  0.00    +0.000 S 
ATOM     11  O   UNL     1       1.453   9.404  23.180  0.00  0.00    +0.000 OA
ATOM     12  O   UNL     1      -0.388  11.125  23.037  0.00  0.00    +0.000 OA
BRANCH  10  13
ATOM     13  N   UNL     1      -0.898   8.657  22.852  0.00  0.00    +0.000 NA
ATOM     14  H   UNL     1      -1.841   8.893  23.142  0.00  0.00    +0.000 HD
ATOM     15  H   UNL     1      -0.568   7.699  22.774  0.00  0.00    +0.000 HD
ENDBRANCH  10  13
ENDBRANCH   8  10
ENDBRANCH   1   3
BRANCH   1  16
ATOM     16  C   UNL     1       3.209   7.061  19.040  0.00  0.00    +0.000 C 
BRANCH  16  25
ATOM     17  C   UNL     1       4.123   5.316  17.454  0.00  0.00    +0.000 A 
ATOM     18  N   UNL     1       3.890   4.063  17.124  0.00  0.00    +0.000 NA
ATOM     19  C   UNL     1       2.862   3.640  17.916  0.00  0.00    +0.000 A 
ATOM     20  C   UNL     1       2.207   2.400  17.909  0.00  0.00    +0.000 A 
ATOM     21  C   UNL     1       1.164   2.181  18.811  0.00  0.00    +0.000 A 
ATOM     22  C   UNL     1       0.788   3.180  19.707  0.00  0.00    +0.000 A 
ATOM     23  C   UNL     1       1.427   4.429  19.723  0.00  0.00    +0.000 A 
ATOM     24  C   UNL     1       2.472   4.638  18.807  0.00  0.00    +0.000 A 
ATOM     25  N   UNL     1       3.296   5.708  18.502  0.00  0.00    +0.000 N 
BRANCH  17  27
ATOM     26  C   UNL     1       6.467   6.132  17.577  0.00  0.00    +0.000 C 
ATOM     27  C   UNL     1       5.165   6.176  16.781  0.00  0.00    +0.000 C 
ATOM     28  C   UNL     1       5.442   5.711  15.349  0.00  0.00    +0.000 C 
ENDBRANCH  17  27
ENDBRANCH  16  25
ENDBRANCH   1  16
TORSDOF 6
ENDMDL
MODEL 5
REMARK VINA RESULT:      -7.7      1.206      1.282
REMARK  Name = 
REMARK  8 active torsions:
REMARK  status: ('A' for Active; 'I' for Inactive)
REMARK    1  A    between atoms: C_1  and  C_2
REMARK    2  A    between atoms: C_2  and  C_3
REMARK    3  A    between atoms: C_2  and  C_4
REMARK    4  A    between atoms: N_12  and  C_13
REMARK    5  A    between atoms: C_13  and  C_14
REMARK    6  A    between atoms: C_14  and  C_16
REMARK    7  A    between atoms: C_21  and  S_22
REMARK    8  A    between atoms: S_22  and  N_23
REMARK                            x       y       z     vdW  Elec       q    Type
REMARK                         _______ _______ _______ _____ _____    ______ ____
ROOT
ATOM      1  C   UNL     1       2.414   7.778  18.262  0.00  0.00    +0.000 C 
ATOM      2  O   UNL     1       3.339   8.365  17.713  0.00  0.00    +0.000 OA
ENDROOT
BRANCH   1   3
ATOM      3  C   UNL     1       1.647   8.507  19.315  0.00  0.00    +0.000 A 
ATOM      4  C   UNL     1       1.590   7.962  20.605  0.00  0.00    +0.000 A 
ATOM      5  C   UNL     1       0.912   8.630  21.628  0.00  0.00    +0.000 A 
ATOM      6  C   UNL     1       0.269   9.843  21.378  0.00  0.00    +0.000 A 
ATOM      7 CL   UNL     1      -0.476  10.622  22.725  0.00  0.00    +0.000 Cl
ATOM      8  C   UNL     1       0.284  10.360  20.080  0.00  0.00    +0.000 A 
ATOM      9  C   UNL     1       0.965   9.699  19.047  0.00  0.00    +0.000 A 
BRANCH   8  10
ATOM     10  S   UNL     1      -0.522  11.889  19.691  0.00  0.00    +0.000 S 
ATOM     11  O   UNL     1      -1.944  11.698  19.854  0.00  0.00    +0.000 OA
ATOM     12  O   UNL     1       0.185  12.959  20.353  0.00  0.00    +0.000 OA
BRANCH  10  13
ATOM     13  N   UNL     1      -0.241  11.981  18.062  0.00  0.00    +0.000 NA
ATOM     14  H   UNL     1      -0.886  12.503  17.480  0.00  0.00    +0.000 HD
ATOM     15  H   UNL     1       0.527  11.434  17.683  0.00  0.00    +0.000 HD
ENDBRANCH  10  13
ENDBRANCH   8  10
ENDBRANCH   1   3
BRANCH   1  16
ATOM     16  C   UNL     1       2.068   6.348  17.917  0.00  0.00    +0.000 C 
BRANCH  16  25
ATOM     17  C   UNL     1       4.127   4.882  17.991  0.00  0.00    +0.000 A 
ATOM     18  N   UNL     1       4.590   3.863  18.687  0.00  0.00    +0.000 NA
ATOM     19  C   UNL     1       3.649   3.585  19.635  0.00  0.00    +0.000 A 
ATOM     20  C   UNL     1       3.644   2.552  20.584  0.00  0.00    +0.000 A 
ATOM     21  C   UNL     1       2.565   2.446  21.462  0.00  0.00    +0.000 A 
ATOM     22  C   UNL     1       1.513   3.358  21.398  0.00  0.00    +0.000 A 
ATOM     23  C   UNL     1       1.497   4.392  20.449  0.00  0.00    +0.000 A 
ATOM     24  C   UNL     1       2.587   4.485  19.568  0.00  0.00    +0.000 A 
ATOM     25  N   UNL     1       2.912   5.317  18.510  0.00  0.00    +0.000 N 
BRANCH  17  27
ATOM     26  C   UNL     1       6.130   6.168  17.278  0.00  0.00    +0.000 C 
ATOM     27  C   UNL     1       4.849   5.482  16.810  0.00  0.00    +0.000 C 
ATOM     28  C   UNL     1       5.208   4.419  15.766  0.00  0.00    +0.000 C 
ENDBRANCH  17  27
ENDBRANCH  16  25
ENDBRANCH   1  16
TORSDOF 6
ENDMDL
MODEL 6
REMARK VINA RESULT:      -7.7      2.067      2.493
REMARK  Name = 
REMARK  8 active torsions:
REMARK  status: ('A' for Active; 'I' for Inactive)
REMARK    1  A    between atoms: C_1  and  C_2
REMARK    2  A    between atoms: C_2  and  C_3
REMARK    3  A    between atoms: C_2  and  C_4
REMARK    4  A    between atoms: N_12  and  C_13
REMARK    5  A    between atoms: C_13  and  C_14
REMARK    6  A    between atoms: C_14  and  C_16
REMARK    7  A    between atoms: C_21  and  S_22
REMARK    8  A    between atoms: S_22  and  N_23
REMARK                            x       y       z     vdW  Elec       q    Type
REMARK                         _______ _______ _______ _____ _____    ______ ____
ROOT
ATOM      1  C   UNL     1       3.199   7.469  18.048  0.00  0.00    +0.000 C 
ATOM      2  O   UNL     1       3.573   7.576  16.887  0.00  0.00    +0.000 OA
ENDROOT
BRANCH   1   3
ATOM      3  C   UNL     1       2.104   8.367  18.519  0.00  0.00    +0.000 A 
ATOM      4  C   UNL     1       1.339   9.053  17.566  0.00  0.00    +0.000 A 
ATOM      5  C   UNL     1       0.282   9.876  17.963  0.00  0.00    +0.000 A 
ATOM      6  C   UNL     1      -0.020  10.039  19.316  0.00  0.00    +0.000 A 
ATOM      7 CL   UNL     1      -1.390  11.017  19.696  0.00  0.00    +0.000 Cl
ATOM      8  C   UNL     1       0.773   9.393  20.267  0.00  0.00    +0.000 A 
ATOM      9  C   UNL     1       1.835   8.562  19.878  0.00  0.00    +0.000 A 
BRANCH   8  10
ATOM     10  S   UNL     1       0.452   9.565  22.001  0.00  0.00    +0.000 S 
ATOM     11  O   UNL     1       0.352  10.975  22.299  0.00  0.00    +0.000 OA
ATOM     12  O   UNL     1      -0.585   8.633  22.368  0.00  0.00    +0.000 OA
BRANCH  10  13
ATOM     13  N   UNL     1       1.893   9.050  22.634  0.00  0.00    +0.000 NA
ATOM     14  H   UNL     1       2.067   8.054  22.716  0.00  0.00    +0.000 HD
ATOM     15  H   UNL     1       2.526   9.753  23.003  0.00  0.00    +0.000 HD
ENDBRANCH  10  13
ENDBRANCH   8  10
ENDBRANCH   1   3
BRANCH   1  16
ATOM     16  C   UNL     1       3.839   6.482  18.998  0.00  0.00    +0.000 C 
BRANCH  16  25
ATOM     17  C   UNL     1       4.446   4.358  17.767  0.00  0.00    +0.000 A 
ATOM     18  N   UNL     1       3.973   3.139  17.607  0.00  0.00    +0.000 NA
ATOM     19  C   UNL     1       2.843   3.062  18.368  0.00  0.00    +0.000 A 
ATOM     20  C   UNL     1       1.945   1.991  18.491  0.00  0.00    +0.000 A 
ATOM     21  C   UNL     1       0.837   2.132  19.329  0.00  0.00    +0.000 A 
ATOM     22  C   UNL     1       0.634   3.316  20.034  0.00  0.00    +0.000 A 
ATOM     23  C   UNL     1       1.518   4.400  19.916  0.00  0.00    +0.000 A 
ATOM     24  C   UNL     1       2.626   4.248  19.067  0.00  0.00    +0.000 A 
ATOM     25  N   UNL     1       3.669   5.070  18.675  0.00  0.00    +0.000 N 
BRANCH  17  27
ATOM     26  C   UNL     1       6.898   4.711  17.959  0.00  0.00    +0.000 C 
ATOM     27  C   UNL     1       5.676   4.875  17.061  0.00  0.00    +0.000 C 
ATOM     28  C   UNL     1       5.924   4.134  15.743  0.00  0.00    +0.000 C 
ENDBRANCH  17  27
ENDBRANCH  16  25
ENDBRANCH   1  16
TORSDOF 6
ENDMDL
MODEL 7
REMARK VINA RESULT:      -7.6      2.152      3.961
REMARK  Name = 
REMARK  8 active torsions:
REMARK  status: ('A' for Active; 'I' for Inactive)
REMARK    1  A    between atoms: C_1  and  C_2
REMARK    2  A    between atoms: C_2  and  C_3
REMARK    3  A    between atoms: C_2  and  C_4
REMARK    4  A    between atoms: N_12  and  C_13
REMARK    5  A    between atoms: C_13  and  C_14
REMARK    6  A    between atoms: C_14  and  C_16
REMARK    7  A    between atoms: C_21  and  S_22
REMARK    8  A    between atoms: S_22  and  N_23
REMARK                            x       y       z     vdW  Elec       q    Type
REMARK                         _______ _______ _______ _____ _____    ______ ____
ROOT
ATOM      1  C   UNL     1       2.322   6.289  19.937  0.00  0.00    +0.000 C 
ATOM      2  O   UNL     1       1.474   5.504  20.345  0.00  0.00    +0.000 OA
ENDROOT
BRANCH   1   3
ATOM      3  C   UNL     1       1.898   7.688  19.638  0.00  0.00    +0.000 A 
ATOM      4  C   UNL     1       2.052   8.173  18.332  0.00  0.00    +0.000 A 
ATOM      5  C   UNL     1       1.635   9.466  18.001  0.00  0.00    +0.000 A 
ATOM      6  C   UNL     1       1.072  10.298  18.970  0.00  0.00    +0.000 A 
ATOM      7 CL   UNL     1       0.522  11.846  18.441  0.00  0.00    +0.000 Cl
ATOM      8  C   UNL     1       0.964   9.831  20.282  0.00  0.00    +0.000 A 
ATOM      9  C   UNL     1       1.377   8.534  20.623  0.00  0.00    +0.000 A 
BRANCH   8  10
ATOM     10  S   UNL     1       0.270  10.840  21.562  0.00  0.00    +0.000 S 
ATOM     11  O   UNL     1       1.051  12.052  21.648  0.00  0.00    +0.000 OA
ATOM     12  O   UNL     1      -1.163  10.866  21.395  0.00  0.00    +0.000 OA
BRANCH  10  13
ATOM     13  N   UNL     1       0.644   9.941  22.901  0.00  0.00    +0.000 NA
ATOM     14  H   UNL     1       0.086   9.122  23.115  0.00  0.00    +0.000 HD
ATOM     15  H   UNL     1       1.372  10.290  23.517  0.00  0.00    +0.000 HD
ENDBRANCH  10  13
ENDBRANCH   8  10
ENDBRANCH   1   3
BRANCH   1  16
ATOM     16  C   UNL     1       3.753   5.860  19.710  0.00  0.00    +0.000 C 
BRANCH  16  25
ATOM     17  C   UNL     1       3.902   3.598  18.589  0.00  0.00    +0.000 A 
ATOM     18  N   UNL     1       4.288   3.090  17.436  0.00  0.00    +0.000 NA
ATOM     19  C   UNL     1       4.692   4.142  16.667  0.00  0.00    +0.000 A 
ATOM     20  C   UNL     1       5.245   4.121  15.378  0.00  0.00    +0.000 A 
ATOM     21  C   UNL     1       5.599   5.329  14.775  0.00  0.00    +0.000 A 
ATOM     22  C   UNL     1       5.398   6.535  15.443  0.00  0.00    +0.000 A 
ATOM     23  C   UNL     1       4.854   6.574  16.736  0.00  0.00    +0.000 A 
ATOM     24  C   UNL     1       4.507   5.352  17.335  0.00  0.00    +0.000 A 
ATOM     25  N   UNL     1       3.992   4.986  18.566  0.00  0.00    +0.000 N 
BRANCH  17  27
ATOM     26  C   UNL     1       2.192   1.953  19.326  0.00  0.00    +0.000 C 
ATOM     27  C   UNL     1       3.416   2.762  19.747  0.00  0.00    +0.000 C 
ATOM     28  C   UNL     1       4.500   1.801  20.245  0.00  0.00    +0.000 C 
ENDBRANCH  17  27
ENDBRANCH  16  25
ENDBRANCH   1  16
TORSDOF 6
ENDMDL
MODEL 8
REMARK VINA RESULT:      -7.6      2.242      4.195
REMARK  Name = 
REMARK  8 active torsions:
REMARK  status: ('A' for Active; 'I' for Inactive)
REMARK    1  A    between atoms: C_1  and  C_2
REMARK    2  A    between atoms: C_2  and  C_3
REMARK    3  A    between atoms: C_2  and  C_4
REMARK    4  A    between atoms: N_12  and  C_13
REMARK    5  A    between atoms: C_13  and  C_14
REMARK    6  A    between atoms: C_14  and  C_16
REMARK    7  A    between atoms: C_21  and  S_22
REMARK    8  A    between atoms: S_22  and  N_23
REMARK                            x       y       z     vdW  Elec       q    Type
REMARK                         _______ _______ _______ _____ _____    ______ ____
ROOT
ATOM      1  C   UNL     1       2.191   6.305  19.518  0.00  0.00    +0.000 C 
ATOM      2  O   UNL     1       2.023   5.805  20.623  0.00  0.00    +0.000 OA
ENDROOT
BRANCH   1   3
ATOM      3  C   UNL     1       1.839   7.744  19.336  0.00  0.00    +0.000 A 
ATOM      4  C   UNL     1       2.075   8.343  18.091  0.00  0.00    +0.000 A 
ATOM      5  C   UNL     1       1.727   9.678  17.868  0.00  0.00    +0.000 A 
ATOM      6  C   UNL     1       1.152  10.440  18.887  0.00  0.00    +0.000 A 
ATOM      7 CL   UNL     1       0.692  12.054  18.486  0.00  0.00    +0.000 Cl
ATOM      8  C   UNL     1       0.963   9.856  20.142  0.00  0.00    +0.000 A 
ATOM      9  C   UNL     1       1.306   8.516  20.374  0.00  0.00    +0.000 A 
BRANCH   8  10
ATOM     10  S   UNL     1       0.249  10.770  21.481  0.00  0.00    +0.000 S 
ATOM     11  O   UNL     1      -1.077  11.184  21.083  0.00  0.00    +0.000 OA
ATOM     12  O   UNL     1       0.486  10.045  22.705  0.00  0.00    +0.000 OA
BRANCH  10  13
ATOM     13  N   UNL     1       1.193  12.130  21.464  0.00  0.00    +0.000 NA
ATOM     14  H   UNL     1       2.119  12.081  21.053  0.00  0.00    +0.000 HD
ATOM     15  H   UNL     1       0.846  12.953  21.948  0.00  0.00    +0.000 HD
ENDBRANCH  10  13
ENDBRANCH   8  10
ENDBRANCH   1   3
BRANCH   1  16
ATOM     16  C   UNL     1       2.710   5.493  18.353  0.00  0.00    +0.000 C 
BRANCH  16  25
ATOM     17  C   UNL     1       4.550   3.893  19.024  0.00  0.00    +0.000 A 
ATOM     18  N   UNL     1       5.866   3.851  19.036  0.00  0.00    +0.000 NA
ATOM     19  C   UNL     1       6.294   5.032  18.502  0.00  0.00    +0.000 A 
ATOM     20  C   UNL     1       7.610   5.496  18.351  0.00  0.00    +0.000 A 
ATOM     21  C   UNL     1       7.821   6.752  17.781  0.00  0.00    +0.000 A 
ATOM     22  C   UNL     1       6.741   7.526  17.363  0.00  0.00    +0.000 A 
ATOM     23  C   UNL     1       5.419   7.081  17.514  0.00  0.00    +0.000 A 
ATOM     24  C   UNL     1       5.218   5.818  18.094  0.00  0.00    +0.000 A 
ATOM     25  N   UNL     1       4.103   5.069  18.430  0.00  0.00    +0.000 N 
BRANCH  17  27
ATOM     26  C   UNL     1       3.300   1.824  18.450  0.00  0.00    +0.000 C 
ATOM     27  C   UNL     1       3.675   2.791  19.569  0.00  0.00    +0.000 C 
ATOM     28  C   UNL     1       4.378   2.011  20.685  0.00  0.00    +0.000 C 
ENDBRANCH  17  27
ENDBRANCH  16  25
ENDBRANCH   1  16
TORSDOF 6
ENDMDL
MODEL 9
REMARK VINA RESULT:      -7.6      2.253      2.630
REMARK  Name = 
REMARK  8 active torsions:
REMARK  status: ('A' for Active; 'I' for Inactive)
REMARK    1  A    between atoms: C_1  and  C_2
REMARK    2  A    between atoms: C_2  and  C_3
REMARK    3  A    between atoms: C_2  and  C_4
REMARK    4  A    between atoms: N_12  and  C_13
REMARK    5  A    between atoms: C_13  and  C_14
REMARK    6  A    between atoms: C_14  and  C_16
REMARK    7  A    between atoms: C_21  and  S_22
REMARK    8  A    between atoms: S_22  and  N_23
REMARK                            x       y       z     vdW  Elec       q    Type
REMARK                         _______ _______ _______ _____ _____    ______ ____
ROOT
ATOM      1  C   UNL     1       2.681   7.659  18.075  0.00  0.00    +0.000 C 
ATOM      2  O   UNL     1       3.825   8.059  17.900  0.00  0.00    +0.000 OA
ENDROOT
BRANCH   1   3
ATOM      3  C   UNL     1       1.684   8.609  18.651  0.00  0.00    +0.000 A 
ATOM      4  C   UNL     1       0.941   9.416  17.778  0.00  0.00    +0.000 A 
ATOM      5  C   UNL     1      -0.027  10.294  18.274  0.00  0.00    +0.000 A 
ATOM      6  C   UNL     1      -0.259  10.390  19.647  0.00  0.00    +0.000 A 
ATOM      7 CL   UNL     1      -1.526  11.448  20.150  0.00  0.00    +0.000 Cl
ATOM      8  C   UNL     1       0.516   9.622  20.518  0.00  0.00    +0.000 A 
ATOM      9  C   UNL     1       1.489   8.736  20.030  0.00  0.00    +0.000 A 
BRANCH   8  10
ATOM     10  S   UNL     1       0.282   9.705  22.272  0.00  0.00    +0.000 S 
ATOM     11  O   UNL     1       0.141  11.095  22.639  0.00  0.00    +0.000 OA
ATOM     12  O   UNL     1      -0.697   8.714  22.649  0.00  0.00    +0.000 OA
BRANCH  10  13
ATOM     13  N   UNL     1       1.773   9.224  22.806  0.00  0.00    +0.000 NA
ATOM     14  H   UNL     1       2.594   9.733  22.498  0.00  0.00    +0.000 HD
ATOM     15  H   UNL     1       1.826   8.375  23.362  0.00  0.00    +0.000 HD
ENDBRANCH  10  13
ENDBRANCH   8  10
ENDBRANCH   1   3
BRANCH   1  16
ATOM     16  C   UNL     1       2.281   6.238  17.750  0.00  0.00    +0.000 C 
BRANCH  16  25
ATOM     17  C   UNL     1       4.233   4.633  17.854  0.00  0.00    +0.000 A 
ATOM     18  N   UNL     1       4.645   3.626  18.597  0.00  0.00    +0.000 NA
ATOM     19  C   UNL     1       3.719   3.473  19.587  0.00  0.00    +0.000 A 
ATOM     20  C   UNL     1       3.673   2.500  20.596  0.00  0.00    +0.000 A 
ATOM     21  C   UNL     1       2.618   2.524  21.510  0.00  0.00    +0.000 A 
ATOM     22  C   UNL     1       1.632   3.504  21.421  0.00  0.00    +0.000 A 
ATOM     23  C   UNL     1       1.658   4.480  20.412  0.00  0.00    +0.000 A 
ATOM     24  C   UNL     1       2.722   4.442  19.496  0.00  0.00    +0.000 A 
ATOM     25  N   UNL     1       3.070   5.184  18.381  0.00  0.00    +0.000 N 
BRANCH  17  27
ATOM     26  C   UNL     1       6.198   5.902  17.017  0.00  0.00    +0.000 C 
ATOM     27  C   UNL     1       4.956   5.109  16.618  0.00  0.00    +0.000 C 
ATOM     28  C   UNL     1       5.380   3.939  15.725  0.00  0.00    +0.000 C 
ENDBRANCH  17  27
ENDBRANCH  16  25
ENDBRANCH   1  16
TORSDOF 6
ENDMDL
