MODEL 1
REMARK VINA RESULT:      -8.9      0.000      0.000
REMARK  Name = 
REMARK  4 active torsions:
REMARK  status: ('A' for Active; 'I' for Inactive)
REMARK    1  A    between atoms: C_2  and  C_4
REMARK    2  A    between atoms: C_5  and  N_6
REMARK    3  A    between atoms: C_7  and  C_9
REMARK    4  A    between atoms: C_11  and  C_12
REMARK                            x       y       z     vdW  Elec       q    Type
REMARK                         _______ _______ _______ _____ _____    ______ ____
ROOT
ATOM      1  N   UNL     1       0.289  10.718  19.394  0.00  0.00    +0.000 N 
ATOM      2  C   UNL     1       0.593  11.687  20.350  0.00  0.00    +0.000 C 
ATOM      3  O   UNL     1       1.594  11.672  21.064  0.00  0.00    +0.000 OA
ATOM      4  H   UNL     1      -0.238  10.998  18.573  0.00  0.00    +0.000 HD
ENDROOT
BRANCH   1   6
ATOM      5  C   UNL     1       1.245   8.528  20.227  0.00  0.00    +0.000 A 
ATOM      6  C   UNL     1       1.047   9.549  19.310  0.00  0.00    +0.000 A 
ATOM      7  S   UNL     1       2.040   9.389  17.943  0.00  0.00    +0.000 S 
ATOM      8  C   UNL     1       2.654   7.868  18.438  0.00  0.00    +0.000 A 
ATOM      9  C   UNL     1       2.092   7.468  19.649  0.00  0.00    +0.000 A 
ATOM     10  C   UNL     1       2.305   6.112  20.283  0.00  0.00    +0.000 C 
ATOM     11  C   UNL     1       1.585   4.967  19.559  0.00  0.00    +0.000 C 
ATOM     12  C   UNL     1       1.792   4.845  18.049  0.00  0.00    +0.000 C 
ATOM     13  C   UNL     1       3.239   4.673  17.595  0.00  0.00    +0.000 C 
ATOM     14  C   UNL     1       4.193   5.849  17.825  0.00  0.00    +0.000 C 
ATOM     15  C   UNL     1       3.634   7.225  17.478  0.00  0.00    +0.000 C 
BRANCH   5  17
ATOM     16  N   UNL     1       1.388   8.935  22.598  0.00  0.00    +0.000 N 
ATOM     17  C   UNL     1       0.624   8.480  21.557  0.00  0.00    +0.000 C 
ATOM     18  O   UNL     1      -0.513   8.081  21.771  0.00  0.00    +0.000 OA
ATOM     19  H   UNL     1       0.874   9.063  23.463  0.00  0.00    +0.000 HD
ATOM     20  H   UNL     1       2.140   9.581  22.410  0.00  0.00    +0.000 HD
ENDBRANCH   5  17
ENDBRANCH   1   6
BRANCH   2  21
ATOM     21  C   UNL     1      -0.260  12.908  20.419  0.00  0.00    +0.000 A 
ATOM     22  C   UNL     1      -1.514  12.725  21.027  0.00  0.00    +0.000 A 
ATOM     23  C   UNL     1      -2.413  13.776  21.087  0.00  0.00    +0.000 A 
ATOM     24  N   UNL     1      -2.090  14.989  20.585  0.00  0.00    +0.000 NA
ATOM     25  C   UNL     1      -0.903  15.176  19.985  0.00  0.00    +0.000 A 
ATOM     26  C   UNL     1      -0.650  16.434  19.463  0.00  0.00    +0.000 A 
ATOM     27  C   UNL     1       0.529  16.729  18.780  0.00  0.00    +0.000 A 
ATOM     28  C   UNL     1       1.477  15.737  18.598  0.00  0.00    +0.000 A 
ATOM     29  C   UNL     1       1.249  14.459  19.115  0.00  0.00    +0.000 A 
ATOM     30  C   UNL     1       0.068  14.159  19.844  0.00  0.00    +0.000 A 
BRANCH  23  31
ATOM     31  C   UNL     1      -3.767  13.660  21.674  0.00  0.00    +0.000 A 
ATOM     32  C   UNL     1      -4.222  14.596  22.644  0.00  0.00    +0.000 A 
ATOM     33  C   UNL     1      -5.496  14.514  23.223  0.00  0.00    +0.000 A 
ATOM     34  C   UNL     1      -6.308  13.475  22.830  0.00  0.00    +0.000 A 
ATOM     35  C   UNL     1      -5.894  12.557  21.898  0.00  0.00    +0.000 A 
ATOM     36  C   UNL     1      -4.647  12.623  21.305  0.00  0.00    +0.000 A 
ATOM     37  O   UNL     1      -6.836  11.606  21.652  0.00  0.00    +0.000 OA
ATOM     38  C   UNL     1      -7.871  12.007  22.576  0.00  0.00    +0.000 C 
ATOM     39  O   UNL     1      -7.562  13.221  23.290  0.00  0.00    +0.000 OA
ENDBRANCH  23  31
ENDBRANCH   2  21
TORSDOF 4
ENDMDL
MODEL 2
REMARK VINA RESULT:      -8.8      3.945     11.254
REMARK  Name = 
REMARK  4 active torsions:
REMARK  status: ('A' for Active; 'I' for Inactive)
REMARK    1  A    between atoms: C_2  and  C_4
REMARK    2  A    between atoms: C_5  and  N_6
REMARK    3  A    between atoms: C_7  and  C_9
REMARK    4  A    between atoms: C_11  and  C_12
REMARK                            x       y       z     vdW  Elec       q    Type
REMARK                         _______ _______ _______ _____ _____    ______ ____
ROOT
ATOM      1  N   UNL     1       1.955   8.344  19.916  0.00  0.00    +0.000 N 
ATOM      2  C   UNL     1       1.993   7.667  18.697  0.00  0.00    +0.000 C 
ATOM      3  O   UNL     1       1.515   8.091  17.647  0.00  0.00    +0.000 OA
ATOM      4  H   UNL     1       2.711   8.195  20.575  0.00  0.00    +0.000 HD
ENDROOT
BRANCH   1   6
ATOM      5  C   UNL     1       0.152   9.817  20.907  0.00  0.00    +0.000 A 
ATOM      6  C   UNL     1       1.198   9.509  20.050  0.00  0.00    +0.000 A 
ATOM      7  S   UNL     1       1.451  10.715  18.883  0.00  0.00    +0.000 S 
ATOM      8  C   UNL     1       0.290  11.770  19.570  0.00  0.00    +0.000 A 
ATOM      9  C   UNL     1      -0.290  11.210  20.707  0.00  0.00    +0.000 A 
ATOM     10  C   UNL     1      -1.238  11.940  21.630  0.00  0.00    +0.000 C 
ATOM     11  C   UNL     1      -0.561  13.014  22.494  0.00  0.00    +0.000 C 
ATOM     12  C   UNL     1       0.324  14.038  21.782  0.00  0.00    +0.000 C 
ATOM     13  C   UNL     1      -0.365  14.862  20.698  0.00  0.00    +0.000 C 
ATOM     14  C   UNL     1      -0.842  14.120  19.447  0.00  0.00    +0.000 C 
ATOM     15  C   UNL     1       0.139  13.106  18.871  0.00  0.00    +0.000 C 
BRANCH   5  17
ATOM     16  N   UNL     1      -0.406   9.378  23.210  0.00  0.00    +0.000 N 
ATOM     17  C   UNL     1      -0.378   8.903  21.926  0.00  0.00    +0.000 C 
ATOM     18  O   UNL     1      -0.799   7.778  21.689  0.00  0.00    +0.000 OA
ATOM     19  H   UNL     1      -0.942   8.805  23.852  0.00  0.00    +0.000 HD
ATOM     20  H   UNL     1      -0.418  10.375  23.365  0.00  0.00    +0.000 HD
ENDBRANCH   5  17
ENDBRANCH   1   6
BRANCH   2  21
ATOM     21  C   UNL     1       2.796   6.413  18.608  0.00  0.00    +0.000 A 
ATOM     22  C   UNL     1       3.666   6.339  17.506  0.00  0.00    +0.000 A 
ATOM     23  C   UNL     1       4.409   5.192  17.290  0.00  0.00    +0.000 A 
ATOM     24  N   UNL     1       4.328   4.146  18.141  0.00  0.00    +0.000 NA
ATOM     25  C   UNL     1       3.489   4.193  19.189  0.00  0.00    +0.000 A 
ATOM     26  C   UNL     1       3.430   3.073  20.002  0.00  0.00    +0.000 A 
ATOM     27  C   UNL     1       2.563   2.993  21.091  0.00  0.00    +0.000 A 
ATOM     28  C   UNL     1       1.718   4.055  21.368  0.00  0.00    +0.000 A 
ATOM     29  C   UNL     1       1.758   5.197  20.565  0.00  0.00    +0.000 A 
ATOM     30  C   UNL     1       2.664   5.303  19.476  0.00  0.00    +0.000 A 
BRANCH  23  31
ATOM     31  C   UNL     1       5.319   5.015  16.135  0.00  0.00    +0.000 A 
ATOM     32  C   UNL     1       6.621   5.590  16.139  0.00  0.00    +0.000 A 
ATOM     33  C   UNL     1       7.506   5.445  15.061  0.00  0.00    +0.000 A 
ATOM     34  C   UNL     1       7.069   4.729  13.971  0.00  0.00    +0.000 A 
ATOM     35  C   UNL     1       5.819   4.166  13.939  0.00  0.00    +0.000 A 
ATOM     36  C   UNL     1       4.932   4.285  14.993  0.00  0.00    +0.000 A 
ATOM     37  O   UNL     1       5.575   3.507  12.773  0.00  0.00    +0.000 OA
ATOM     38  C   UNL     1       6.802   3.765  12.057  0.00  0.00    +0.000 C 
ATOM     39  O   UNL     1       7.774   4.498  12.832  0.00  0.00    +0.000 OA
ENDBRANCH  23  31
ENDBRANCH   2  21
TORSDOF 4
ENDMDL
MODEL 3
REMARK VINA RESULT:      -8.8      0.643      1.033
REMARK  Name = 
REMARK  4 active torsions:
REMARK  status: ('A' for Active; 'I' for Inactive)
REMARK    1  A    between atoms: C_2  and  C_4
REMARK    2  A    between atoms: C_5  and  N_6
REMARK    3  A    between atoms: C_7  and  C_9
REMARK    4  A    between atoms: C_11  and  C_12
REMARK                            x       y       z     vdW  Elec       q    Type
REMARK                         _______ _______ _______ _____ _____    ______ ____
ROOT
ATOM      1  N   UNL     1       0.263  10.527  19.297  0.00  0.00    +0.000 N 
ATOM      2  C   UNL     1       0.544  11.524  20.230  0.00  0.00    +0.000 C 
ATOM      3  O   UNL     1       1.558  11.564  20.924  0.00  0.00    +0.000 OA
ATOM      4  H   UNL     1      -0.292  10.770  18.483  0.00  0.00    +0.000 HD
ENDROOT
BRANCH   1   6
ATOM      5  C   UNL     1       1.324   8.392  20.143  0.00  0.00    +0.000 A 
ATOM      6  C   UNL     1       1.069   9.391  19.216  0.00  0.00    +0.000 A 
ATOM      7  S   UNL     1       2.048   9.255  17.836  0.00  0.00    +0.000 S 
ATOM      8  C   UNL     1       2.734   7.769  18.341  0.00  0.00    +0.000 A 
ATOM      9  C   UNL     1       2.207   7.361  19.565  0.00  0.00    +0.000 A 
ATOM     10  C   UNL     1       2.488   6.024  20.213  0.00  0.00    +0.000 C 
ATOM     11  C   UNL     1       1.807   4.840  19.514  0.00  0.00    +0.000 C 
ATOM     12  C   UNL     1       1.997   4.707  18.003  0.00  0.00    +0.000 C 
ATOM     13  C   UNL     1       3.443   4.591  17.529  0.00  0.00    +0.000 C 
ATOM     14  C   UNL     1       4.349   5.810  17.729  0.00  0.00    +0.000 C 
ATOM     15  C   UNL     1       3.726   7.155  17.374  0.00  0.00    +0.000 C 
BRANCH   5  17
ATOM     16  N   UNL     1       1.455   8.897  22.495  0.00  0.00    +0.000 N 
ATOM     17  C   UNL     1       0.725   8.335  21.482  0.00  0.00    +0.000 C 
ATOM     18  O   UNL     1      -0.366   7.839  21.727  0.00  0.00    +0.000 OA
ATOM     19  H   UNL     1       0.941   9.009  23.363  0.00  0.00    +0.000 HD
ATOM     20  H   UNL     1       2.141   9.604  22.274  0.00  0.00    +0.000 HD
ENDBRANCH   5  17
ENDBRANCH   1   6
BRANCH   2  21
ATOM     21  C   UNL     1      -0.361  12.709  20.297  0.00  0.00    +0.000 A 
ATOM     22  C   UNL     1      -1.664  12.439  20.750  0.00  0.00    +0.000 A 
ATOM     23  C   UNL     1      -2.605  13.452  20.789  0.00  0.00    +0.000 A 
ATOM     24  N   UNL     1      -2.279  14.711  20.418  0.00  0.00    +0.000 NA
ATOM     25  C   UNL     1      -1.044  14.982  19.967  0.00  0.00    +0.000 A 
ATOM     26  C   UNL     1      -0.788  16.285  19.572  0.00  0.00    +0.000 A 
ATOM     27  C   UNL     1       0.445  16.671  19.046  0.00  0.00    +0.000 A 
ATOM     28  C   UNL     1       1.446  15.726  18.895  0.00  0.00    +0.000 A 
ATOM     29  C   UNL     1       1.215  14.405  19.286  0.00  0.00    +0.000 A 
ATOM     30  C   UNL     1      -0.024  14.010  19.858  0.00  0.00    +0.000 A 
BRANCH  23  31
ATOM     31  C   UNL     1      -4.008  13.248  21.215  0.00  0.00    +0.000 A 
ATOM     32  C   UNL     1      -5.037  13.043  20.254  0.00  0.00    +0.000 A 
ATOM     33  C   UNL     1      -6.377  12.851  20.621  0.00  0.00    +0.000 A 
ATOM     34  C   UNL     1      -6.679  12.877  21.963  0.00  0.00    +0.000 A 
ATOM     35  C   UNL     1      -5.707  13.074  22.911  0.00  0.00    +0.000 A 
ATOM     36  C   UNL     1      -4.378  13.256  22.574  0.00  0.00    +0.000 A 
ATOM     37  O   UNL     1      -6.208  13.075  24.176  0.00  0.00    +0.000 OA
ATOM     38  C   UNL     1      -7.616  12.905  23.908  0.00  0.00    +0.000 C 
ATOM     39  O   UNL     1      -7.915  12.728  22.508  0.00  0.00    +0.000 OA
ENDBRANCH  23  31
ENDBRANCH   2  21
TORSDOF 4
ENDMDL
MODEL 4
REMARK VINA RESULT:      -8.3      4.123     11.430
REMARK  Name = 
REMARK  4 active torsions:
REMARK  status: ('A' for Active; 'I' for Inactive)
REMARK    1  A    between atoms: C_2  and  C_4
REMARK    2  A    between atoms: C_5  and  N_6
REMARK    3  A    between atoms: C_7  and  C_9
REMARK    4  A    between atoms: C_11  and  C_12
REMARK                            x       y       z     vdW  Elec       q    Type
REMARK                         _______ _______ _______ _____ _____    ______ ____
ROOT
ATOM      1  N   UNL     1       2.116   8.217  19.800  0.00  0.00    +0.000 N 
ATOM      2  C   UNL     1       1.870   7.307  18.772  0.00  0.00    +0.000 C 
ATOM      3  O   UNL     1       1.061   7.483  17.863  0.00  0.00    +0.000 OA
ATOM      4  H   UNL     1       3.044   8.244  20.209  0.00  0.00    +0.000 HD
ENDROOT
BRANCH   1   6
ATOM      5  C   UNL     1       1.251  10.523  19.217  0.00  0.00    +0.000 A 
ATOM      6  C   UNL     1       1.309   9.346  19.949  0.00  0.00    +0.000 A 
ATOM      7  S   UNL     1       0.340   9.404  21.340  0.00  0.00    +0.000 S 
ATOM      8  C   UNL     1      -0.324  10.932  20.941  0.00  0.00    +0.000 A 
ATOM      9  C   UNL     1       0.184  11.401  19.732  0.00  0.00    +0.000 A 
ATOM     10  C   UNL     1      -0.307  12.644  19.024  0.00  0.00    +0.000 C 
ATOM     11  C   UNL     1      -1.697  12.490  18.391  0.00  0.00    +0.000 C 
ATOM     12  C   UNL     1      -2.820  11.949  19.276  0.00  0.00    +0.000 C 
ATOM     13  C   UNL     1      -3.112  12.757  20.538  0.00  0.00    +0.000 C 
ATOM     14  C   UNL     1      -2.023  12.798  21.614  0.00  0.00    +0.000 C 
ATOM     15  C   UNL     1      -1.352  11.464  21.920  0.00  0.00    +0.000 C 
BRANCH   5  17
ATOM     16  N   UNL     1       2.477  12.110  17.881  0.00  0.00    +0.000 N 
ATOM     17  C   UNL     1       2.085  10.808  18.043  0.00  0.00    +0.000 C 
ATOM     18  O   UNL     1       2.450   9.963  17.237  0.00  0.00    +0.000 OA
ATOM     19  H   UNL     1       3.195  12.242  17.177  0.00  0.00    +0.000 HD
ATOM     20  H   UNL     1       2.504  12.719  18.685  0.00  0.00    +0.000 HD
ENDBRANCH   5  17
ENDBRANCH   1   6
BRANCH   2  21
ATOM     21  C   UNL     1       2.743   6.102  18.668  0.00  0.00    +0.000 A 
ATOM     22  C   UNL     1       3.597   6.080  17.550  0.00  0.00    +0.000 A 
ATOM     23  C   UNL     1       4.403   4.980  17.320  0.00  0.00    +0.000 A 
ATOM     24  N   UNL     1       4.398   3.930  18.171  0.00  0.00    +0.000 NA
ATOM     25  C   UNL     1       3.576   3.927  19.233  0.00  0.00    +0.000 A 
ATOM     26  C   UNL     1       3.597   2.805  20.046  0.00  0.00    +0.000 A 
ATOM     27  C   UNL     1       2.755   2.674  21.150  0.00  0.00    +0.000 A 
ATOM     28  C   UNL     1       1.854   3.684  21.443  0.00  0.00    +0.000 A 
ATOM     29  C   UNL     1       1.812   4.827  20.640  0.00  0.00    +0.000 A 
ATOM     30  C   UNL     1       2.692   4.987  19.536  0.00  0.00    +0.000 A 
BRANCH  23  31
ATOM     31  C   UNL     1       5.302   4.857  16.149  0.00  0.00    +0.000 A 
ATOM     32  C   UNL     1       6.587   5.466  16.152  0.00  0.00    +0.000 A 
ATOM     33  C   UNL     1       7.461   5.373  15.060  0.00  0.00    +0.000 A 
ATOM     34  C   UNL     1       7.030   4.674  13.957  0.00  0.00    +0.000 A 
ATOM     35  C   UNL     1       5.794   4.078  13.926  0.00  0.00    +0.000 A 
ATOM     36  C   UNL     1       4.919   4.146  14.994  0.00  0.00    +0.000 A 
ATOM     37  O   UNL     1       5.553   3.444  12.747  0.00  0.00    +0.000 OA
ATOM     38  C   UNL     1       6.762   3.753  12.022  0.00  0.00    +0.000 C 
ATOM     39  O   UNL     1       7.725   4.491  12.803  0.00  0.00    +0.000 OA
ENDBRANCH  23  31
ENDBRANCH   2  21
TORSDOF 4
ENDMDL
MODEL 5
REMARK VINA RESULT:      -8.3      2.639      9.250
REMARK  Name = 
REMARK  4 active torsions:
REMARK  status: ('A' for Active; 'I' for Inactive)
REMARK    1  A    between atoms: C_2  and  C_4
REMARK    2  A    between atoms: C_5  and  N_6
REMARK    3  A    between atoms: C_7  and  C_9
REMARK    4  A    between atoms: C_11  and  C_12
REMARK                            x       y       z     vdW  Elec       q    Type
REMARK                         _______ _______ _______ _____ _____    ______ ____
ROOT
ATOM      1  N   UNL     1      -2.637  12.991  19.807  0.00  0.00    +0.000 N 
ATOM      2  C   UNL     1      -1.625  12.318  20.490  0.00  0.00    +0.000 C 
ATOM      3  O   UNL     1      -1.755  11.803  21.599  0.00  0.00    +0.000 OA
ATOM      4  H   UNL     1      -2.629  12.975  18.792  0.00  0.00    +0.000 HD
ENDROOT
BRANCH   1   6
ATOM      5  C   UNL     1      -5.148  12.912  20.115  0.00  0.00    +0.000 A 
ATOM      6  C   UNL     1      -3.849  13.272  20.441  0.00  0.00    +0.000 A 
ATOM      7  S   UNL     1      -3.789  14.371  21.732  0.00  0.00    +0.000 S 
ATOM      8  C   UNL     1      -5.476  14.286  22.019  0.00  0.00    +0.000 A 
ATOM      9  C   UNL     1      -6.093  13.404  21.134  0.00  0.00    +0.000 A 
ATOM     10  C   UNL     1      -7.545  12.988  21.216  0.00  0.00    +0.000 C 
ATOM     11  C   UNL     1      -7.856  12.046  22.387  0.00  0.00    +0.000 C 
ATOM     12  C   UNL     1      -7.382  12.468  23.778  0.00  0.00    +0.000 C 
ATOM     13  C   UNL     1      -7.914  13.809  24.276  0.00  0.00    +0.000 C 
ATOM     14  C   UNL     1      -7.459  15.066  23.529  0.00  0.00    +0.000 C 
ATOM     15  C   UNL     1      -5.976  15.122  23.181  0.00  0.00    +0.000 C 
BRANCH   5  17
ATOM     16  N   UNL     1      -5.609  12.732  17.757  0.00  0.00    +0.000 N 
ATOM     17  C   UNL     1      -5.510  12.083  18.958  0.00  0.00    +0.000 C 
ATOM     18  O   UNL     1      -5.706  10.876  19.011  0.00  0.00    +0.000 OA
ATOM     19  H   UNL     1      -5.675  12.113  16.956  0.00  0.00    +0.000 HD
ATOM     20  H   UNL     1      -5.113  13.601  17.625  0.00  0.00    +0.000 HD
ENDBRANCH   5  17
ENDBRANCH   1   6
BRANCH   2  21
ATOM     21  C   UNL     1      -0.339  12.062  19.780  0.00  0.00    +0.000 A 
ATOM     22  C   UNL     1       0.054  10.713  19.725  0.00  0.00    +0.000 A 
ATOM     23  C   UNL     1       1.263  10.369  19.147  0.00  0.00    +0.000 A 
ATOM     24  N   UNL     1       2.066  11.315  18.611  0.00  0.00    +0.000 NA
ATOM     25  C   UNL     1       1.714  12.610  18.671  0.00  0.00    +0.000 A 
ATOM     26  C   UNL     1       2.599  13.530  18.132  0.00  0.00    +0.000 A 
ATOM     27  C   UNL     1       2.358  14.903  18.178  0.00  0.00    +0.000 A 
ATOM     28  C   UNL     1       1.210  15.373  18.793  0.00  0.00    +0.000 A 
ATOM     29  C   UNL     1       0.300  14.467  19.344  0.00  0.00    +0.000 A 
ATOM     30  C   UNL     1       0.517  13.065  19.269  0.00  0.00    +0.000 A 
BRANCH  23  31
ATOM     31  C   UNL     1       1.771   8.979  19.081  0.00  0.00    +0.000 A 
ATOM     32  C   UNL     1       1.514   8.061  20.137  0.00  0.00    +0.000 A 
ATOM     33  C   UNL     1       1.983   6.739  20.108  0.00  0.00    +0.000 A 
ATOM     34  C   UNL     1       2.724   6.350  19.017  0.00  0.00    +0.000 A 
ATOM     35  C   UNL     1       2.988   7.216  17.986  0.00  0.00    +0.000 A 
ATOM     36  C   UNL     1       2.528   8.519  17.985  0.00  0.00    +0.000 A 
ATOM     37  O   UNL     1       3.742   6.644  17.008  0.00  0.00    +0.000 OA
ATOM     38  C   UNL     1       3.961   5.332  17.568  0.00  0.00    +0.000 C 
ATOM     39  O   UNL     1       3.275   5.123  18.821  0.00  0.00    +0.000 OA
ENDBRANCH  23  31
ENDBRANCH   2  21
TORSDOF 4
ENDMDL
MODEL 6
REMARK VINA RESULT:      -8.3      2.844      3.894
REMARK  Name = 
REMARK  4 active torsions:
REMARK  status: ('A' for Active; 'I' for Inactive)
REMARK    1  A    between atoms: C_2  and  C_4
REMARK    2  A    between atoms: C_5  and  N_6
REMARK    3  A    between atoms: C_7  and  C_9
REMARK    4  A    between atoms: C_11  and  C_12
REMARK                            x       y       z     vdW  Elec       q    Type
REMARK                         _______ _______ _______ _____ _____    ______ ____
ROOT
ATOM      1  N   UNL     1       0.770   8.704  18.514  0.00  0.00    +0.000 N 
ATOM      2  C   UNL     1       0.753   9.846  19.314  0.00  0.00    +0.000 C 
ATOM      3  O   UNL     1       1.738  10.318  19.878  0.00  0.00    +0.000 OA
ATOM      4  H   UNL     1       0.104   8.638  17.752  0.00  0.00    +0.000 HD
ENDROOT
BRANCH   1   6
ATOM      5  C   UNL     1       2.411   6.950  19.311  0.00  0.00    +0.000 A 
ATOM      6  C   UNL     1       1.917   7.911  18.442  0.00  0.00    +0.000 A 
ATOM      7  S   UNL     1       3.004   8.266  17.188  0.00  0.00    +0.000 S 
ATOM      8  C   UNL     1       4.104   7.038  17.654  0.00  0.00    +0.000 A 
ATOM      9  C   UNL     1       3.638   6.340  18.766  0.00  0.00    +0.000 A 
ATOM     10  C   UNL     1       4.295   5.103  19.335  0.00  0.00    +0.000 C 
ATOM     11  C   UNL     1       4.121   3.851  18.465  0.00  0.00    +0.000 C 
ATOM     12  C   UNL     1       4.480   3.965  16.983  0.00  0.00    +0.000 C 
ATOM     13  C   UNL     1       5.916   4.385  16.684  0.00  0.00    +0.000 C 
ATOM     14  C   UNL     1       6.334   5.801  17.092  0.00  0.00    +0.000 C 
ATOM     15  C   UNL     1       5.328   6.900  16.771  0.00  0.00    +0.000 C 
BRANCH   5  17
ATOM     16  N   UNL     1       1.665   7.497  21.536  0.00  0.00    +0.000 N 
ATOM     17  C   UNL     1       1.749   6.544  20.557  0.00  0.00    +0.000 C 
ATOM     18  O   UNL     1       1.268   5.435  20.751  0.00  0.00    +0.000 OA
ATOM     19  H   UNL     1       1.048   7.251  22.302  0.00  0.00    +0.000 HD
ATOM     20  H   UNL     1       1.713   8.472  21.279  0.00  0.00    +0.000 HD
ENDBRANCH   5  17
ENDBRANCH   1   6
BRANCH   2  21
ATOM     21  C   UNL     1      -0.504  10.647  19.378  0.00  0.00    +0.000 A 
ATOM     22  C   UNL     1      -0.699  11.355  20.578  0.00  0.00    +0.000 A 
ATOM     23  C   UNL     1      -1.862  12.079  20.771  0.00  0.00    +0.000 A 
ATOM     24  N   UNL     1      -2.808  12.134  19.808  0.00  0.00    +0.000 NA
ATOM     25  C   UNL     1      -2.646  11.451  18.663  0.00  0.00    +0.000 A 
ATOM     26  C   UNL     1      -3.669  11.524  17.733  0.00  0.00    +0.000 A 
ATOM     27  C   UNL     1      -3.628  10.820  16.529  0.00  0.00    +0.000 A 
ATOM     28  C   UNL     1      -2.543  10.006  16.253  0.00  0.00    +0.000 A 
ATOM     29  C   UNL     1      -1.496   9.914  17.174  0.00  0.00    +0.000 A 
ATOM     30  C   UNL     1      -1.510  10.656  18.385  0.00  0.00    +0.000 A 
BRANCH  23  31
ATOM     31  C   UNL     1      -2.165  12.820  22.017  0.00  0.00    +0.000 A 
ATOM     32  C   UNL     1      -3.480  12.825  22.558  0.00  0.00    +0.000 A 
ATOM     33  C   UNL     1      -3.803  13.519  23.733  0.00  0.00    +0.000 A 
ATOM     34  C   UNL     1      -2.796  14.220  24.355  0.00  0.00    +0.000 A 
ATOM     35  C   UNL     1      -1.519  14.234  23.854  0.00  0.00    +0.000 A 
ATOM     36  C   UNL     1      -1.174  13.549  22.703  0.00  0.00    +0.000 A 
ATOM     37  O   UNL     1      -0.674  14.990  24.606  0.00  0.00    +0.000 OA
ATOM     38  C   UNL     1      -1.581  15.489  25.612  0.00  0.00    +0.000 C 
ATOM     39  O   UNL     1      -2.919  14.963  25.486  0.00  0.00    +0.000 OA
ENDBRANCH  23  31
ENDBRANCH   2  21
TORSDOF 4
ENDMDL
MODEL 7
REMARK VINA RESULT:      -8.2      3.862     11.338
REMARK  Name = 
REMARK  4 active torsions:
REMARK  status: ('A' for Active; 'I' for Inactive)
REMARK    1  A    between atoms: C_2  and  C_4
REMARK    2  A    between atoms: C_5  and  N_6
REMARK    3  A    between atoms: C_7  and  C_9
REMARK    4  A    between atoms: C_11  and  C_12
REMARK                            x       y       z     vdW  Elec       q    Type
REMARK                         _______ _______ _______ _____ _____    ______ ____
ROOT
ATOM      1  N   UNL     1       1.391   8.035  19.208  0.00  0.00    +0.000 N 
ATOM      2  C   UNL     1       2.126   7.123  19.964  0.00  0.00    +0.000 C 
ATOM      3  O   UNL     1       2.294   7.201  21.180  0.00  0.00    +0.000 OA
ATOM      4  H   UNL     1       0.918   7.701  18.374  0.00  0.00    +0.000 HD
ENDROOT
BRANCH   1   6
ATOM      5  C   UNL     1       1.116  10.542  19.418  0.00  0.00    +0.000 A 
ATOM      6  C   UNL     1       0.927   9.218  19.786  0.00  0.00    +0.000 A 
ATOM      7  S   UNL     1       0.136   9.070  21.279  0.00  0.00    +0.000 S 
ATOM      8  C   UNL     1      -0.134  10.756  21.421  0.00  0.00    +0.000 A 
ATOM      9  C   UNL     1       0.370  11.441  20.317  0.00  0.00    +0.000 A 
ATOM     10  C   UNL     1       0.162  12.917  20.060  0.00  0.00    +0.000 C 
ATOM     11  C   UNL     1      -1.270  13.280  19.645  0.00  0.00    +0.000 C 
ATOM     12  C   UNL     1      -2.412  12.765  20.522  0.00  0.00    +0.000 C 
ATOM     13  C   UNL     1      -2.365  13.198  21.984  0.00  0.00    +0.000 C 
ATOM     14  C   UNL     1      -1.212  12.665  22.839  0.00  0.00    +0.000 C 
ATOM     15  C   UNL     1      -0.893  11.186  22.661  0.00  0.00    +0.000 C 
BRANCH   5  17
ATOM     16  N   UNL     1       2.058  12.322  18.095  0.00  0.00    +0.000 N 
ATOM     17  C   UNL     1       1.888  10.972  18.245  0.00  0.00    +0.000 C 
ATOM     18  O   UNL     1       2.384  10.206  17.430  0.00  0.00    +0.000 OA
ATOM     19  H   UNL     1       2.742  12.577  17.391  0.00  0.00    +0.000 HD
ATOM     20  H   UNL     1       1.988  12.919  18.905  0.00  0.00    +0.000 HD
ENDBRANCH   5  17
ENDBRANCH   1   6
BRANCH   2  21
ATOM     21  C   UNL     1       2.623   5.885  19.298  0.00  0.00    +0.000 A 
ATOM     22  C   UNL     1       3.650   6.084  18.358  0.00  0.00    +0.000 A 
ATOM     23  C   UNL     1       4.140   5.012  17.633  0.00  0.00    +0.000 A 
ATOM     24  N   UNL     1       3.657   3.766  17.834  0.00  0.00    +0.000 NA
ATOM     25  C   UNL     1       2.664   3.561  18.714  0.00  0.00    +0.000 A 
ATOM     26  C   UNL     1       2.194   2.264  18.845  0.00  0.00    +0.000 A 
ATOM     27  C   UNL     1       1.137   1.942  19.696  0.00  0.00    +0.000 A 
ATOM     28  C   UNL     1       0.520   2.945  20.425  0.00  0.00    +0.000 A 
ATOM     29  C   UNL     1       0.975   4.261  20.313  0.00  0.00    +0.000 A 
ATOM     30  C   UNL     1       2.075   4.593  19.478  0.00  0.00    +0.000 A 
BRANCH  23  31
ATOM     31  C   UNL     1       5.192   5.139  16.599  0.00  0.00    +0.000 A 
ATOM     32  C   UNL     1       6.294   6.018  16.786  0.00  0.00    +0.000 A 
ATOM     33  C   UNL     1       7.305   6.165  15.826  0.00  0.00    +0.000 A 
ATOM     34  C   UNL     1       7.194   5.432  14.667  0.00  0.00    +0.000 A 
ATOM     35  C   UNL     1       6.141   4.578  14.460  0.00  0.00    +0.000 A 
ATOM     36  C   UNL     1       5.138   4.407  15.396  0.00  0.00    +0.000 A 
ATOM     37  O   UNL     1       6.209   3.953  13.253  0.00  0.00    +0.000 OA
ATOM     38  C   UNL     1       7.404   4.552  12.707  0.00  0.00    +0.000 C 
ATOM     39  O   UNL     1       8.061   5.454  13.621  0.00  0.00    +0.000 OA
ENDBRANCH  23  31
ENDBRANCH   2  21
TORSDOF 4
ENDMDL
MODEL 8
REMARK VINA RESULT:      -8.1      3.913     11.190
REMARK  Name = 
REMARK  4 active torsions:
REMARK  status: ('A' for Active; 'I' for Inactive)
REMARK    1  A    between atoms: C_2  and  C_4
REMARK    2  A    between atoms: C_5  and  N_6
REMARK    3  A    between atoms: C_7  and  C_9
REMARK    4  A    between atoms: C_11  and  C_12
REMARK                            x       y       z     vdW  Elec       q    Type
REMARK                         _______ _______ _______ _____ _____    ______ ____
ROOT
ATOM      1  N   UNL     1       2.030   8.821  18.065  0.00  0.00    +0.000 N 
ATOM      2  C   UNL     1       2.340   7.926  19.088  0.00  0.00    +0.000 C 
ATOM      3  O   UNL     1       2.163   8.146  20.285  0.00  0.00    +0.000 OA
ATOM      4  H   UNL     1       1.764   8.447  17.160  0.00  0.00    +0.000 HD
ENDROOT
BRANCH   1   6
ATOM      5  C   UNL     1       0.458  10.624  18.893  0.00  0.00    +0.000 A 
ATOM      6  C   UNL     1       1.641  10.128  18.366  0.00  0.00    +0.000 A 
ATOM      7  S   UNL     1       2.692  11.363  17.867  0.00  0.00    +0.000 S 
ATOM      8  C   UNL     1       1.689  12.608  18.481  0.00  0.00    +0.000 A 
ATOM      9  C   UNL     1       0.548  12.083  19.084  0.00  0.00    +0.000 A 
ATOM     10  C   UNL     1      -0.464  12.901  19.855  0.00  0.00    +0.000 C 
ATOM     11  C   UNL     1       0.043  13.392  21.218  0.00  0.00    +0.000 C 
ATOM     12  C   UNL     1       1.391  14.112  21.253  0.00  0.00    +0.000 C 
ATOM     13  C   UNL     1       1.492  15.364  20.386  0.00  0.00    +0.000 C 
ATOM     14  C   UNL     1       1.415  15.176  18.869  0.00  0.00    +0.000 C 
ATOM     15  C   UNL     1       2.228  14.014  18.309  0.00  0.00    +0.000 C 
BRANCH   5  17
ATOM     16  N   UNL     1      -0.635   9.234  20.530  0.00  0.00    +0.000 N 
ATOM     17  C   UNL     1      -0.687   9.791  19.280  0.00  0.00    +0.000 C 
ATOM     18  O   UNL     1      -1.663   9.590  18.570  0.00  0.00    +0.000 OA
ATOM     19  H   UNL     1      -1.510   8.825  20.837  0.00  0.00    +0.000 HD
ATOM     20  H   UNL     1      -0.056   9.664  21.236  0.00  0.00    +0.000 HD
ENDBRANCH   5  17
ENDBRANCH   1   6
BRANCH   2  21
ATOM     21  C   UNL     1       2.775   6.548  18.718  0.00  0.00    +0.000 A 
ATOM     22  C   UNL     1       3.723   6.480  17.682  0.00  0.00    +0.000 A 
ATOM     23  C   UNL     1       4.147   5.249  17.215  0.00  0.00    +0.000 A 
ATOM     24  N   UNL     1       3.677   4.105  17.759  0.00  0.00    +0.000 NA
ATOM     25  C   UNL     1       2.758   4.152  18.737  0.00  0.00    +0.000 A 
ATOM     26  C   UNL     1       2.294   2.941  19.226  0.00  0.00    +0.000 A 
ATOM     27  C   UNL     1       1.308   2.869  20.209  0.00  0.00    +0.000 A 
ATOM     28  C   UNL     1       0.757   4.038  20.708  0.00  0.00    +0.000 A 
ATOM     29  C   UNL     1       1.207   5.272  20.233  0.00  0.00    +0.000 A 
ATOM     30  C   UNL     1       2.237   5.357  19.259  0.00  0.00    +0.000 A 
BRANCH  23  31
ATOM     31  C   UNL     1       5.112   5.087  16.103  0.00  0.00    +0.000 A 
ATOM     32  C   UNL     1       6.388   5.716  16.149  0.00  0.00    +0.000 A 
ATOM     33  C   UNL     1       7.323   5.586  15.113  0.00  0.00    +0.000 A 
ATOM     34  C   UNL     1       6.964   4.829  14.022  0.00  0.00    +0.000 A 
ATOM     35  C   UNL     1       5.740   4.213  13.951  0.00  0.00    +0.000 A 
ATOM     36  C   UNL     1       4.805   4.317  14.964  0.00  0.00    +0.000 A 
ATOM     37  O   UNL     1       5.574   3.521  12.791  0.00  0.00    +0.000 OA
ATOM     38  C   UNL     1       6.819   3.815  12.121  0.00  0.00    +0.000 C 
ATOM     39  O   UNL     1       7.725   4.604  12.919  0.00  0.00    +0.000 OA
ENDBRANCH  23  31
ENDBRANCH   2  21
TORSDOF 4
ENDMDL
MODEL 9
REMARK VINA RESULT:      -8.0      3.976     11.317
REMARK  Name = 
REMARK  4 active torsions:
REMARK  status: ('A' for Active; 'I' for Inactive)
REMARK    1  A    between atoms: C_2  and  C_4
REMARK    2  A    between atoms: C_5  and  N_6
REMARK    3  A    between atoms: C_7  and  C_9
REMARK    4  A    between atoms: C_11  and  C_12
REMARK                            x       y       z     vdW  Elec       q    Type
REMARK                         _______ _______ _______ _____ _____    ______ ____
ROOT
ATOM      1  N   UNL     1       1.478   7.988  19.850  0.00  0.00    +0.000 N 
ATOM      2  C   UNL     1       2.368   7.826  18.789  0.00  0.00    +0.000 C 
ATOM      3  O   UNL     1       2.752   8.736  18.055  0.00  0.00    +0.000 OA
ATOM      4  H   UNL     1       1.560   7.367  20.649  0.00  0.00    +0.000 HD
ENDROOT
BRANCH   1   6
ATOM      5  C   UNL     1       0.513   9.897  21.202  0.00  0.00    +0.000 A 
ATOM      6  C   UNL     1       0.823   9.206  20.041  0.00  0.00    +0.000 A 
ATOM      7  S   UNL     1       0.127   9.914  18.665  0.00  0.00    +0.000 S 
ATOM      8  C   UNL     1      -0.479  11.259  19.535  0.00  0.00    +0.000 A 
ATOM      9  C   UNL     1      -0.140  11.180  20.884  0.00  0.00    +0.000 A 
ATOM     10  C   UNL     1      -0.390  12.278  21.893  0.00  0.00    +0.000 C 
ATOM     11  C   UNL     1       0.525  13.498  21.724  0.00  0.00    +0.000 C 
ATOM     12  C   UNL     1       0.624  14.120  20.331  0.00  0.00    +0.000 C 
ATOM     13  C   UNL     1      -0.694  14.603  19.731  0.00  0.00    +0.000 C 
ATOM     14  C   UNL     1      -1.743  13.540  19.393  0.00  0.00    +0.000 C 
ATOM     15  C   UNL     1      -1.212  12.290  18.700  0.00  0.00    +0.000 C 
BRANCH   5  17
ATOM     16  N   UNL     1      -0.181   9.222  23.410  0.00  0.00    +0.000 N 
ATOM     17  C   UNL     1       0.865   9.442  22.553  0.00  0.00    +0.000 C 
ATOM     18  O   UNL     1       2.010   9.240  22.935  0.00  0.00    +0.000 OA
ATOM     19  H   UNL     1       0.076   8.737  24.262  0.00  0.00    +0.000 HD
ATOM     20  H   UNL     1      -1.096   9.028  23.029  0.00  0.00    +0.000 HD
ENDBRANCH   5  17
ENDBRANCH   1   6
BRANCH   2  21
ATOM     21  C   UNL     1       3.025   6.499  18.610  0.00  0.00    +0.000 A 
ATOM     22  C   UNL     1       3.779   6.361  17.431  0.00  0.00    +0.000 A 
ATOM     23  C   UNL     1       4.377   5.150  17.132  0.00  0.00    +0.000 A 
ATOM     24  N   UNL     1       4.266   4.099  17.975  0.00  0.00    +0.000 NA
ATOM     25  C   UNL     1       3.535   4.209  19.096  0.00  0.00    +0.000 A 
ATOM     26  C   UNL     1       3.435   3.083  19.897  0.00  0.00    +0.000 A 
ATOM     27  C   UNL     1       2.668   3.068  21.061  0.00  0.00    +0.000 A 
ATOM     28  C   UNL     1       1.965   4.204  21.429  0.00  0.00    +0.000 A 
ATOM     29  C   UNL     1       2.049   5.354  20.639  0.00  0.00    +0.000 A 
ATOM     30  C   UNL     1       2.859   5.391  19.473  0.00  0.00    +0.000 A 
BRANCH  23  31
ATOM     31  C   UNL     1       5.155   4.907  15.896  0.00  0.00    +0.000 A 
ATOM     32  C   UNL     1       4.704   3.969  14.926  0.00  0.00    +0.000 A 
ATOM     33  C   UNL     1       5.418   3.711  13.746  0.00  0.00    +0.000 A 
ATOM     34  C   UNL     1       6.596   4.394  13.554  0.00  0.00    +0.000 A 
ATOM     35  C   UNL     1       7.056   5.302  14.473  0.00  0.00    +0.000 A 
ATOM     36  C   UNL     1       6.365   5.581  15.638  0.00  0.00    +0.000 A 
ATOM     37  O   UNL     1       8.239   5.862  14.104  0.00  0.00    +0.000 OA
ATOM     38  C   UNL     1       8.494   5.162  12.867  0.00  0.00    +0.000 C 
ATOM     39  O   UNL     1       7.430   4.266  12.487  0.00  0.00    +0.000 OA
ENDBRANCH  23  31
ENDBRANCH   2  21
TORSDOF 4
ENDMDL
