MODEL 1
REMARK VINA RESULT:      -8.7      0.000      0.000
REMARK  Name = 
REMARK  7 active torsions:
REMARK  status: ('A' for Active; 'I' for Inactive)
REMARK    1  A    between atoms: C_1  and  C_2
REMARK    2  A    between atoms: C_2  and  C_3
REMARK    3  A    between atoms: C_8  and  N_9
REMARK    4  A    between atoms: C_12  and  N_13
REMARK    5  A    between atoms: C_21  and  C_22
REMARK    6  A    between atoms: C_21  and  C_23
REMARK    7  A    between atoms: C_28  and  C_29
REMARK                            x       y       z     vdW  Elec       q    Type
REMARK                         _______ _______ _______ _____ _____    ______ ____
ROOT
ATOM      1  C   UNL     1       0.131  12.689  19.278  0.00  0.00    +0.000 A 
ATOM      2  C   UNL     1       0.873  11.643  18.678  0.00  0.00    +0.000 A 
ATOM      3  C   UNL     1       1.081  10.416  19.333  0.00  0.00    +0.000 A 
ATOM      4  C   UNL     1       0.634  10.247  20.650  0.00  0.00    +0.000 A 
ATOM      5  C   UNL     1      -0.023  11.325  21.246  0.00  0.00    +0.000 A 
ATOM      6  C   UNL     1      -0.394  12.500  20.569  0.00  0.00    +0.000 A 
ATOM      7  C   UNL     1       0.767   8.950  21.461  0.00  0.00    +0.000 C 
ATOM      8  C   UNL     1       1.649   9.221  22.698  0.00  0.00    +0.000 C 
ATOM      9  C   UNL     1      -0.634   8.459  21.917  0.00  0.00    +0.000 C 
ATOM     10  C   UNL     1       1.404   7.894  20.612  0.00  0.00    +0.000 A 
ATOM     11  N   UNL     1       1.630   6.601  21.002  0.00  0.00    +0.000 N 
ATOM     12  C   UNL     1       2.236   5.909  19.983  0.00  0.00    +0.000 A 
ATOM     13  C   UNL     1       2.660   4.575  19.931  0.00  0.00    +0.000 A 
ATOM     14  C   UNL     1       3.250   4.138  18.743  0.00  0.00    +0.000 A 
ATOM     15  C   UNL     1       3.405   4.995  17.650  0.00  0.00    +0.000 A 
ATOM     16  C   UNL     1       2.973   6.320  17.721  0.00  0.00    +0.000 A 
ATOM     17  C   UNL     1       2.382   6.790  18.907  0.00  0.00    +0.000 A 
ATOM     18  C   UNL     1       1.856   8.044  19.317  0.00  0.00    +0.000 A 
ATOM     19  C   UNL     1       1.758   9.304  18.599  0.00  0.00    +0.000 C 
ATOM     20  O   UNL     1       2.183   9.462  17.461  0.00  0.00    +0.000 OA
ATOM     21  H   UNL     1       1.394   6.207  21.904  0.00  0.00    +0.000 HD
ENDROOT
BRANCH   6  22
ATOM     22  N   UNL     1      -1.373  13.351  21.146  0.00  0.00    +0.000 N 
ATOM     23  C   UNL     1      -2.631  13.357  20.372  0.00  0.00    +0.000 C 
ATOM     24  C   UNL     1      -3.598  14.402  20.864  0.00  0.00    +0.000 C 
ATOM     25  C   UNL     1      -3.935  14.198  22.350  0.00  0.00    +0.000 C 
ATOM     26  C   UNL     1      -2.599  14.178  23.125  0.00  0.00    +0.000 C 
ATOM     27  C   UNL     1      -1.565  13.176  22.593  0.00  0.00    +0.000 C 
BRANCH  25  28
ATOM     28  N   UNL     1      -4.943  13.183  22.721  0.00  0.00    +0.000 NA
ATOM     29  C   UNL     1      -5.636  13.329  24.008  0.00  0.00    +0.000 C 
ATOM     30  C   UNL     1      -6.982  14.091  23.920  0.00  0.00    +0.000 C 
ATOM     31  N   UNL     1      -7.885  13.630  22.855  0.00  0.00    +0.000 NA
ATOM     32  C   UNL     1      -7.192  13.369  21.589  0.00  0.00    +0.000 C 
ATOM     33  C   UNL     1      -5.858  12.609  21.736  0.00  0.00    +0.000 C 
ATOM     34  H   UNL     1      -8.619  14.320  22.703  0.00  0.00    +0.000 HD
ENDBRANCH  25  28
ENDBRANCH   6  22
BRANCH   1  36
ATOM     35  C   UNL     1       0.818  15.091  18.970  0.00  0.00    +0.000 C 
ATOM     36  C   UNL     1      -0.077  13.956  18.480  0.00  0.00    +0.000 C 
ENDBRANCH   1  36
BRANCH  14  37
ATOM     37  C   UNL     1       3.709   2.790  18.648  0.00  0.00    +0.000 C 
ATOM     38  N   UNL     1       4.090   1.696  18.574  0.00  0.00    +0.000 NA
ENDBRANCH  14  37
TORSDOF 4
ENDMDL
MODEL 2
REMARK VINA RESULT:      -7.9      1.611      2.523
REMARK  Name = 
REMARK  7 active torsions:
REMARK  status: ('A' for Active; 'I' for Inactive)
REMARK    1  A    between atoms: C_1  and  C_2
REMARK    2  A    between atoms: C_2  and  C_3
REMARK    3  A    between atoms: C_8  and  N_9
REMARK    4  A    between atoms: C_12  and  N_13
REMARK    5  A    between atoms: C_21  and  C_22
REMARK    6  A    between atoms: C_21  and  C_23
REMARK    7  A    between atoms: C_28  and  C_29
REMARK                            x       y       z     vdW  Elec       q    Type
REMARK                         _______ _______ _______ _____ _____    ______ ____
ROOT
ATOM      1  C   UNL     1       0.121  12.621  19.055  0.00  0.00    +0.000 A 
ATOM      2  C   UNL     1       0.895  11.556  18.532  0.00  0.00    +0.000 A 
ATOM      3  C   UNL     1       1.089  10.362  19.249  0.00  0.00    +0.000 A 
ATOM      4  C   UNL     1       0.593  10.249  20.555  0.00  0.00    +0.000 A 
ATOM      5  C   UNL     1      -0.097  11.344  21.075  0.00  0.00    +0.000 A 
ATOM      6  C   UNL     1      -0.452  12.484  20.332  0.00  0.00    +0.000 A 
ATOM      7  C   UNL     1       0.706   8.991  21.428  0.00  0.00    +0.000 C 
ATOM      8  C   UNL     1       1.537   9.326  22.684  0.00  0.00    +0.000 C 
ATOM      9  C   UNL     1      -0.707   8.505  21.851  0.00  0.00    +0.000 C 
ATOM     10  C   UNL     1       1.385   7.904  20.652  0.00  0.00    +0.000 A 
ATOM     11  N   UNL     1       1.608   6.633  21.110  0.00  0.00    +0.000 N 
ATOM     12  C   UNL     1       2.258   5.902  20.147  0.00  0.00    +0.000 A 
ATOM     13  C   UNL     1       2.697   4.572  20.172  0.00  0.00    +0.000 A 
ATOM     14  C   UNL     1       3.337   4.088  19.028  0.00  0.00    +0.000 A 
ATOM     15  C   UNL     1       3.526   4.897  17.904  0.00  0.00    +0.000 A 
ATOM     16  C   UNL     1       3.079   6.219  17.899  0.00  0.00    +0.000 A 
ATOM     17  C   UNL     1       2.439   6.735  19.039  0.00  0.00    +0.000 A 
ATOM     18  C   UNL     1       1.886   8.000  19.370  0.00  0.00    +0.000 A 
ATOM     19  C   UNL     1       1.804   9.226  18.593  0.00  0.00    +0.000 C 
ATOM     20  O   UNL     1       2.271   9.338  17.466  0.00  0.00    +0.000 OA
ATOM     21  H   UNL     1       1.340   6.277  22.019  0.00  0.00    +0.000 HD
ENDROOT
BRANCH   6  22
ATOM     22  N   UNL     1      -1.461  13.350  20.832  0.00  0.00    +0.000 N 
ATOM     23  C   UNL     1      -2.359  12.665  21.784  0.00  0.00    +0.000 C 
ATOM     24  C   UNL     1      -3.542  13.517  22.164  0.00  0.00    +0.000 C 
ATOM     25  C   UNL     1      -3.095  14.853  22.781  0.00  0.00    +0.000 C 
ATOM     26  C   UNL     1      -2.144  15.530  21.769  0.00  0.00    +0.000 C 
ATOM     27  C   UNL     1      -0.973  14.654  21.305  0.00  0.00    +0.000 C 
BRANCH  25  28
ATOM     28  N   UNL     1      -2.696  14.884  24.203  0.00  0.00    +0.000 NA
ATOM     29  C   UNL     1      -1.263  14.899  24.524  0.00  0.00    +0.000 C 
ATOM     30  C   UNL     1      -0.669  16.318  24.713  0.00  0.00    +0.000 C 
ATOM     31  N   UNL     1      -1.442  17.198  25.601  0.00  0.00    +0.000 NA
ATOM     32  C   UNL     1      -2.890  17.113  25.374  0.00  0.00    +0.000 C 
ATOM     33  C   UNL     1      -3.425  15.679  25.191  0.00  0.00    +0.000 C 
ATOM     34  H   UNL     1      -1.137  18.162  25.481  0.00  0.00    +0.000 HD
ENDBRANCH  25  28
ENDBRANCH   6  22
BRANCH   1  36
ATOM     35  C   UNL     1       0.984  14.914  18.484  0.00  0.00    +0.000 C 
ATOM     36  C   UNL     1      -0.068  13.848  18.192  0.00  0.00    +0.000 C 
ENDBRANCH   1  36
BRANCH  14  37
ATOM     37  C   UNL     1       3.811   2.742  19.012  0.00  0.00    +0.000 C 
ATOM     38  N   UNL     1       4.189   1.645  19.001  0.00  0.00    +0.000 NA
ENDBRANCH  14  37
TORSDOF 4
ENDMDL
MODEL 3
REMARK VINA RESULT:      -7.8      2.577      5.023
REMARK  Name = 
REMARK  7 active torsions:
REMARK  status: ('A' for Active; 'I' for Inactive)
REMARK    1  A    between atoms: C_1  and  C_2
REMARK    2  A    between atoms: C_2  and  C_3
REMARK    3  A    between atoms: C_8  and  N_9
REMARK    4  A    between atoms: C_12  and  N_13
REMARK    5  A    between atoms: C_21  and  C_22
REMARK    6  A    between atoms: C_21  and  C_23
REMARK    7  A    between atoms: C_28  and  C_29
REMARK                            x       y       z     vdW  Elec       q    Type
REMARK                         _______ _______ _______ _____ _____    ______ ____
ROOT
ATOM      1  C   UNL     1      -2.113  12.796  22.873  0.00  0.00    +0.000 A 
ATOM      2  C   UNL     1      -1.498  11.537  22.667  0.00  0.00    +0.000 A 
ATOM      3  C   UNL     1      -0.869  11.211  21.452  0.00  0.00    +0.000 A 
ATOM      4  C   UNL     1      -0.931  12.108  20.377  0.00  0.00    +0.000 A 
ATOM      5  C   UNL     1      -1.614  13.307  20.582  0.00  0.00    +0.000 A 
ATOM      6  C   UNL     1      -2.108  13.735  21.827  0.00  0.00    +0.000 A 
ATOM      7  C   UNL     1      -0.259  11.889  19.014  0.00  0.00    +0.000 C 
ATOM      8  C   UNL     1      -1.347  11.830  17.922  0.00  0.00    +0.000 C 
ATOM      9  C   UNL     1       0.724  13.052  18.710  0.00  0.00    +0.000 C 
ATOM     10  C   UNL     1       0.502  10.599  19.034  0.00  0.00    +0.000 A 
ATOM     11  N   UNL     1       1.259  10.115  18.001  0.00  0.00    +0.000 N 
ATOM     12  C   UNL     1       1.809   8.908  18.355  0.00  0.00    +0.000 A 
ATOM     13  C   UNL     1       2.638   8.049  17.622  0.00  0.00    +0.000 A 
ATOM     14  C   UNL     1       3.052   6.872  18.249  0.00  0.00    +0.000 A 
ATOM     15  C   UNL     1       2.661   6.568  19.556  0.00  0.00    +0.000 A 
ATOM     16  C   UNL     1       1.837   7.439  20.270  0.00  0.00    +0.000 A 
ATOM     17  C   UNL     1       1.398   8.627  19.661  0.00  0.00    +0.000 A 
ATOM     18  C   UNL     1       0.569   9.701  20.081  0.00  0.00    +0.000 A 
ATOM     19  C   UNL     1      -0.124   9.920  21.339  0.00  0.00    +0.000 C 
ATOM     20  O   UNL     1      -0.101   9.120  22.267  0.00  0.00    +0.000 OA
ATOM     21  H   UNL     1       1.397  10.570  17.107  0.00  0.00    +0.000 HD
ENDROOT
BRANCH   6  22
ATOM     22  N   UNL     1      -2.437  15.105  22.007  0.00  0.00    +0.000 N 
ATOM     23  C   UNL     1      -1.280  15.898  22.472  0.00  0.00    +0.000 C 
ATOM     24  C   UNL     1      -1.668  17.303  22.852  0.00  0.00    +0.000 C 
ATOM     25  C   UNL     1      -2.329  18.040  21.675  0.00  0.00    +0.000 C 
ATOM     26  C   UNL     1      -3.520  17.175  21.203  0.00  0.00    +0.000 C 
ATOM     27  C   UNL     1      -3.165  15.716  20.885  0.00  0.00    +0.000 C 
BRANCH  25  28
ATOM     28  N   UNL     1      -1.470  18.629  20.628  0.00  0.00    +0.000 NA
ATOM     29  C   UNL     1      -0.016  18.631  20.842  0.00  0.00    +0.000 C 
ATOM     30  C   UNL     1       0.716  17.409  20.231  0.00  0.00    +0.000 C 
ATOM     31  N   UNL     1       0.364  17.112  18.835  0.00  0.00    +0.000 NA
ATOM     32  C   UNL     1      -1.077  17.216  18.573  0.00  0.00    +0.000 C 
ATOM     33  C   UNL     1      -1.754  18.448  19.205  0.00  0.00    +0.000 C 
ATOM     34  H   UNL     1       0.685  16.177  18.590  0.00  0.00    +0.000 HD
ENDBRANCH  25  28
ENDBRANCH   6  22
BRANCH   1  36
ATOM     35  C   UNL     1      -4.168  12.579  24.309  0.00  0.00    +0.000 C 
ATOM     36  C   UNL     1      -2.725  13.070  24.227  0.00  0.00    +0.000 C 
ENDBRANCH   1  36
BRANCH  14  37
ATOM     37  C   UNL     1       3.887   5.960  17.537  0.00  0.00    +0.000 C 
ATOM     38  N   UNL     1       4.574   5.221  16.962  0.00  0.00    +0.000 NA
ENDBRANCH  14  37
TORSDOF 4
ENDMDL
MODEL 4
REMARK VINA RESULT:      -7.7      1.154      1.438
REMARK  Name = 
REMARK  7 active torsions:
REMARK  status: ('A' for Active; 'I' for Inactive)
REMARK    1  A    between atoms: C_1  and  C_2
REMARK    2  A    between atoms: C_2  and  C_3
REMARK    3  A    between atoms: C_8  and  N_9
REMARK    4  A    between atoms: C_12  and  N_13
REMARK    5  A    between atoms: C_21  and  C_22
REMARK    6  A    between atoms: C_21  and  C_23
REMARK    7  A    between atoms: C_28  and  C_29
REMARK                            x       y       z     vdW  Elec       q    Type
REMARK                         _______ _______ _______ _____ _____    ______ ____
ROOT
ATOM      1  C   UNL     1       0.244  12.891  18.885  0.00  0.00    +0.000 A 
ATOM      2  C   UNL     1       1.055  11.816  18.449  0.00  0.00    +0.000 A 
ATOM      3  C   UNL     1       1.157  10.622  19.186  0.00  0.00    +0.000 A 
ATOM      4  C   UNL     1       0.524  10.519  20.432  0.00  0.00    +0.000 A 
ATOM      5  C   UNL     1      -0.203  11.625  20.874  0.00  0.00    +0.000 A 
ATOM      6  C   UNL     1      -0.462  12.766  20.094  0.00  0.00    +0.000 A 
ATOM      7  C   UNL     1       0.528   9.263  21.315  0.00  0.00    +0.000 C 
ATOM      8  C   UNL     1       1.226   9.592  22.652  0.00  0.00    +0.000 C 
ATOM      9  C   UNL     1      -0.927   8.796  21.587  0.00  0.00    +0.000 C 
ATOM     10  C   UNL     1       1.272   8.165  20.618  0.00  0.00    +0.000 A 
ATOM     11  N   UNL     1       1.429   6.893  21.099  0.00  0.00    +0.000 N 
ATOM     12  C   UNL     1       2.169   6.151  20.212  0.00  0.00    +0.000 A 
ATOM     13  C   UNL     1       2.585   4.815  20.286  0.00  0.00    +0.000 A 
ATOM     14  C   UNL     1       3.336   4.320  19.218  0.00  0.00    +0.000 A 
ATOM     15  C   UNL     1       3.653   5.122  18.118  0.00  0.00    +0.000 A 
ATOM     16  C   UNL     1       3.227   6.449  18.063  0.00  0.00    +0.000 A 
ATOM     17  C   UNL     1       2.475   6.977  19.127  0.00  0.00    +0.000 A 
ATOM     18  C   UNL     1       1.907   8.251  19.396  0.00  0.00    +0.000 A 
ATOM     19  C   UNL     1       1.923   9.474  18.612  0.00  0.00    +0.000 C 
ATOM     20  O   UNL     1       2.508   9.576  17.540  0.00  0.00    +0.000 OA
ATOM     21  H   UNL     1       1.062   6.543  21.975  0.00  0.00    +0.000 HD
ENDROOT
BRANCH   6  22
ATOM     22  N   UNL     1      -1.507  13.646  20.483  0.00  0.00    +0.000 N 
ATOM     23  C   UNL     1      -2.744  12.919  20.837  0.00  0.00    +0.000 C 
ATOM     24  C   UNL     1      -3.908  13.849  21.057  0.00  0.00    +0.000 C 
ATOM     25  C   UNL     1      -3.605  14.873  22.164  0.00  0.00    +0.000 C 
ATOM     26  C   UNL     1      -2.299  15.599  21.772  0.00  0.00    +0.000 C 
ATOM     27  C   UNL     1      -1.117  14.670  21.464  0.00  0.00    +0.000 C 
BRANCH  25  28
ATOM     28  N   UNL     1      -3.748  14.462  23.576  0.00  0.00    +0.000 NA
ATOM     29  C   UNL     1      -5.101  14.382  24.143  0.00  0.00    +0.000 C 
ATOM     30  C   UNL     1      -5.743  12.974  24.057  0.00  0.00    +0.000 C 
ATOM     31  N   UNL     1      -4.884  11.875  24.520  0.00  0.00    +0.000 NA
ATOM     32  C   UNL     1      -3.497  11.996  24.057  0.00  0.00    +0.000 C 
ATOM     33  C   UNL     1      -2.910  13.418  24.163  0.00  0.00    +0.000 C 
ATOM     34  H   UNL     1      -5.268  10.984  24.209  0.00  0.00    +0.000 HD
ENDBRANCH  25  28
ENDBRANCH   6  22
BRANCH   1  36
ATOM     35  C   UNL     1       1.030  15.256  18.535  0.00  0.00    +0.000 C 
ATOM     36  C   UNL     1       0.163  14.118  18.005  0.00  0.00    +0.000 C 
ENDBRANCH   1  36
BRANCH  14  37
ATOM     37  C   UNL     1       3.792   2.968  19.255  0.00  0.00    +0.000 C 
ATOM     38  N   UNL     1       4.155   1.866  19.285  0.00  0.00    +0.000 NA
ENDBRANCH  14  37
TORSDOF 4
ENDMDL
MODEL 5
REMARK VINA RESULT:      -7.7      1.024      1.360
REMARK  Name = 
REMARK  7 active torsions:
REMARK  status: ('A' for Active; 'I' for Inactive)
REMARK    1  A    between atoms: C_1  and  C_2
REMARK    2  A    between atoms: C_2  and  C_3
REMARK    3  A    between atoms: C_8  and  N_9
REMARK    4  A    between atoms: C_12  and  N_13
REMARK    5  A    between atoms: C_21  and  C_22
REMARK    6  A    between atoms: C_21  and  C_23
REMARK    7  A    between atoms: C_28  and  C_29
REMARK                            x       y       z     vdW  Elec       q    Type
REMARK                         _______ _______ _______ _____ _____    ______ ____
ROOT
ATOM      1  C   UNL     1       0.223  12.825  19.486  0.00  0.00    +0.000 A 
ATOM      2  C   UNL     1       0.929  11.776  18.848  0.00  0.00    +0.000 A 
ATOM      3  C   UNL     1       1.118  10.528  19.469  0.00  0.00    +0.000 A 
ATOM      4  C   UNL     1       0.688  10.337  20.788  0.00  0.00    +0.000 A 
ATOM      5  C   UNL     1       0.066  11.414  21.421  0.00  0.00    +0.000 A 
ATOM      6  C   UNL     1      -0.286  12.615  20.780  0.00  0.00    +0.000 A 
ATOM      7  C   UNL     1       0.802   9.017  21.564  0.00  0.00    +0.000 C 
ATOM      8  C   UNL     1       1.709   9.234  22.793  0.00  0.00    +0.000 C 
ATOM      9  C   UNL     1      -0.603   8.547  22.030  0.00  0.00    +0.000 C 
ATOM     10  C   UNL     1       1.399   7.967  20.678  0.00  0.00    +0.000 A 
ATOM     11  N   UNL     1       1.600   6.660  21.032  0.00  0.00    +0.000 N 
ATOM     12  C   UNL     1       2.172   5.980  19.986  0.00  0.00    +0.000 A 
ATOM     13  C   UNL     1       2.563   4.637  19.894  0.00  0.00    +0.000 A 
ATOM     14  C   UNL     1       3.124   4.217  18.685  0.00  0.00    +0.000 A 
ATOM     15  C   UNL     1       3.283   5.098  17.612  0.00  0.00    +0.000 A 
ATOM     16  C   UNL     1       2.884   6.431  17.724  0.00  0.00    +0.000 A 
ATOM     17  C   UNL     1       2.324   6.884  18.931  0.00  0.00    +0.000 A 
ATOM     18  C   UNL     1       1.835   8.139  19.380  0.00  0.00    +0.000 A 
ATOM     19  C   UNL     1       1.756   9.419  18.696  0.00  0.00    +0.000 C 
ATOM     20  O   UNL     1       2.167   9.597  17.555  0.00  0.00    +0.000 OA
ATOM     21  H   UNL     1       1.368   6.248  21.927  0.00  0.00    +0.000 HD
ENDROOT
BRANCH   6  22
ATOM     22  N   UNL     1      -1.235  13.474  21.395  0.00  0.00    +0.000 N 
ATOM     23  C   UNL     1      -2.083  14.167  20.403  0.00  0.00    +0.000 C 
ATOM     24  C   UNL     1      -2.953  15.222  21.034  0.00  0.00    +0.000 C 
ATOM     25  C   UNL     1      -3.858  14.624  22.123  0.00  0.00    +0.000 C 
ATOM     26  C   UNL     1      -2.943  13.893  23.130  0.00  0.00    +0.000 C 
ATOM     27  C   UNL     1      -1.989  12.867  22.502  0.00  0.00    +0.000 C 
BRANCH  25  28
ATOM     28  N   UNL     1      -5.100  13.933  21.719  0.00  0.00    +0.000 NA
ATOM     29  C   UNL     1      -6.158  14.723  21.075  0.00  0.00    +0.000 C 
ATOM     30  C   UNL     1      -6.097  14.724  19.527  0.00  0.00    +0.000 C 
ATOM     31  N   UNL     1      -5.950  13.396  18.914  0.00  0.00    +0.000 NA
ATOM     32  C   UNL     1      -4.977  12.546  19.612  0.00  0.00    +0.000 C 
ATOM     33  C   UNL     1      -5.083  12.586  21.150  0.00  0.00    +0.000 C 
ATOM     34  H   UNL     1      -5.673  13.495  17.939  0.00  0.00    +0.000 HD
ENDBRANCH  25  28
ENDBRANCH   6  22
BRANCH   1  36
ATOM     35  C   UNL     1       1.291  14.980  18.747  0.00  0.00    +0.000 C 
ATOM     36  C   UNL     1       0.033  14.116  18.724  0.00  0.00    +0.000 C 
ENDBRANCH   1  36
BRANCH  14  37
ATOM     37  C   UNL     1       3.548   2.862  18.549  0.00  0.00    +0.000 C 
ATOM     38  N   UNL     1       3.895   1.758  18.446  0.00  0.00    +0.000 NA
ENDBRANCH  14  37
TORSDOF 4
ENDMDL
MODEL 6
REMARK VINA RESULT:      -7.7      2.302     10.600
REMARK  Name = 
REMARK  7 active torsions:
REMARK  status: ('A' for Active; 'I' for Inactive)
REMARK    1  A    between atoms: C_1  and  C_2
REMARK    2  A    between atoms: C_2  and  C_3
REMARK    3  A    between atoms: C_8  and  N_9
REMARK    4  A    between atoms: C_12  and  N_13
REMARK    5  A    between atoms: C_21  and  C_22
REMARK    6  A    between atoms: C_21  and  C_23
REMARK    7  A    between atoms: C_28  and  C_29
REMARK                            x       y       z     vdW  Elec       q    Type
REMARK                         _______ _______ _______ _____ _____    ______ ____
ROOT
ATOM      1  C   UNL     1       2.033   6.918  20.349  0.00  0.00    +0.000 A 
ATOM      2  C   UNL     1       1.259   7.683  21.255  0.00  0.00    +0.000 A 
ATOM      3  C   UNL     1       0.712   8.927  20.892  0.00  0.00    +0.000 A 
ATOM      4  C   UNL     1       1.013   9.479  19.640  0.00  0.00    +0.000 A 
ATOM      5  C   UNL     1       1.844   8.739  18.798  0.00  0.00    +0.000 A 
ATOM      6  C   UNL     1       2.272   7.426  19.060  0.00  0.00    +0.000 A 
ATOM      7  C   UNL     1       0.453  10.807  19.110  0.00  0.00    +0.000 C 
ATOM      8  C   UNL     1       1.622  11.785  18.874  0.00  0.00    +0.000 C 
ATOM      9  C   UNL     1      -0.309  10.572  17.778  0.00  0.00    +0.000 C 
ATOM     10  C   UNL     1      -0.491  11.388  20.118  0.00  0.00    +0.000 A 
ATOM     11  N   UNL     1      -1.206  12.543  19.952  0.00  0.00    +0.000 N 
ATOM     12  C   UNL     1      -1.963  12.785  21.071  0.00  0.00    +0.000 A 
ATOM     13  C   UNL     1      -2.835  13.844  21.355  0.00  0.00    +0.000 A 
ATOM     14  C   UNL     1      -3.481  13.825  22.594  0.00  0.00    +0.000 A 
ATOM     15  C   UNL     1      -3.270  12.789  23.508  0.00  0.00    +0.000 A 
ATOM     16  C   UNL     1      -2.399  11.742  23.205  0.00  0.00    +0.000 A 
ATOM     17  C   UNL     1      -1.730  11.738  21.969  0.00  0.00    +0.000 A 
ATOM     18  C   UNL     1      -0.794  10.862  21.358  0.00  0.00    +0.000 A 
ATOM     19  C   UNL     1      -0.203   9.626  21.845  0.00  0.00    +0.000 C 
ATOM     20  O   UNL     1      -0.437   9.162  22.954  0.00  0.00    +0.000 OA
ATOM     21  H   UNL     1      -1.186  13.138  19.133  0.00  0.00    +0.000 HD
ENDROOT
BRANCH   6  22
ATOM     22  N   UNL     1       2.783   6.639  17.993  0.00  0.00    +0.000 N 
ATOM     23  C   UNL     1       4.068   7.160  17.483  0.00  0.00    +0.000 C 
ATOM     24  C   UNL     1       4.514   6.452  16.231  0.00  0.00    +0.000 C 
ATOM     25  C   UNL     1       4.653   4.938  16.463  0.00  0.00    +0.000 C 
ATOM     26  C   UNL     1       3.301   4.432  17.013  0.00  0.00    +0.000 C 
ATOM     27  C   UNL     1       2.785   5.190  18.243  0.00  0.00    +0.000 C 
BRANCH  25  28
ATOM     28  N   UNL     1       5.877   4.425  17.112  0.00  0.00    +0.000 NA
ATOM     29  C   UNL     1       7.171   4.987  16.701  0.00  0.00    +0.000 C 
ATOM     30  C   UNL     1       7.654   6.173  17.573  0.00  0.00    +0.000 C 
ATOM     31  N   UNL     1       7.590   5.940  19.023  0.00  0.00    +0.000 NA
ATOM     32  C   UNL     1       6.351   5.274  19.443  0.00  0.00    +0.000 C 
ATOM     33  C   UNL     1       5.917   4.103  18.538  0.00  0.00    +0.000 C 
ATOM     34  H   UNL     1       7.683   6.825  19.519  0.00  0.00    +0.000 HD
ENDBRANCH  25  28
ENDBRANCH   6  22
BRANCH   1  36
ATOM     35  C   UNL     1       1.432   4.529  20.863  0.00  0.00    +0.000 C 
ATOM     36  C   UNL     1       2.543   5.574  20.815  0.00  0.00    +0.000 C 
ENDBRANCH   1  36
BRANCH  14  37
ATOM     37  C   UNL     1      -4.369  14.889  22.932  0.00  0.00    +0.000 C 
ATOM     38  N   UNL     1      -5.094  15.756  23.198  0.00  0.00    +0.000 NA
ENDBRANCH  14  37
TORSDOF 4
ENDMDL
MODEL 7
REMARK VINA RESULT:      -7.5      2.717      4.610
REMARK  Name = 
REMARK  7 active torsions:
REMARK  status: ('A' for Active; 'I' for Inactive)
REMARK    1  A    between atoms: C_1  and  C_2
REMARK    2  A    between atoms: C_2  and  C_3
REMARK    3  A    between atoms: C_8  and  N_9
REMARK    4  A    between atoms: C_12  and  N_13
REMARK    5  A    between atoms: C_21  and  C_22
REMARK    6  A    between atoms: C_21  and  C_23
REMARK    7  A    between atoms: C_28  and  C_29
REMARK                            x       y       z     vdW  Elec       q    Type
REMARK                         _______ _______ _______ _____ _____    ______ ____
ROOT
ATOM      1  C   UNL     1      -2.841  13.163  23.113  0.00  0.00    +0.000 A 
ATOM      2  C   UNL     1      -2.108  11.964  22.943  0.00  0.00    +0.000 A 
ATOM      3  C   UNL     1      -1.526  11.622  21.709  0.00  0.00    +0.000 A 
ATOM      4  C   UNL     1      -1.753  12.431  20.588  0.00  0.00    +0.000 A 
ATOM      5  C   UNL     1      -2.546  13.565  20.766  0.00  0.00    +0.000 A 
ATOM      6  C   UNL     1      -3.004  14.024  22.014  0.00  0.00    +0.000 A 
ATOM      7  C   UNL     1      -1.148  12.190  19.197  0.00  0.00    +0.000 C 
ATOM      8  C   UNL     1      -2.290  11.944  18.189  0.00  0.00    +0.000 C 
ATOM      9  C   UNL     1      -0.318  13.425  18.753  0.00  0.00    +0.000 C 
ATOM     10  C   UNL     1      -0.252  10.990  19.244  0.00  0.00    +0.000 A 
ATOM     11  N   UNL     1       0.485  10.518  18.192  0.00  0.00    +0.000 N 
ATOM     12  C   UNL     1       1.184   9.401  18.579  0.00  0.00    +0.000 A 
ATOM     13  C   UNL     1       2.052   8.584  17.844  0.00  0.00    +0.000 A 
ATOM     14  C   UNL     1       2.630   7.502  18.513  0.00  0.00    +0.000 A 
ATOM     15  C   UNL     1       2.358   7.250  19.860  0.00  0.00    +0.000 A 
ATOM     16  C   UNL     1       1.491   8.078  20.575  0.00  0.00    +0.000 A 
ATOM     17  C   UNL     1       0.889   9.170  19.926  0.00  0.00    +0.000 A 
ATOM     18  C   UNL     1      -0.023  10.178  20.336  0.00  0.00    +0.000 A 
ATOM     19  C   UNL     1      -0.655  10.411  21.624  0.00  0.00    +0.000 C 
ATOM     20  O   UNL     1      -0.487   9.682  22.595  0.00  0.00    +0.000 OA
ATOM     21  H   UNL     1       0.516  10.921  17.263  0.00  0.00    +0.000 HD
ENDROOT
BRANCH   6  22
ATOM     22  N   UNL     1      -3.467  15.362  22.131  0.00  0.00    +0.000 N 
ATOM     23  C   UNL     1      -2.967  16.221  21.038  0.00  0.00    +0.000 C 
ATOM     24  C   UNL     1      -3.290  17.675  21.264  0.00  0.00    +0.000 C 
ATOM     25  C   UNL     1      -4.804  17.897  21.413  0.00  0.00    +0.000 C 
ATOM     26  C   UNL     1      -5.294  16.970  22.548  0.00  0.00    +0.000 C 
ATOM     27  C   UNL     1      -4.910  15.494  22.381  0.00  0.00    +0.000 C 
BRANCH  25  28
ATOM     28  N   UNL     1      -5.638  17.967  20.195  0.00  0.00    +0.000 NA
ATOM     29  C   UNL     1      -5.322  17.062  19.082  0.00  0.00    +0.000 C 
ATOM     30  C   UNL     1      -6.118  15.733  19.099  0.00  0.00    +0.000 C 
ATOM     31  N   UNL     1      -7.567  15.883  19.294  0.00  0.00    +0.000 NA
ATOM     32  C   UNL     1      -7.908  16.870  20.326  0.00  0.00    +0.000 C 
ATOM     33  C   UNL     1      -7.084  18.171  20.262  0.00  0.00    +0.000 C 
ATOM     34  H   UNL     1      -7.978  14.983  19.537  0.00  0.00    +0.000 HD
ENDBRANCH  25  28
ENDBRANCH   6  22
BRANCH   1  36
ATOM     35  C   UNL     1      -4.521  12.511  24.870  0.00  0.00    +0.000 C 
ATOM     36  C   UNL     1      -3.393  13.465  24.488  0.00  0.00    +0.000 C 
ENDBRANCH   1  36
BRANCH  14  37
ATOM     37  C   UNL     1       3.512   6.635  17.801  0.00  0.00    +0.000 C 
ATOM     38  N   UNL     1       4.226   5.932  17.215  0.00  0.00    +0.000 NA
ENDBRANCH  14  37
TORSDOF 4
ENDMDL
MODEL 8
REMARK VINA RESULT:      -7.4      2.364      4.021
REMARK  Name = 
REMARK  7 active torsions:
REMARK  status: ('A' for Active; 'I' for Inactive)
REMARK    1  A    between atoms: C_1  and  C_2
REMARK    2  A    between atoms: C_2  and  C_3
REMARK    3  A    between atoms: C_8  and  N_9
REMARK    4  A    between atoms: C_12  and  N_13
REMARK    5  A    between atoms: C_21  and  C_22
REMARK    6  A    between atoms: C_21  and  C_23
REMARK    7  A    between atoms: C_28  and  C_29
REMARK                            x       y       z     vdW  Elec       q    Type
REMARK                         _______ _______ _______ _____ _____    ______ ____
ROOT
ATOM      1  C   UNL     1      -2.290  13.025  22.738  0.00  0.00    +0.000 A 
ATOM      2  C   UNL     1      -1.645  11.774  22.582  0.00  0.00    +0.000 A 
ATOM      3  C   UNL     1      -1.023  11.409  21.375  0.00  0.00    +0.000 A 
ATOM      4  C   UNL     1      -1.121  12.253  20.261  0.00  0.00    +0.000 A 
ATOM      5  C   UNL     1      -1.831  13.443  20.420  0.00  0.00    +0.000 A 
ATOM      6  C   UNL     1      -2.322  13.915  21.650  0.00  0.00    +0.000 A 
ATOM      7  C   UNL     1      -0.460  11.988  18.900  0.00  0.00    +0.000 C 
ATOM      8  C   UNL     1      -1.559  11.852  17.827  0.00  0.00    +0.000 C 
ATOM      9  C   UNL     1       0.489  13.160  18.531  0.00  0.00    +0.000 C 
ATOM     10  C   UNL     1       0.334  10.720  18.970  0.00  0.00    +0.000 A 
ATOM     11  N   UNL     1       1.090  10.208  17.950  0.00  0.00    +0.000 N 
ATOM     12  C   UNL     1       1.675   9.033  18.351  0.00  0.00    +0.000 A 
ATOM     13  C   UNL     1       2.517   8.162  17.647  0.00  0.00    +0.000 A 
ATOM     14  C   UNL     1       2.968   7.025  18.323  0.00  0.00    +0.000 A 
ATOM     15  C   UNL     1       2.601   6.772  19.647  0.00  0.00    +0.000 A 
ATOM     16  C   UNL     1       1.764   7.654  20.331  0.00  0.00    +0.000 A 
ATOM     17  C   UNL     1       1.288   8.802  19.675  0.00  0.00    +0.000 A 
ATOM     18  C   UNL     1       0.436   9.873  20.055  0.00  0.00    +0.000 A 
ATOM     19  C   UNL     1      -0.247  10.133  21.312  0.00  0.00    +0.000 C 
ATOM     20  O   UNL     1      -0.192   9.377  22.274  0.00  0.00    +0.000 OA
ATOM     21  H   UNL     1       1.206  10.624  17.034  0.00  0.00    +0.000 HD
ENDROOT
BRANCH   6  22
ATOM     22  N   UNL     1      -2.683  15.284  21.772  0.00  0.00    +0.000 N 
ATOM     23  C   UNL     1      -4.070  15.535  21.328  0.00  0.00    +0.000 C 
ATOM     24  C   UNL     1      -4.392  17.005  21.268  0.00  0.00    +0.000 C 
ATOM     25  C   UNL     1      -4.181  17.681  22.633  0.00  0.00    +0.000 C 
ATOM     26  C   UNL     1      -2.731  17.382  23.074  0.00  0.00    +0.000 C 
ATOM     27  C   UNL     1      -2.353  15.895  23.068  0.00  0.00    +0.000 C 
BRANCH  25  28
ATOM     28  N   UNL     1      -5.235  17.557  23.661  0.00  0.00    +0.000 NA
ATOM     29  C   UNL     1      -6.519  18.233  23.426  0.00  0.00    +0.000 C 
ATOM     30  C   UNL     1      -7.592  17.341  22.752  0.00  0.00    +0.000 C 
ATOM     31  N   UNL     1      -7.769  16.017  23.367  0.00  0.00    +0.000 NA
ATOM     32  C   UNL     1      -6.498  15.371  23.715  0.00  0.00    +0.000 C 
ATOM     33  C   UNL     1      -5.468  16.305  24.380  0.00  0.00    +0.000 C 
ATOM     34  H   UNL     1      -8.295  15.413  22.738  0.00  0.00    +0.000 HD
ENDBRANCH  25  28
ENDBRANCH   6  22
BRANCH   1  36
ATOM     35  C   UNL     1      -4.172  12.554  24.340  0.00  0.00    +0.000 C 
ATOM     36  C   UNL     1      -2.893  13.347  24.087  0.00  0.00    +0.000 C 
ENDBRANCH   1  36
BRANCH  14  37
ATOM     37  C   UNL     1       3.818   6.103  17.642  0.00  0.00    +0.000 C 
ATOM     38  N   UNL     1       4.505   5.354  17.081  0.00  0.00    +0.000 NA
ENDBRANCH  14  37
TORSDOF 4
ENDMDL
MODEL 9
REMARK VINA RESULT:      -7.1      2.082      3.052
REMARK  Name = 
REMARK  7 active torsions:
REMARK  status: ('A' for Active; 'I' for Inactive)
REMARK    1  A    between atoms: C_1  and  C_2
REMARK    2  A    between atoms: C_2  and  C_3
REMARK    3  A    between atoms: C_8  and  N_9
REMARK    4  A    between atoms: C_12  and  N_13
REMARK    5  A    between atoms: C_21  and  C_22
REMARK    6  A    between atoms: C_21  and  C_23
REMARK    7  A    between atoms: C_28  and  C_29
REMARK                            x       y       z     vdW  Elec       q    Type
REMARK                         _______ _______ _______ _____ _____    ______ ____
ROOT
ATOM      1  C   UNL     1       0.376  12.725  19.409  0.00  0.00    +0.000 A 
ATOM      2  C   UNL     1       1.051  11.650  18.781  0.00  0.00    +0.000 A 
ATOM      3  C   UNL     1       1.212  10.406  19.416  0.00  0.00    +0.000 A 
ATOM      4  C   UNL     1       0.787  10.243  20.741  0.00  0.00    +0.000 A 
ATOM      5  C   UNL     1       0.197  11.344  21.364  0.00  0.00    +0.000 A 
ATOM      6  C   UNL     1      -0.129  12.545  20.709  0.00  0.00    +0.000 A 
ATOM      7  C   UNL     1       0.872   8.931  21.534  0.00  0.00    +0.000 C 
ATOM      8  C   UNL     1       1.794   9.141  22.754  0.00  0.00    +0.000 C 
ATOM      9  C   UNL     1      -0.541   8.504  22.015  0.00  0.00    +0.000 C 
ATOM     10  C   UNL     1       1.437   7.855  20.658  0.00  0.00    +0.000 A 
ATOM     11  N   UNL     1       1.607   6.548  21.028  0.00  0.00    +0.000 N 
ATOM     12  C   UNL     1       2.154   5.839  19.988  0.00  0.00    +0.000 A 
ATOM     13  C   UNL     1       2.510   4.486  19.910  0.00  0.00    +0.000 A 
ATOM     14  C   UNL     1       3.052   4.036  18.704  0.00  0.00    +0.000 A 
ATOM     15  C   UNL     1       3.225   4.898  17.618  0.00  0.00    +0.000 A 
ATOM     16  C   UNL     1       2.861   6.242  17.715  0.00  0.00    +0.000 A 
ATOM     17  C   UNL     1       2.321   6.725  18.919  0.00  0.00    +0.000 A 
ATOM     18  C   UNL     1       1.867   7.999  19.355  0.00  0.00    +0.000 A 
ATOM     19  C   UNL     1       1.817   9.271  18.654  0.00  0.00    +0.000 C 
ATOM     20  O   UNL     1       2.223   9.423  17.509  0.00  0.00    +0.000 OA
ATOM     21  H   UNL     1       1.371   6.154  21.930  0.00  0.00    +0.000 HD
ENDROOT
BRANCH   6  22
ATOM     22  N   UNL     1      -1.052  13.436  21.319  0.00  0.00    +0.000 N 
ATOM     23  C   UNL     1      -0.392  14.357  22.267  0.00  0.00    +0.000 C 
ATOM     24  C   UNL     1      -1.385  15.167  23.059  0.00  0.00    +0.000 C 
ATOM     25  C   UNL     1      -2.303  15.985  22.136  0.00  0.00    +0.000 C 
ATOM     26  C   UNL     1      -2.959  14.996  21.147  0.00  0.00    +0.000 C 
ATOM     27  C   UNL     1      -1.972  14.102  20.385  0.00  0.00    +0.000 C 
BRANCH  25  28
ATOM     28  N   UNL     1      -1.804  17.260  21.580  0.00  0.00    +0.000 NA
ATOM     29  C   UNL     1      -0.830  17.205  20.481  0.00  0.00    +0.000 C 
ATOM     30  C   UNL     1      -1.464  17.268  19.068  0.00  0.00    +0.000 C 
ATOM     31  N   UNL     1      -2.449  18.344  18.881  0.00  0.00    +0.000 NA
ATOM     32  C   UNL     1      -3.362  18.490  20.020  0.00  0.00    +0.000 C 
ATOM     33  C   UNL     1      -2.678  18.418  21.400  0.00  0.00    +0.000 C 
ATOM     34  H   UNL     1      -2.989  18.172  18.034  0.00  0.00    +0.000 HD
ENDBRANCH  25  28
ENDBRANCH   6  22
BRANCH   1  36
ATOM     35  C   UNL     1       1.457  14.891  18.723  0.00  0.00    +0.000 C 
ATOM     36  C   UNL     1       0.214  14.010  18.631  0.00  0.00    +0.000 C 
ENDBRANCH   1  36
BRANCH  14  37
ATOM     37  C   UNL     1       3.440   2.668  18.583  0.00  0.00    +0.000 C 
ATOM     38  N   UNL     1       3.765   1.558  18.483  0.00  0.00    +0.000 NA
ENDBRANCH  14  37
TORSDOF 4
ENDMDL
