MODEL 1
REMARK VINA RESULT:      -8.3      0.000      0.000
REMARK  Name = 
REMARK  11 active torsions:
REMARK  status: ('A' for Active; 'I' for Inactive)
REMARK    1  A    between atoms: C_1  and  O_2
REMARK    2  A    between atoms: O_2  and  C_3
REMARK    3  A    between atoms: C_3  and  C_5
REMARK    4  A    between atoms: C_7  and  S_8
REMARK    5  A    between atoms: S_8  and  N_11
REMARK    6  A    between atoms: N_11  and  C_12
REMARK    7  A    between atoms: N_11  and  C_19
REMARK    8  A    between atoms: C_12  and  C_13
REMARK    9  A    between atoms: C_19  and  C_20
REMARK   10  A    between atoms: C_19  and  C_21
REMARK   11  A    between atoms: C_19  and  C_22
REMARK                            x       y       z     vdW  Elec       q    Type
REMARK                         _______ _______ _______ _____ _____    ______ ____
ROOT
ATOM      1  S   UNL     1       5.156   4.445  19.202  0.00  0.00    +0.000 S 
ATOM      2  O   UNL     1       5.175   3.045  19.590  0.00  0.00    +0.000 OA
ATOM      3  O   UNL     1       5.839   5.432  20.016  0.00  0.00    +0.000 OA
ENDROOT
BRANCH   1   6
ATOM      4  C   UNL     1       6.624   4.591  15.497  0.00  0.00    +0.000 A 
ATOM      5  C   UNL     1       5.565   4.590  16.395  0.00  0.00    +0.000 A 
ATOM      6  C   UNL     1       6.091   4.509  17.724  0.00  0.00    +0.000 A 
ATOM      7  C   UNL     1       7.458   4.627  17.588  0.00  0.00    +0.000 A 
ATOM      8  N   UNL     1       7.774   4.597  16.254  0.00  0.00    +0.000 N 
ATOM      9  H   UNL     1       8.712   4.602  15.869  0.00  0.00    +0.000 HD
BRANCH   4  10
ATOM     10  C   UNL     1       6.687   4.578  14.056  0.00  0.00    +0.000 C 
ATOM     11  O   UNL     1       7.425   5.291  13.390  0.00  0.00    +0.000 OA
BRANCH  10  13
ATOM     12  C   UNL     1       6.107   3.300  12.188  0.00  0.00    +0.000 C 
ATOM     13  O   UNL     1       5.847   3.629  13.550  0.00  0.00    +0.000 OA
ENDBRANCH  10  13
ENDBRANCH   4  10
ENDBRANCH   1   6
BRANCH   1  14
ATOM     14  N   UNL     1       3.481   4.930  18.967  0.00  0.00    +0.000 NA
BRANCH  14  15
ATOM     15  C   UNL     1       2.508   3.795  18.519  0.00  0.00    +0.000 C 
ATOM     16  C   UNL     1       1.456   4.317  17.521  0.00  0.00    +0.000 C 
ATOM     17  C   UNL     1       3.253   2.685  17.725  0.00  0.00    +0.000 C 
ATOM     18  C   UNL     1       1.826   3.132  19.727  0.00  0.00    +0.000 C 
ENDBRANCH  14  15
BRANCH  14  19
ATOM     19  C   UNL     1       3.347   6.140  18.064  0.00  0.00    +0.000 C 
BRANCH  19  20
ATOM     20  C   UNL     1       2.569   7.336  18.544  0.00  0.00    +0.000 A 
ATOM     21  C   UNL     1       2.266   8.379  17.650  0.00  0.00    +0.000 A 
ATOM     22  C   UNL     1       1.557   9.499  18.082  0.00  0.00    +0.000 A 
ATOM     23  C   UNL     1       1.128   9.579  19.405  0.00  0.00    +0.000 A 
ATOM     24  C   UNL     1       1.380   8.527  20.288  0.00  0.00    +0.000 A 
ATOM     25  C   UNL     1       2.091   7.404  19.858  0.00  0.00    +0.000 A 
ENDBRANCH  19  20
ENDBRANCH  14  19
ENDBRANCH   1  14
TORSDOF 7
ENDMDL
MODEL 2
REMARK VINA RESULT:      -8.3      0.528      1.412
REMARK  Name = 
REMARK  11 active torsions:
REMARK  status: ('A' for Active; 'I' for Inactive)
REMARK    1  A    between atoms: C_1  and  O_2
REMARK    2  A    between atoms: O_2  and  C_3
REMARK    3  A    between atoms: C_3  and  C_5
REMARK    4  A    between atoms: C_7  and  S_8
REMARK    5  A    between atoms: S_8  and  N_11
REMARK    6  A    between atoms: N_11  and  C_12
REMARK    7  A    between atoms: N_11  and  C_19
REMARK    8  A    between atoms: C_12  and  C_13
REMARK    9  A    between atoms: C_19  and  C_20
REMARK   10  A    between atoms: C_19  and  C_21
REMARK   11  A    between atoms: C_19  and  C_22
REMARK                            x       y       z     vdW  Elec       q    Type
REMARK                         _______ _______ _______ _____ _____    ______ ____
ROOT
ATOM      1  S   UNL     1       5.279   4.612  18.963  0.00  0.00    +0.000 S 
ATOM      2  O   UNL     1       5.444   3.174  19.096  0.00  0.00    +0.000 OA
ATOM      3  O   UNL     1       5.928   5.505  19.904  0.00  0.00    +0.000 OA
ENDROOT
BRANCH   1   6
ATOM      4  C   UNL     1       6.739   5.002  15.273  0.00  0.00    +0.000 A 
ATOM      5  C   UNL     1       5.862   4.436  16.189  0.00  0.00    +0.000 A 
ATOM      6  C   UNL     1       6.105   5.018  17.475  0.00  0.00    +0.000 A 
ATOM      7  C   UNL     1       7.013   6.032  17.256  0.00  0.00    +0.000 A 
ATOM      8  N   UNL     1       7.444   5.967  15.956  0.00  0.00    +0.000 N 
ATOM      9  H   UNL     1       8.160   6.553  15.541  0.00  0.00    +0.000 HD
BRANCH   4  10
ATOM     10  C   UNL     1       6.994   4.748  13.876  0.00  0.00    +0.000 C 
ATOM     11  O   UNL     1       7.797   5.374  13.195  0.00  0.00    +0.000 OA
BRANCH  10  13
ATOM     12  C   UNL     1       6.450   3.379  12.062  0.00  0.00    +0.000 C 
ATOM     13  O   UNL     1       6.254   3.689  13.440  0.00  0.00    +0.000 OA
ENDBRANCH  10  13
ENDBRANCH   4  10
ENDBRANCH   1   6
BRANCH   1  14
ATOM     14  N   UNL     1       3.557   4.968  18.903  0.00  0.00    +0.000 NA
BRANCH  14  15
ATOM     15  C   UNL     1       2.631   3.758  18.566  0.00  0.00    +0.000 C 
ATOM     16  C   UNL     1       3.409   2.638  17.845  0.00  0.00    +0.000 C 
ATOM     17  C   UNL     1       2.099   3.069  19.854  0.00  0.00    +0.000 C 
ATOM     18  C   UNL     1       1.417   4.197  17.730  0.00  0.00    +0.000 C 
ENDBRANCH  14  15
BRANCH  14  19
ATOM     19  C   UNL     1       3.238   6.152  18.013  0.00  0.00    +0.000 C 
BRANCH  19  20
ATOM     20  C   UNL     1       2.476   7.319  18.582  0.00  0.00    +0.000 A 
ATOM     21  C   UNL     1       2.107   7.321  19.938  0.00  0.00    +0.000 A 
ATOM     22  C   UNL     1       1.391   8.389  20.477  0.00  0.00    +0.000 A 
ATOM     23  C   UNL     1       1.052   9.473  19.669  0.00  0.00    +0.000 A 
ATOM     24  C   UNL     1       1.457   9.504  18.333  0.00  0.00    +0.000 A 
ATOM     25  C   UNL     1       2.174   8.435  17.791  0.00  0.00    +0.000 A 
ENDBRANCH  19  20
ENDBRANCH  14  19
ENDBRANCH   1  14
TORSDOF 7
ENDMDL
MODEL 3
REMARK VINA RESULT:      -8.0      0.589      1.102
REMARK  Name = 
REMARK  11 active torsions:
REMARK  status: ('A' for Active; 'I' for Inactive)
REMARK    1  A    between atoms: C_1  and  O_2
REMARK    2  A    between atoms: O_2  and  C_3
REMARK    3  A    between atoms: C_3  and  C_5
REMARK    4  A    between atoms: C_7  and  S_8
REMARK    5  A    between atoms: S_8  and  N_11
REMARK    6  A    between atoms: N_11  and  C_12
REMARK    7  A    between atoms: N_11  and  C_19
REMARK    8  A    between atoms: C_12  and  C_13
REMARK    9  A    between atoms: C_19  and  C_20
REMARK   10  A    between atoms: C_19  and  C_21
REMARK   11  A    between atoms: C_19  and  C_22
REMARK                            x       y       z     vdW  Elec       q    Type
REMARK                         _______ _______ _______ _____ _____    ______ ____
ROOT
ATOM      1  S   UNL     1       5.290   4.686  18.950  0.00  0.00    +0.000 S 
ATOM      2  O   UNL     1       5.374   3.256  19.198  0.00  0.00    +0.000 OA
ATOM      3  O   UNL     1       6.081   5.605  19.745  0.00  0.00    +0.000 OA
ENDROOT
BRANCH   1   6
ATOM      4  C   UNL     1       6.374   4.707  15.113  0.00  0.00    +0.000 A 
ATOM      5  C   UNL     1       5.530   4.317  16.144  0.00  0.00    +0.000 A 
ATOM      6  C   UNL     1       5.998   4.903  17.364  0.00  0.00    +0.000 A 
ATOM      7  C   UNL     1       7.016   5.757  16.998  0.00  0.00    +0.000 A 
ATOM      8  N   UNL     1       7.287   5.577  15.666  0.00  0.00    +0.000 N 
ATOM      9  H   UNL     1       8.032   6.030  15.148  0.00  0.00    +0.000 HD
BRANCH   4  10
ATOM     10  C   UNL     1       6.433   4.364  13.713  0.00  0.00    +0.000 C 
ATOM     11  O   UNL     1       7.399   4.572  12.990  0.00  0.00    +0.000 OA
BRANCH  10  13
ATOM     12  C   UNL     1       5.333   3.219  11.998  0.00  0.00    +0.000 C 
ATOM     13  O   UNL     1       5.286   3.736  13.326  0.00  0.00    +0.000 OA
ENDBRANCH  10  13
ENDBRANCH   4  10
ENDBRANCH   1   6
BRANCH   1  14
ATOM     14  N   UNL     1       3.597   5.159  19.009  0.00  0.00    +0.000 NA
BRANCH  14  15
ATOM     15  C   UNL     1       2.568   4.013  18.754  0.00  0.00    +0.000 C 
ATOM     16  C   UNL     1       3.277   2.666  18.508  0.00  0.00    +0.000 C 
ATOM     17  C   UNL     1       1.689   3.746  20.008  0.00  0.00    +0.000 C 
ATOM     18  C   UNL     1       1.630   4.353  17.584  0.00  0.00    +0.000 C 
ENDBRANCH  14  15
BRANCH  14  19
ATOM     19  C   UNL     1       3.297   6.356  18.130  0.00  0.00    +0.000 C 
BRANCH  19  20
ATOM     20  C   UNL     1       2.468   7.486  18.679  0.00  0.00    +0.000 A 
ATOM     21  C   UNL     1       2.039   8.519  17.826  0.00  0.00    +0.000 A 
ATOM     22  C   UNL     1       1.280   9.578  18.322  0.00  0.00    +0.000 A 
ATOM     23  C   UNL     1       0.930   9.608  19.670  0.00  0.00    +0.000 A 
ATOM     24  C   UNL     1       1.309   8.563  20.515  0.00  0.00    +0.000 A 
ATOM     25  C   UNL     1       2.069   7.501  20.021  0.00  0.00    +0.000 A 
ENDBRANCH  19  20
ENDBRANCH  14  19
ENDBRANCH   1  14
TORSDOF 7
ENDMDL
MODEL 4
REMARK VINA RESULT:      -7.9      0.796      1.398
REMARK  Name = 
REMARK  11 active torsions:
REMARK  status: ('A' for Active; 'I' for Inactive)
REMARK    1  A    between atoms: C_1  and  O_2
REMARK    2  A    between atoms: O_2  and  C_3
REMARK    3  A    between atoms: C_3  and  C_5
REMARK    4  A    between atoms: C_7  and  S_8
REMARK    5  A    between atoms: S_8  and  N_11
REMARK    6  A    between atoms: N_11  and  C_12
REMARK    7  A    between atoms: N_11  and  C_19
REMARK    8  A    between atoms: C_12  and  C_13
REMARK    9  A    between atoms: C_19  and  C_20
REMARK   10  A    between atoms: C_19  and  C_21
REMARK   11  A    between atoms: C_19  and  C_22
REMARK                            x       y       z     vdW  Elec       q    Type
REMARK                         _______ _______ _______ _____ _____    ______ ____
ROOT
ATOM      1  S   UNL     1       5.229   4.630  19.069  0.00  0.00    +0.000 S 
ATOM      2  O   UNL     1       5.436   3.212  19.313  0.00  0.00    +0.000 OA
ATOM      3  O   UNL     1       5.880   5.612  19.914  0.00  0.00    +0.000 OA
ENDROOT
BRANCH   1   6
ATOM      4  C   UNL     1       6.524   4.803  15.301  0.00  0.00    +0.000 A 
ATOM      5  C   UNL     1       5.663   4.322  16.279  0.00  0.00    +0.000 A 
ATOM      6  C   UNL     1       6.003   4.933  17.529  0.00  0.00    +0.000 A 
ATOM      7  C   UNL     1       6.955   5.883  17.229  0.00  0.00    +0.000 A 
ATOM      8  N   UNL     1       7.317   5.747  15.913  0.00  0.00    +0.000 N 
ATOM      9  H   UNL     1       8.044   6.274  15.443  0.00  0.00    +0.000 HD
BRANCH   4  10
ATOM     10  C   UNL     1       6.695   4.485  13.905  0.00  0.00    +0.000 C 
ATOM     11  O   UNL     1       6.065   3.620  13.311  0.00  0.00    +0.000 OA
BRANCH  10  13
ATOM     12  C   UNL     1       7.616   5.281  11.910  0.00  0.00    +0.000 C 
ATOM     13  O   UNL     1       7.616   5.315  13.335  0.00  0.00    +0.000 OA
ENDBRANCH  10  13
ENDBRANCH   4  10
ENDBRANCH   1   6
BRANCH   1  14
ATOM     14  N   UNL     1       3.498   4.937  19.032  0.00  0.00    +0.000 NA
BRANCH  14  15
ATOM     15  C   UNL     1       2.596   3.682  18.812  0.00  0.00    +0.000 C 
ATOM     16  C   UNL     1       3.112   2.471  19.615  0.00  0.00    +0.000 C 
ATOM     17  C   UNL     1       1.160   3.908  19.364  0.00  0.00    +0.000 C 
ATOM     18  C   UNL     1       2.478   3.332  17.319  0.00  0.00    +0.000 C 
ENDBRANCH  14  15
BRANCH  14  19
ATOM     19  C   UNL     1       3.124   6.043  18.066  0.00  0.00    +0.000 C 
BRANCH  19  20
ATOM     20  C   UNL     1       2.420   7.269  18.583  0.00  0.00    +0.000 A 
ATOM     21  C   UNL     1       2.076   8.306  17.698  0.00  0.00    +0.000 A 
ATOM     22  C   UNL     1       1.435   9.452  18.164  0.00  0.00    +0.000 A 
ATOM     23  C   UNL     1       1.116   9.567  19.516  0.00  0.00    +0.000 A 
ATOM     24  C   UNL     1       1.409   8.522  20.395  0.00  0.00    +0.000 A 
ATOM     25  C   UNL     1       2.052   7.373  19.931  0.00  0.00    +0.000 A 
ENDBRANCH  19  20
ENDBRANCH  14  19
ENDBRANCH   1  14
TORSDOF 7
ENDMDL
MODEL 5
REMARK VINA RESULT:      -7.8      0.593      1.514
REMARK  Name = 
REMARK  11 active torsions:
REMARK  status: ('A' for Active; 'I' for Inactive)
REMARK    1  A    between atoms: C_1  and  O_2
REMARK    2  A    between atoms: O_2  and  C_3
REMARK    3  A    between atoms: C_3  and  C_5
REMARK    4  A    between atoms: C_7  and  S_8
REMARK    5  A    between atoms: S_8  and  N_11
REMARK    6  A    between atoms: N_11  and  C_12
REMARK    7  A    between atoms: N_11  and  C_19
REMARK    8  A    between atoms: C_12  and  C_13
REMARK    9  A    between atoms: C_19  and  C_20
REMARK   10  A    between atoms: C_19  and  C_21
REMARK   11  A    between atoms: C_19  and  C_22
REMARK                            x       y       z     vdW  Elec       q    Type
REMARK                         _______ _______ _______ _____ _____    ______ ____
ROOT
ATOM      1  S   UNL     1       5.122   4.405  19.162  0.00  0.00    +0.000 S 
ATOM      2  O   UNL     1       5.291   3.054  19.670  0.00  0.00    +0.000 OA
ATOM      3  O   UNL     1       5.709   5.525  19.873  0.00  0.00    +0.000 OA
ENDROOT
BRANCH   1   6
ATOM      4  C   UNL     1       6.516   4.470  15.426  0.00  0.00    +0.000 A 
ATOM      5  C   UNL     1       5.475   4.496  16.345  0.00  0.00    +0.000 A 
ATOM      6  C   UNL     1       6.027   4.433  17.665  0.00  0.00    +0.000 A 
ATOM      7  C   UNL     1       7.392   4.533  17.499  0.00  0.00    +0.000 A 
ATOM      8  N   UNL     1       7.681   4.477  16.160  0.00  0.00    +0.000 N 
ATOM      9  H   UNL     1       8.611   4.464  15.756  0.00  0.00    +0.000 HD
BRANCH   4  10
ATOM     10  C   UNL     1       6.549   4.431  13.985  0.00  0.00    +0.000 C 
ATOM     11  O   UNL     1       5.793   3.760  13.294  0.00  0.00    +0.000 OA
BRANCH  10  13
ATOM     12  C   UNL     1       7.691   5.194  12.094  0.00  0.00    +0.000 C 
ATOM     13  O   UNL     1       7.504   5.278  13.505  0.00  0.00    +0.000 OA
ENDBRANCH  10  13
ENDBRANCH   4  10
ENDBRANCH   1   6
BRANCH   1  14
ATOM     14  N   UNL     1       3.403   4.694  18.922  0.00  0.00    +0.000 NA
BRANCH  14  15
ATOM     15  C   UNL     1       2.578   3.467  18.423  0.00  0.00    +0.000 C 
ATOM     16  C   UNL     1       1.384   3.176  19.353  0.00  0.00    +0.000 C 
ATOM     17  C   UNL     1       1.914   3.747  17.045  0.00  0.00    +0.000 C 
ATOM     18  C   UNL     1       3.464   2.219  18.274  0.00  0.00    +0.000 C 
ENDBRANCH  14  15
BRANCH  14  19
ATOM     19  C   UNL     1       3.132   5.910  18.058  0.00  0.00    +0.000 C 
BRANCH  19  20
ATOM     20  C   UNL     1       2.436   7.102  18.658  0.00  0.00    +0.000 A 
ATOM     21  C   UNL     1       2.097   7.101  20.023  0.00  0.00    +0.000 A 
ATOM     22  C   UNL     1       1.441   8.193  20.591  0.00  0.00    +0.000 A 
ATOM     23  C   UNL     1       1.134   9.302  19.805  0.00  0.00    +0.000 A 
ATOM     24  C   UNL     1       1.510   9.332  18.461  0.00  0.00    +0.000 A 
ATOM     25  C   UNL     1       2.166   8.240  17.889  0.00  0.00    +0.000 A 
ENDBRANCH  19  20
ENDBRANCH  14  19
ENDBRANCH   1  14
TORSDOF 7
ENDMDL
MODEL 6
REMARK VINA RESULT:      -7.7      0.893      1.368
REMARK  Name = 
REMARK  11 active torsions:
REMARK  status: ('A' for Active; 'I' for Inactive)
REMARK    1  A    between atoms: C_1  and  O_2
REMARK    2  A    between atoms: O_2  and  C_3
REMARK    3  A    between atoms: C_3  and  C_5
REMARK    4  A    between atoms: C_7  and  S_8
REMARK    5  A    between atoms: S_8  and  N_11
REMARK    6  A    between atoms: N_11  and  C_12
REMARK    7  A    between atoms: N_11  and  C_19
REMARK    8  A    between atoms: C_12  and  C_13
REMARK    9  A    between atoms: C_19  and  C_20
REMARK   10  A    between atoms: C_19  and  C_21
REMARK   11  A    between atoms: C_19  and  C_22
REMARK                            x       y       z     vdW  Elec       q    Type
REMARK                         _______ _______ _______ _____ _____    ______ ____
ROOT
ATOM      1  S   UNL     1       4.532   3.402  18.687  0.00  0.00    +0.000 S 
ATOM      2  O   UNL     1       4.042   2.191  18.049  0.00  0.00    +0.000 OA
ATOM      3  O   UNL     1       5.352   3.310  19.880  0.00  0.00    +0.000 OA
ENDROOT
BRANCH   1   6
ATOM      4  C   UNL     1       6.657   4.671  15.559  0.00  0.00    +0.000 A 
ATOM      5  C   UNL     1       5.541   4.057  16.114  0.00  0.00    +0.000 A 
ATOM      6  C   UNL     1       5.667   4.080  17.540  0.00  0.00    +0.000 A 
ATOM      7  C   UNL     1       6.780   4.851  17.800  0.00  0.00    +0.000 A 
ATOM      8  N   UNL     1       7.409   5.135  16.615  0.00  0.00    +0.000 N 
ATOM      9  H   UNL     1       8.287   5.632  16.516  0.00  0.00    +0.000 HD
BRANCH   4  10
ATOM     10  C   UNL     1       7.095   4.860  14.199  0.00  0.00    +0.000 C 
ATOM     11  O   UNL     1       7.979   5.636  13.859  0.00  0.00    +0.000 OA
BRANCH  10  13
ATOM     12  C   UNL     1       6.982   3.949  12.049  0.00  0.00    +0.000 C 
ATOM     13  O   UNL     1       6.421   4.023  13.358  0.00  0.00    +0.000 OA
ENDBRANCH  10  13
ENDBRANCH   4  10
ENDBRANCH   1   6
BRANCH   1  14
ATOM     14  N   UNL     1       3.161   4.460  18.992  0.00  0.00    +0.000 NA
BRANCH  14  15
ATOM     15  C   UNL     1       1.762   3.767  18.989  0.00  0.00    +0.000 C 
ATOM     16  C   UNL     1       1.881   2.260  19.292  0.00  0.00    +0.000 C 
ATOM     17  C   UNL     1       0.856   4.304  20.133  0.00  0.00    +0.000 C 
ATOM     18  C   UNL     1       1.026   3.995  17.658  0.00  0.00    +0.000 C 
ENDBRANCH  14  15
BRANCH  14  19
ATOM     19  C   UNL     1       3.156   5.681  18.094  0.00  0.00    +0.000 C 
BRANCH  19  20
ATOM     20  C   UNL     1       2.510   6.951  18.578  0.00  0.00    +0.000 A 
ATOM     21  C   UNL     1       2.135   7.942  17.654  0.00  0.00    +0.000 A 
ATOM     22  C   UNL     1       1.546   9.129  18.089  0.00  0.00    +0.000 A 
ATOM     23  C   UNL     1       1.311   9.330  19.448  0.00  0.00    +0.000 A 
ATOM     24  C   UNL     1       1.635   8.331  20.368  0.00  0.00    +0.000 A 
ATOM     25  C   UNL     1       2.226   7.142  19.936  0.00  0.00    +0.000 A 
ENDBRANCH  19  20
ENDBRANCH  14  19
ENDBRANCH   1  14
TORSDOF 7
ENDMDL
MODEL 7
REMARK VINA RESULT:      -7.7      1.129      1.945
REMARK  Name = 
REMARK  11 active torsions:
REMARK  status: ('A' for Active; 'I' for Inactive)
REMARK    1  A    between atoms: C_1  and  O_2
REMARK    2  A    between atoms: O_2  and  C_3
REMARK    3  A    between atoms: C_3  and  C_5
REMARK    4  A    between atoms: C_7  and  S_8
REMARK    5  A    between atoms: S_8  and  N_11
REMARK    6  A    between atoms: N_11  and  C_12
REMARK    7  A    between atoms: N_11  and  C_19
REMARK    8  A    between atoms: C_12  and  C_13
REMARK    9  A    between atoms: C_19  and  C_20
REMARK   10  A    between atoms: C_19  and  C_21
REMARK   11  A    between atoms: C_19  and  C_22
REMARK                            x       y       z     vdW  Elec       q    Type
REMARK                         _______ _______ _______ _____ _____    ______ ____
ROOT
ATOM      1  S   UNL     1       4.903   4.348  19.258  0.00  0.00    +0.000 S 
ATOM      2  O   UNL     1       5.215   3.002  19.710  0.00  0.00    +0.000 OA
ATOM      3  O   UNL     1       5.748   5.458  19.654  0.00  0.00    +0.000 OA
ENDROOT
BRANCH   1   6
ATOM      4  C   UNL     1       6.201   4.482  15.490  0.00  0.00    +0.000 A 
ATOM      5  C   UNL     1       6.404   4.593  16.860  0.00  0.00    +0.000 A 
ATOM      6  C   UNL     1       5.170   4.309  17.529  0.00  0.00    +0.000 A 
ATOM      7  C   UNL     1       4.306   3.880  16.545  0.00  0.00    +0.000 A 
ATOM      8  N   UNL     1       4.902   4.059  15.323  0.00  0.00    +0.000 N 
ATOM      9  H   UNL     1       4.467   3.888  14.423  0.00  0.00    +0.000 HD
BRANCH   4  10
ATOM     10  C   UNL     1       7.051   4.729  14.352  0.00  0.00    +0.000 C 
ATOM     11  O   UNL     1       7.938   5.572  14.320  0.00  0.00    +0.000 OA
BRANCH  10  13
ATOM     12  C   UNL     1       7.222   4.290  12.062  0.00  0.00    +0.000 C 
ATOM     13  O   UNL     1       6.759   3.860  13.340  0.00  0.00    +0.000 OA
ENDBRANCH  10  13
ENDBRANCH   4  10
ENDBRANCH   1   6
BRANCH   1  14
ATOM     14  N   UNL     1       3.231   4.699  19.679  0.00  0.00    +0.000 NA
BRANCH  14  15
ATOM     15  C   UNL     1       2.367   3.465  20.087  0.00  0.00    +0.000 C 
ATOM     16  C   UNL     1       2.702   2.990  21.515  0.00  0.00    +0.000 C 
ATOM     17  C   UNL     1       0.856   3.826  20.162  0.00  0.00    +0.000 C 
ATOM     18  C   UNL     1       2.527   2.312  19.082  0.00  0.00    +0.000 C 
ENDBRANCH  14  15
BRANCH  14  19
ATOM     19  C   UNL     1       2.525   5.523  18.621  0.00  0.00    +0.000 C 
BRANCH  19  20
ATOM     20  C   UNL     1       2.119   6.937  18.936  0.00  0.00    +0.000 A 
ATOM     21  C   UNL     1       1.789   7.294  20.255  0.00  0.00    +0.000 A 
ATOM     22  C   UNL     1       1.400   8.598  20.561  0.00  0.00    +0.000 A 
ATOM     23  C   UNL     1       1.353   9.561  19.554  0.00  0.00    +0.000 A 
ATOM     24  C   UNL     1       1.727   9.228  18.250  0.00  0.00    +0.000 A 
ATOM     25  C   UNL     1       2.117   7.924  17.942  0.00  0.00    +0.000 A 
ENDBRANCH  19  20
ENDBRANCH  14  19
ENDBRANCH   1  14
TORSDOF 7
ENDMDL
MODEL 8
REMARK VINA RESULT:      -7.7      0.865      1.375
REMARK  Name = 
REMARK  11 active torsions:
REMARK  status: ('A' for Active; 'I' for Inactive)
REMARK    1  A    between atoms: C_1  and  O_2
REMARK    2  A    between atoms: O_2  and  C_3
REMARK    3  A    between atoms: C_3  and  C_5
REMARK    4  A    between atoms: C_7  and  S_8
REMARK    5  A    between atoms: S_8  and  N_11
REMARK    6  A    between atoms: N_11  and  C_12
REMARK    7  A    between atoms: N_11  and  C_19
REMARK    8  A    between atoms: C_12  and  C_13
REMARK    9  A    between atoms: C_19  and  C_20
REMARK   10  A    between atoms: C_19  and  C_21
REMARK   11  A    between atoms: C_19  and  C_22
REMARK                            x       y       z     vdW  Elec       q    Type
REMARK                         _______ _______ _______ _____ _____    ______ ____
ROOT
ATOM      1  S   UNL     1       4.702   3.729  18.633  0.00  0.00    +0.000 S 
ATOM      2  O   UNL     1       4.299   2.451  18.070  0.00  0.00    +0.000 OA
ATOM      3  O   UNL     1       5.590   3.767  19.779  0.00  0.00    +0.000 OA
ENDROOT
BRANCH   1   6
ATOM      4  C   UNL     1       6.642   4.921  15.359  0.00  0.00    +0.000 A 
ATOM      5  C   UNL     1       5.685   4.146  16.001  0.00  0.00    +0.000 A 
ATOM      6  C   UNL     1       5.702   4.462  17.397  0.00  0.00    +0.000 A 
ATOM      7  C   UNL     1       6.558   5.535  17.523  0.00  0.00    +0.000 A 
ATOM      8  N   UNL     1       7.174   5.753  16.317  0.00  0.00    +0.000 N 
ATOM      9  H   UNL     1       7.899   6.440  16.141  0.00  0.00    +0.000 HD
BRANCH   4  10
ATOM     10  C   UNL     1       7.110   4.968  13.996  0.00  0.00    +0.000 C 
ATOM     11  O   UNL     1       8.035   5.670  13.606  0.00  0.00    +0.000 OA
BRANCH  10  13
ATOM     12  C   UNL     1       7.046   3.789  11.979  0.00  0.00    +0.000 C 
ATOM     13  O   UNL     1       6.412   4.089  13.220  0.00  0.00    +0.000 OA
ENDBRANCH  10  13
ENDBRANCH   4  10
ENDBRANCH   1   6
BRANCH   1  14
ATOM     14  N   UNL     1       3.253   4.664  18.978  0.00  0.00    +0.000 NA
BRANCH  14  15
ATOM     15  C   UNL     1       1.935   3.837  19.110  0.00  0.00    +0.000 C 
ATOM     16  C   UNL     1       1.136   3.838  17.791  0.00  0.00    +0.000 C 
ATOM     17  C   UNL     1       2.228   2.332  19.365  0.00  0.00    +0.000 C 
ATOM     18  C   UNL     1       1.065   4.351  20.270  0.00  0.00    +0.000 C 
ENDBRANCH  14  15
BRANCH  14  19
ATOM     19  C   UNL     1       3.066   5.822  18.020  0.00  0.00    +0.000 C 
BRANCH  19  20
ATOM     20  C   UNL     1       2.428   7.093  18.513  0.00  0.00    +0.000 A 
ATOM     21  C   UNL     1       2.193   7.271  19.888  0.00  0.00    +0.000 A 
ATOM     22  C   UNL     1       1.593   8.438  20.359  0.00  0.00    +0.000 A 
ATOM     23  C   UNL     1       1.237   9.444  19.463  0.00  0.00    +0.000 A 
ATOM     24  C   UNL     1       1.510   9.298  18.102  0.00  0.00    +0.000 A 
ATOM     25  C   UNL     1       2.111   8.131  17.627  0.00  0.00    +0.000 A 
ENDBRANCH  19  20
ENDBRANCH  14  19
ENDBRANCH   1  14
TORSDOF 7
ENDMDL
MODEL 9
REMARK VINA RESULT:      -7.6      0.908      1.835
REMARK  Name = 
REMARK  11 active torsions:
REMARK  status: ('A' for Active; 'I' for Inactive)
REMARK    1  A    between atoms: C_1  and  O_2
REMARK    2  A    between atoms: O_2  and  C_3
REMARK    3  A    between atoms: C_3  and  C_5
REMARK    4  A    between atoms: C_7  and  S_8
REMARK    5  A    between atoms: S_8  and  N_11
REMARK    6  A    between atoms: N_11  and  C_12
REMARK    7  A    between atoms: N_11  and  C_19
REMARK    8  A    between atoms: C_12  and  C_13
REMARK    9  A    between atoms: C_19  and  C_20
REMARK   10  A    between atoms: C_19  and  C_21
REMARK   11  A    between atoms: C_19  and  C_22
REMARK                            x       y       z     vdW  Elec       q    Type
REMARK                         _______ _______ _______ _____ _____    ______ ____
ROOT
ATOM      1  S   UNL     1       5.083   4.587  19.168  0.00  0.00    +0.000 S 
ATOM      2  O   UNL     1       5.196   3.140  19.237  0.00  0.00    +0.000 OA
ATOM      3  O   UNL     1       5.897   5.419  20.034  0.00  0.00    +0.000 OA
ENDROOT
BRANCH   1   6
ATOM      4  C   UNL     1       6.330   4.852  15.389  0.00  0.00    +0.000 A 
ATOM      5  C   UNL     1       5.712   4.170  16.429  0.00  0.00    +0.000 A 
ATOM      6  C   UNL     1       5.717   5.007  17.591  0.00  0.00    +0.000 A 
ATOM      7  C   UNL     1       6.195   6.228  17.165  0.00  0.00    +0.000 A 
ATOM      8  N   UNL     1       6.630   6.105  15.871  0.00  0.00    +0.000 N 
ATOM      9  H   UNL     1       7.087   6.832  15.330  0.00  0.00    +0.000 HD
BRANCH   4  10
ATOM     10  C   UNL     1       6.671   4.476  14.039  0.00  0.00    +0.000 C 
ATOM     11  O   UNL     1       6.105   3.597  13.402  0.00  0.00    +0.000 OA
BRANCH  10  13
ATOM     12  C   UNL     1       7.703   5.365  12.139  0.00  0.00    +0.000 C 
ATOM     13  O   UNL     1       7.674   5.268  13.561  0.00  0.00    +0.000 OA
ENDBRANCH  10  13
ENDBRANCH   4  10
ENDBRANCH   1   6
BRANCH   1  14
ATOM     14  N   UNL     1       3.388   5.019  19.356  0.00  0.00    +0.000 NA
BRANCH  14  15
ATOM     15  C   UNL     1       2.402   3.820  19.512  0.00  0.00    +0.000 C 
ATOM     16  C   UNL     1       2.989   2.724  20.423  0.00  0.00    +0.000 C 
ATOM     17  C   UNL     1       1.095   4.246  20.239  0.00  0.00    +0.000 C 
ATOM     18  C   UNL     1       2.010   3.235  18.145  0.00  0.00    +0.000 C 
ENDBRANCH  14  15
BRANCH  14  19
ATOM     19  C   UNL     1       2.908   5.973  18.281  0.00  0.00    +0.000 C 
BRANCH  19  20
ATOM     20  C   UNL     1       2.291   7.286  18.681  0.00  0.00    +0.000 A 
ATOM     21  C   UNL     1       1.937   7.514  20.022  0.00  0.00    +0.000 A 
ATOM     22  C   UNL     1       1.353   8.721  20.406  0.00  0.00    +0.000 A 
ATOM     23  C   UNL     1       1.134   9.718  19.457  0.00  0.00    +0.000 A 
ATOM     24  C   UNL     1       1.527   9.520  18.131  0.00  0.00    +0.000 A 
ATOM     25  C   UNL     1       2.111   8.312  17.744  0.00  0.00    +0.000 A 
ENDBRANCH  19  20
ENDBRANCH  14  19
ENDBRANCH   1  14
TORSDOF 7
ENDMDL
