MODEL 1
REMARK VINA RESULT:      -8.5      0.000      0.000
REMARK  Name = 
REMARK  2 active torsions:
REMARK  status: ('A' for Active; 'I' for Inactive)
REMARK    1  A    between atoms: C_4  and  C_5
REMARK    2  A    between atoms: C_18  and  C_19
REMARK                            x       y       z     vdW  Elec       q    Type
REMARK                         _______ _______ _______ _____ _____    ______ ____
ROOT
ATOM      1  O   UNL     1       0.568  11.219  18.338  0.00  0.00    +0.000 OA
ATOM      2  C   UNL     1       0.683  10.386  19.230  0.00  0.00    +0.000 A 
ATOM      3  N   UNL     1       1.387   9.204  19.068  0.00  0.00    +0.000 NA
ATOM      4  C   UNL     1       1.417   8.319  20.025  0.00  0.00    +0.000 A 
ATOM      5  N   UNL     1       0.790   8.479  21.242  0.00  0.00    +0.000 N 
ATOM      6  C   UNL     1       0.162   9.630  21.498  0.00  0.00    +0.000 A 
ATOM      7  S   UNL     1      -0.561  10.038  22.961  0.00  0.00    +0.000 S 
ATOM      8  C   UNL     1      -1.063  11.564  22.345  0.00  0.00    +0.000 A 
ATOM      9  C   UNL     1      -0.628  11.742  21.041  0.00  0.00    +0.000 A 
ATOM     10  C   UNL     1       0.085  10.603  20.546  0.00  0.00    +0.000 A 
ATOM     11  H   UNL     1       0.917   7.796  21.980  0.00  0.00    +0.000 HD
ENDROOT
BRANCH   4  12
ATOM     12  C   UNL     1       2.161   7.054  19.798  0.00  0.00    +0.000 A 
ATOM     13  C   UNL     1       3.056   6.936  18.729  0.00  0.00    +0.000 A 
ATOM     14  C   UNL     1       3.695   5.716  18.495  0.00  0.00    +0.000 A 
ATOM     15  C   UNL     1       3.412   4.621  19.311  0.00  0.00    +0.000 A 
ATOM     16  C   UNL     1       2.570   4.773  20.410  0.00  0.00    +0.000 A 
ATOM     17  C   UNL     1       1.937   5.978  20.658  0.00  0.00    +0.000 A 
ATOM     18  O   UNL     1       2.282   3.743  21.263  0.00  0.00    +0.000 OA
ATOM     19  C   UNL     1       2.147   2.568  20.473  0.00  0.00    +0.000 C 
ATOM     20  C   UNL     1       3.416   2.294  19.669  0.00  0.00    +0.000 C 
ATOM     21  O   UNL     1       3.941   3.417  18.944  0.00  0.00    +0.000 OA
ENDBRANCH   4  12
BRANCH   8  22
ATOM     22  C   UNL     1      -1.847  12.481  23.172  0.00  0.00    +0.000 A 
ATOM     23  C   UNL     1      -1.326  13.737  23.518  0.00  0.00    +0.000 A 
ATOM     24  C   UNL     1      -2.084  14.645  24.257  0.00  0.00    +0.000 A 
ATOM     25  C   UNL     1      -3.360  14.307  24.689  0.00  0.00    +0.000 A 
ATOM     26  C   UNL     1      -3.892  13.062  24.376  0.00  0.00    +0.000 A 
ATOM     27  C   UNL     1      -3.134  12.149  23.626  0.00  0.00    +0.000 A 
ENDBRANCH   8  22
TORSDOF 2
ENDMDL
MODEL 2
REMARK VINA RESULT:      -8.2      2.764      9.603
REMARK  Name = 
REMARK  2 active torsions:
REMARK  status: ('A' for Active; 'I' for Inactive)
REMARK    1  A    between atoms: C_4  and  C_5
REMARK    2  A    between atoms: C_18  and  C_19
REMARK                            x       y       z     vdW  Elec       q    Type
REMARK                         _______ _______ _______ _____ _____    ______ ____
ROOT
ATOM      1  O   UNL     1       1.767   4.730  21.203  0.00  0.00    +0.000 OA
ATOM      2  C   UNL     1       1.801   5.853  20.711  0.00  0.00    +0.000 A 
ATOM      3  N   UNL     1       1.144   6.937  21.271  0.00  0.00    +0.000 NA
ATOM      4  C   UNL     1       1.152   8.094  20.669  0.00  0.00    +0.000 A 
ATOM      5  N   UNL     1       1.799   8.338  19.478  0.00  0.00    +0.000 N 
ATOM      6  C   UNL     1       2.520   7.359  18.922  0.00  0.00    +0.000 A 
ATOM      7  S   UNL     1       3.458   7.509  17.534  0.00  0.00    +0.000 S 
ATOM      8  C   UNL     1       3.933   5.858  17.614  0.00  0.00    +0.000 A 
ATOM      9  C   UNL     1       3.392   5.238  18.730  0.00  0.00    +0.000 A 
ATOM     10  C   UNL     1       2.559   6.121  19.491  0.00  0.00    +0.000 A 
ATOM     11  H   UNL     1       1.843   9.276  19.098  0.00  0.00    +0.000 HD
ENDROOT
BRANCH   4  12
ATOM     12  C   UNL     1       0.414   9.222  21.292  0.00  0.00    +0.000 A 
ATOM     13  C   UNL     1       0.084   9.193  22.651  0.00  0.00    +0.000 A 
ATOM     14  C   UNL     1      -0.668  10.235  23.200  0.00  0.00    +0.000 A 
ATOM     15  C   UNL     1      -1.107  11.276  22.383  0.00  0.00    +0.000 A 
ATOM     16  C   UNL     1      -0.715  11.322  21.047  0.00  0.00    +0.000 A 
ATOM     17  C   UNL     1       0.037  10.302  20.493  0.00  0.00    +0.000 A 
ATOM     18  O   UNL     1      -1.088  12.335  20.207  0.00  0.00    +0.000 OA
ATOM     19  C   UNL     1      -2.435  12.667  20.522  0.00  0.00    +0.000 C 
ATOM     20  C   UNL     1      -2.577  13.072  21.987  0.00  0.00    +0.000 C 
ATOM     21  O   UNL     1      -1.968  12.181  22.934  0.00  0.00    +0.000 OA
ENDBRANCH   4  12
BRANCH   8  22
ATOM     22  C   UNL     1       4.796   5.279  16.585  0.00  0.00    +0.000 A 
ATOM     23  C   UNL     1       5.061   3.901  16.582  0.00  0.00    +0.000 A 
ATOM     24  C   UNL     1       5.834   3.325  15.575  0.00  0.00    +0.000 A 
ATOM     25  C   UNL     1       6.382   4.114  14.572  0.00  0.00    +0.000 A 
ATOM     26  C   UNL     1       6.151   5.485  14.562  0.00  0.00    +0.000 A 
ATOM     27  C   UNL     1       5.366   6.066  15.570  0.00  0.00    +0.000 A 
ENDBRANCH   8  22
TORSDOF 2
ENDMDL
MODEL 3
REMARK VINA RESULT:      -8.2      0.851      1.273
REMARK  Name = 
REMARK  2 active torsions:
REMARK  status: ('A' for Active; 'I' for Inactive)
REMARK    1  A    between atoms: C_4  and  C_5
REMARK    2  A    between atoms: C_18  and  C_19
REMARK                            x       y       z     vdW  Elec       q    Type
REMARK                         _______ _______ _______ _____ _____    ______ ____
ROOT
ATOM      1  O   UNL     1       1.242  10.644  18.104  0.00  0.00    +0.000 OA
ATOM      2  C   UNL     1       1.247   9.829  19.021  0.00  0.00    +0.000 A 
ATOM      3  N   UNL     1       1.880   8.600  18.930  0.00  0.00    +0.000 NA
ATOM      4  C   UNL     1       1.793   7.741  19.907  0.00  0.00    +0.000 A 
ATOM      5  N   UNL     1       1.105   7.973  21.078  0.00  0.00    +0.000 N 
ATOM      6  C   UNL     1       0.540   9.169  21.268  0.00  0.00    +0.000 A 
ATOM      7  S   UNL     1      -0.243   9.662  22.673  0.00  0.00    +0.000 S 
ATOM      8  C   UNL     1      -0.604  11.200  21.993  0.00  0.00    +0.000 A 
ATOM      9  C   UNL     1      -0.080  11.314  20.715  0.00  0.00    +0.000 A 
ATOM     10  C   UNL     1       0.585  10.119  20.291  0.00  0.00    +0.000 A 
ATOM     11  H   UNL     1       1.142   7.304  21.838  0.00  0.00    +0.000 HD
ENDROOT
BRANCH   4  12
ATOM     12  C   UNL     1       2.465   6.425  19.755  0.00  0.00    +0.000 A 
ATOM     13  C   UNL     1       3.769   6.344  19.255  0.00  0.00    +0.000 A 
ATOM     14  C   UNL     1       4.356   5.092  19.059  0.00  0.00    +0.000 A 
ATOM     15  C   UNL     1       3.627   3.936  19.336  0.00  0.00    +0.000 A 
ATOM     16  C   UNL     1       2.355   4.035  19.895  0.00  0.00    +0.000 A 
ATOM     17  C   UNL     1       1.765   5.269  20.102  0.00  0.00    +0.000 A 
ATOM     18  O   UNL     1       1.606   2.936  20.216  0.00  0.00    +0.000 OA
ATOM     19  C   UNL     1       1.816   1.971  19.193  0.00  0.00    +0.000 C 
ATOM     20  C   UNL     1       3.295   1.622  19.055  0.00  0.00    +0.000 C 
ATOM     21  O   UNL     1       4.188   2.744  18.979  0.00  0.00    +0.000 OA
ENDBRANCH   4  12
BRANCH   8  22
ATOM     22  C   UNL     1      -1.375  12.188  22.748  0.00  0.00    +0.000 A 
ATOM     23  C   UNL     1      -2.649  11.861  23.237  0.00  0.00    +0.000 A 
ATOM     24  C   UNL     1      -3.373  12.771  24.008  0.00  0.00    +0.000 A 
ATOM     25  C   UNL     1      -2.854  14.030  24.279  0.00  0.00    +0.000 A 
ATOM     26  C   UNL     1      -1.602  14.386  23.789  0.00  0.00    +0.000 A 
ATOM     27  C   UNL     1      -0.869  13.469  23.021  0.00  0.00    +0.000 A 
ENDBRANCH   8  22
TORSDOF 2
ENDMDL
MODEL 4
REMARK VINA RESULT:      -8.0      1.194      1.483
REMARK  Name = 
REMARK  2 active torsions:
REMARK  status: ('A' for Active; 'I' for Inactive)
REMARK    1  A    between atoms: C_4  and  C_5
REMARK    2  A    between atoms: C_18  and  C_19
REMARK                            x       y       z     vdW  Elec       q    Type
REMARK                         _______ _______ _______ _____ _____    ______ ____
ROOT
ATOM      1  O   UNL     1       1.959  10.910  17.506  0.00  0.00    +0.000 OA
ATOM      2  C   UNL     1       1.858   9.998  18.320  0.00  0.00    +0.000 A 
ATOM      3  N   UNL     1       2.411   8.745  18.114  0.00  0.00    +0.000 NA
ATOM      4  C   UNL     1       2.212   7.788  18.978  0.00  0.00    +0.000 A 
ATOM      5  N   UNL     1       1.478   7.935  20.134  0.00  0.00    +0.000 N 
ATOM      6  C   UNL     1       0.984   9.139  20.437  0.00  0.00    +0.000 A 
ATOM      7  S   UNL     1       0.159   9.524  21.852  0.00  0.00    +0.000 S 
ATOM      8  C   UNL     1      -0.060  11.152  21.341  0.00  0.00    +0.000 A 
ATOM      9  C   UNL     1       0.541  11.373  20.111  0.00  0.00    +0.000 A 
ATOM     10  C   UNL     1       1.147  10.188  19.583  0.00  0.00    +0.000 A 
ATOM     11  H   UNL     1       1.427   7.182  20.811  0.00  0.00    +0.000 HD
ENDROOT
BRANCH   4  12
ATOM     12  C   UNL     1       2.802   6.453  18.705  0.00  0.00    +0.000 A 
ATOM     13  C   UNL     1       3.743   6.285  17.684  0.00  0.00    +0.000 A 
ATOM     14  C   UNL     1       4.235   5.008  17.401  0.00  0.00    +0.000 A 
ATOM     15  C   UNL     1       3.761   3.911  18.119  0.00  0.00    +0.000 A 
ATOM     16  C   UNL     1       2.874   4.104  19.176  0.00  0.00    +0.000 A 
ATOM     17  C   UNL     1       2.386   5.364  19.472  0.00  0.00    +0.000 A 
ATOM     18  O   UNL     1       2.401   3.070  19.936  0.00  0.00    +0.000 OA
ATOM     19  C   UNL     1       2.169   1.975  19.058  0.00  0.00    +0.000 C 
ATOM     20  C   UNL     1       3.443   1.586  18.310  0.00  0.00    +0.000 C 
ATOM     21  O   UNL     1       4.154   2.673  17.699  0.00  0.00    +0.000 OA
ENDBRANCH   4  12
BRANCH   8  22
ATOM     22  C   UNL     1      -0.804  12.101  22.170  0.00  0.00    +0.000 A 
ATOM     23  C   UNL     1      -0.356  13.424  22.299  0.00  0.00    +0.000 A 
ATOM     24  C   UNL     1      -1.085  14.355  23.039  0.00  0.00    +0.000 A 
ATOM     25  C   UNL     1      -2.255  13.977  23.686  0.00  0.00    +0.000 A 
ATOM     26  C   UNL     1      -2.710  12.667  23.589  0.00  0.00    +0.000 A 
ATOM     27  C   UNL     1      -1.982  11.731  22.839  0.00  0.00    +0.000 A 
ENDBRANCH   8  22
TORSDOF 2
ENDMDL
MODEL 5
REMARK VINA RESULT:      -8.0      0.880      1.958
REMARK  Name = 
REMARK  2 active torsions:
REMARK  status: ('A' for Active; 'I' for Inactive)
REMARK    1  A    between atoms: C_4  and  C_5
REMARK    2  A    between atoms: C_18  and  C_19
REMARK                            x       y       z     vdW  Elec       q    Type
REMARK                         _______ _______ _______ _____ _____    ______ ____
ROOT
ATOM      1  O   UNL     1       1.016  11.577  18.628  0.00  0.00    +0.000 OA
ATOM      2  C   UNL     1       0.933  10.683  19.463  0.00  0.00    +0.000 A 
ATOM      3  N   UNL     1       1.519   9.439  19.290  0.00  0.00    +0.000 NA
ATOM      4  C   UNL     1       1.339   8.498  20.176  0.00  0.00    +0.000 A 
ATOM      5  N   UNL     1       0.594   8.654  21.324  0.00  0.00    +0.000 N 
ATOM      6  C   UNL     1       0.069   9.852  21.595  0.00  0.00    +0.000 A 
ATOM      7  S   UNL     1      -0.774  10.250  22.996  0.00  0.00    +0.000 S 
ATOM      8  C   UNL     1      -1.030  11.859  22.445  0.00  0.00    +0.000 A 
ATOM      9  C   UNL     1      -0.428  12.066  21.214  0.00  0.00    +0.000 A 
ATOM     10  C   UNL     1       0.211  10.885  20.717  0.00  0.00    +0.000 A 
ATOM     11  H   UNL     1       0.558   7.917  22.018  0.00  0.00    +0.000 HD
ENDROOT
BRANCH   4  12
ATOM     12  C   UNL     1       1.963   7.172  19.937  0.00  0.00    +0.000 A 
ATOM     13  C   UNL     1       1.672   6.087  20.771  0.00  0.00    +0.000 A 
ATOM     14  C   UNL     1       2.321   4.867  20.567  0.00  0.00    +0.000 A 
ATOM     15  C   UNL     1       3.273   4.751  19.554  0.00  0.00    +0.000 A 
ATOM     16  C   UNL     1       3.502   5.821  18.691  0.00  0.00    +0.000 A 
ATOM     17  C   UNL     1       2.860   7.032  18.877  0.00  0.00    +0.000 A 
ATOM     18  O   UNL     1       4.399   5.754  17.662  0.00  0.00    +0.000 OA
ATOM     19  C   UNL     1       5.523   5.018  18.129  0.00  0.00    +0.000 C 
ATOM     20  C   UNL     1       5.112   3.627  18.608  0.00  0.00    +0.000 C 
ATOM     21  O   UNL     1       3.988   3.590  19.500  0.00  0.00    +0.000 OA
ENDBRANCH   4  12
BRANCH   8  22
ATOM     22  C   UNL     1      -1.803  12.809  23.248  0.00  0.00    +0.000 A 
ATOM     23  C   UNL     1      -3.121  12.506  23.618  0.00  0.00    +0.000 A 
ATOM     24  C   UNL     1      -3.851  13.374  24.430  0.00  0.00    +0.000 A 
ATOM     25  C   UNL     1      -3.291  14.570  24.862  0.00  0.00    +0.000 A 
ATOM     26  C   UNL     1      -1.993  14.902  24.492  0.00  0.00    +0.000 A 
ATOM     27  C   UNL     1      -1.254  14.026  23.682  0.00  0.00    +0.000 A 
ENDBRANCH   8  22
TORSDOF 2
ENDMDL
MODEL 6
REMARK VINA RESULT:      -8.0      1.198      2.090
REMARK  Name = 
REMARK  2 active torsions:
REMARK  status: ('A' for Active; 'I' for Inactive)
REMARK    1  A    between atoms: C_4  and  C_5
REMARK    2  A    between atoms: C_18  and  C_19
REMARK                            x       y       z     vdW  Elec       q    Type
REMARK                         _______ _______ _______ _____ _____    ______ ____
ROOT
ATOM      1  O   UNL     1      -0.141  11.212  17.987  0.00  0.00    +0.000 OA
ATOM      2  C   UNL     1       0.221  10.459  18.884  0.00  0.00    +0.000 A 
ATOM      3  N   UNL     1       1.039   9.363  18.660  0.00  0.00    +0.000 NA
ATOM      4  C   UNL     1       1.335   8.552  19.638  0.00  0.00    +0.000 A 
ATOM      5  N   UNL     1       0.892   8.713  20.933  0.00  0.00    +0.000 N 
ATOM      6  C   UNL     1       0.166   9.793  21.238  0.00  0.00    +0.000 A 
ATOM      7  S   UNL     1      -0.365  10.203  22.780  0.00  0.00    +0.000 S 
ATOM      8  C   UNL     1      -1.152  11.613  22.189  0.00  0.00    +0.000 A 
ATOM      9  C   UNL     1      -0.955  11.758  20.824  0.00  0.00    +0.000 A 
ATOM     10  C   UNL     1      -0.186  10.685  20.270  0.00  0.00    +0.000 A 
ATOM     11  H   UNL     1       1.222   8.100  21.669  0.00  0.00    +0.000 HD
ENDROOT
BRANCH   4  12
ATOM     12  C   UNL     1       2.193   7.376  19.347  0.00  0.00    +0.000 A 
ATOM     13  C   UNL     1       2.231   6.287  20.225  0.00  0.00    +0.000 A 
ATOM     14  C   UNL     1       3.095   5.221  19.965  0.00  0.00    +0.000 A 
ATOM     15  C   UNL     1       3.931   5.265  18.849  0.00  0.00    +0.000 A 
ATOM     16  C   UNL     1       3.832   6.325  17.950  0.00  0.00    +0.000 A 
ATOM     17  C   UNL     1       2.975   7.383  18.192  0.00  0.00    +0.000 A 
ATOM     18  O   UNL     1       4.603   6.405  16.823  0.00  0.00    +0.000 OA
ATOM     19  C   UNL     1       5.901   5.936  17.167  0.00  0.00    +0.000 C 
ATOM     20  C   UNL     1       5.848   4.511  17.710  0.00  0.00    +0.000 C 
ATOM     21  O   UNL     1       4.864   4.276  18.728  0.00  0.00    +0.000 OA
ENDBRANCH   4  12
BRANCH   8  22
ATOM     22  C   UNL     1      -1.910  12.480  23.092  0.00  0.00    +0.000 A 
ATOM     23  C   UNL     1      -1.383  13.720  23.484  0.00  0.00    +0.000 A 
ATOM     24  C   UNL     1      -2.118  14.582  24.298  0.00  0.00    +0.000 A 
ATOM     25  C   UNL     1      -3.374  14.211  24.760  0.00  0.00    +0.000 A 
ATOM     26  C   UNL     1      -3.910  12.979  24.403  0.00  0.00    +0.000 A 
ATOM     27  C   UNL     1      -3.176  12.114  23.577  0.00  0.00    +0.000 A 
ENDBRANCH   8  22
TORSDOF 2
ENDMDL
MODEL 7
REMARK VINA RESULT:      -8.0      2.432      3.135
REMARK  Name = 
REMARK  2 active torsions:
REMARK  status: ('A' for Active; 'I' for Inactive)
REMARK    1  A    between atoms: C_4  and  C_5
REMARK    2  A    between atoms: C_18  and  C_19
REMARK                            x       y       z     vdW  Elec       q    Type
REMARK                         _______ _______ _______ _____ _____    ______ ____
ROOT
ATOM      1  O   UNL     1       0.442   9.901  23.321  0.00  0.00    +0.000 OA
ATOM      2  C   UNL     1       0.677   9.703  22.134  0.00  0.00    +0.000 A 
ATOM      3  N   UNL     1       1.146   8.490  21.654  0.00  0.00    +0.000 NA
ATOM      4  C   UNL     1       1.450   8.354  20.393  0.00  0.00    +0.000 A 
ATOM      5  N   UNL     1       1.322   9.358  19.458  0.00  0.00    +0.000 N 
ATOM      6  C   UNL     1       0.798  10.528  19.834  0.00  0.00    +0.000 A 
ATOM      7  S   UNL     1       0.471  11.821  18.809  0.00  0.00    +0.000 S 
ATOM      8  C   UNL     1      -0.115  12.774  20.115  0.00  0.00    +0.000 A 
ATOM      9  C   UNL     1      -0.083  12.063  21.304  0.00  0.00    +0.000 A 
ATOM     10  C   UNL     1       0.459  10.748  21.136  0.00  0.00    +0.000 A 
ATOM     11  H   UNL     1       1.492   9.171  18.477  0.00  0.00    +0.000 HD
ENDROOT
BRANCH   4  12
ATOM     12  C   UNL     1       1.975   7.045  19.928  0.00  0.00    +0.000 A 
ATOM     13  C   UNL     1       2.612   6.933  18.688  0.00  0.00    +0.000 A 
ATOM     14  C   UNL     1       3.039   5.680  18.243  0.00  0.00    +0.000 A 
ATOM     15  C   UNL     1       2.800   4.550  19.025  0.00  0.00    +0.000 A 
ATOM     16  C   UNL     1       2.224   4.689  20.286  0.00  0.00    +0.000 A 
ATOM     17  C   UNL     1       1.804   5.925  20.742  0.00  0.00    +0.000 A 
ATOM     18  O   UNL     1       1.994   3.621  21.109  0.00  0.00    +0.000 OA
ATOM     19  C   UNL     1       1.562   2.542  20.289  0.00  0.00    +0.000 C 
ATOM     20  C   UNL     1       2.597   2.213  19.217  0.00  0.00    +0.000 C 
ATOM     21  O   UNL     1       3.094   3.336  18.475  0.00  0.00    +0.000 OA
ENDBRANCH   4  12
BRANCH   8  22
ATOM     22  C   UNL     1      -0.562  14.150  19.894  0.00  0.00    +0.000 A 
ATOM     23  C   UNL     1      -1.560  14.705  20.708  0.00  0.00    +0.000 A 
ATOM     24  C   UNL     1      -1.956  16.033  20.548  0.00  0.00    +0.000 A 
ATOM     25  C   UNL     1      -1.387  16.820  19.554  0.00  0.00    +0.000 A 
ATOM     26  C   UNL     1      -0.410  16.288  18.721  0.00  0.00    +0.000 A 
ATOM     27  C   UNL     1      -0.004  14.954  18.887  0.00  0.00    +0.000 A 
ENDBRANCH   8  22
TORSDOF 2
ENDMDL
MODEL 8
REMARK VINA RESULT:      -7.9      2.585      9.283
REMARK  Name = 
REMARK  2 active torsions:
REMARK  status: ('A' for Active; 'I' for Inactive)
REMARK    1  A    between atoms: C_4  and  C_5
REMARK    2  A    between atoms: C_18  and  C_19
REMARK                            x       y       z     vdW  Elec       q    Type
REMARK                         _______ _______ _______ _____ _____    ______ ____
ROOT
ATOM      1  O   UNL     1       2.221   9.457  17.265  0.00  0.00    +0.000 OA
ATOM      2  C   UNL     1       1.819   9.186  18.391  0.00  0.00    +0.000 A 
ATOM      3  N   UNL     1       1.222  10.123  19.220  0.00  0.00    +0.000 NA
ATOM      4  C   UNL     1       0.878   9.800  20.436  0.00  0.00    +0.000 A 
ATOM      5  N   UNL     1       1.055   8.547  20.980  0.00  0.00    +0.000 N 
ATOM      6  C   UNL     1       1.549   7.573  20.210  0.00  0.00    +0.000 A 
ATOM      7  S   UNL     1       1.732   5.966  20.673  0.00  0.00    +0.000 S 
ATOM      8  C   UNL     1       2.398   5.548  19.143  0.00  0.00    +0.000 A 
ATOM      9  C   UNL     1       2.428   6.646  18.297  0.00  0.00    +0.000 A 
ATOM     10  C   UNL     1       1.935   7.833  18.929  0.00  0.00    +0.000 A 
ATOM     11  H   UNL     1       0.692   8.330  21.901  0.00  0.00    +0.000 HD
ENDROOT
BRANCH   4  12
ATOM     12  C   UNL     1       0.267  10.843  21.299  0.00  0.00    +0.000 A 
ATOM     13  C   UNL     1      -0.605  10.490  22.334  0.00  0.00    +0.000 A 
ATOM     14  C   UNL     1      -1.220  11.491  23.090  0.00  0.00    +0.000 A 
ATOM     15  C   UNL     1      -0.982  12.831  22.787  0.00  0.00    +0.000 A 
ATOM     16  C   UNL     1      -0.060  13.165  21.797  0.00  0.00    +0.000 A 
ATOM     17  C   UNL     1       0.562  12.183  21.046  0.00  0.00    +0.000 A 
ATOM     18  O   UNL     1       0.238  14.461  21.478  0.00  0.00    +0.000 OA
ATOM     19  C   UNL     1      -0.977  15.199  21.540  0.00  0.00    +0.000 C 
ATOM     20  C   UNL     1      -1.618  15.093  22.921  0.00  0.00    +0.000 C 
ATOM     21  O   UNL     1      -1.726  13.763  23.450  0.00  0.00    +0.000 OA
ENDBRANCH   4  12
BRANCH   8  22
ATOM     22  C   UNL     1       2.848   4.182  18.873  0.00  0.00    +0.000 A 
ATOM     23  C   UNL     1       3.768   3.562  19.732  0.00  0.00    +0.000 A 
ATOM     24  C   UNL     1       4.163   2.241  19.521  0.00  0.00    +0.000 A 
ATOM     25  C   UNL     1       3.672   1.527  18.436  0.00  0.00    +0.000 A 
ATOM     26  C   UNL     1       2.775   2.124  17.559  0.00  0.00    +0.000 A 
ATOM     27  C   UNL     1       2.369   3.451  17.774  0.00  0.00    +0.000 A 
ENDBRANCH   8  22
TORSDOF 2
ENDMDL
MODEL 9
REMARK VINA RESULT:      -7.8      2.136      2.609
REMARK  Name = 
REMARK  2 active torsions:
REMARK  status: ('A' for Active; 'I' for Inactive)
REMARK    1  A    between atoms: C_4  and  C_5
REMARK    2  A    between atoms: C_18  and  C_19
REMARK                            x       y       z     vdW  Elec       q    Type
REMARK                         _______ _______ _______ _____ _____    ______ ____
ROOT
ATOM      1  O   UNL     1       0.446   9.574  23.931  0.00  0.00    +0.000 OA
ATOM      2  C   UNL     1       0.383   9.619  22.708  0.00  0.00    +0.000 A 
ATOM      3  N   UNL     1       1.103   8.766  21.887  0.00  0.00    +0.000 NA
ATOM      4  C   UNL     1       1.056   8.903  20.591  0.00  0.00    +0.000 A 
ATOM      5  N   UNL     1       0.304   9.860  19.945  0.00  0.00    +0.000 N 
ATOM      6  C   UNL     1      -0.479  10.664  20.671  0.00  0.00    +0.000 A 
ATOM      7  S   UNL     1      -1.539  11.811  20.046  0.00  0.00    +0.000 S 
ATOM      8  C   UNL     1      -2.027  12.293  21.623  0.00  0.00    +0.000 A 
ATOM      9  C   UNL     1      -1.394  11.533  22.595  0.00  0.00    +0.000 A 
ATOM     10  C   UNL     1      -0.482  10.583  22.031  0.00  0.00    +0.000 A 
ATOM     11  H   UNL     1       0.238   9.867  18.934  0.00  0.00    +0.000 HD
ENDROOT
BRANCH   4  12
ATOM     12  C   UNL     1       1.865   7.984  19.751  0.00  0.00    +0.000 A 
ATOM     13  C   UNL     1       2.297   8.375  18.479  0.00  0.00    +0.000 A 
ATOM     14  C   UNL     1       3.000   7.470  17.681  0.00  0.00    +0.000 A 
ATOM     15  C   UNL     1       3.239   6.178  18.147  0.00  0.00    +0.000 A 
ATOM     16  C   UNL     1       2.860   5.826  19.441  0.00  0.00    +0.000 A 
ATOM     17  C   UNL     1       2.170   6.715  20.245  0.00  0.00    +0.000 A 
ATOM     18  O   UNL     1       3.096   4.584  19.963  0.00  0.00    +0.000 OA
ATOM     19  C   UNL     1       2.878   3.641  18.920  0.00  0.00    +0.000 C 
ATOM     20  C   UNL     1       3.776   3.926  17.720  0.00  0.00    +0.000 C 
ATOM     21  O   UNL     1       3.788   5.288  17.269  0.00  0.00    +0.000 OA
ENDBRANCH   4  12
BRANCH   8  22
ATOM     22  C   UNL     1      -2.991  13.379  21.808  0.00  0.00    +0.000 A 
ATOM     23  C   UNL     1      -4.077  13.215  22.680  0.00  0.00    +0.000 A 
ATOM     24  C   UNL     1      -4.972  14.260  22.910  0.00  0.00    +0.000 A 
ATOM     25  C   UNL     1      -4.817  15.474  22.254  0.00  0.00    +0.000 A 
ATOM     26  C   UNL     1      -3.759  15.656  21.370  0.00  0.00    +0.000 A 
ATOM     27  C   UNL     1      -2.854  14.608  21.143  0.00  0.00    +0.000 A 
ENDBRANCH   8  22
TORSDOF 2
ENDMDL
