MODEL 1
REMARK VINA RESULT:      -9.4      0.000      0.000
REMARK  Name = 
REMARK  3 active torsions:
REMARK  status: ('A' for Active; 'I' for Inactive)
REMARK    1  A    between atoms: C_2  and  C_23
REMARK    2  A    between atoms: C_8  and  C_9
REMARK    3  A    between atoms: C_13  and  C_14
REMARK                            x       y       z     vdW  Elec       q    Type
REMARK                         _______ _______ _______ _____ _____    ______ ____
ROOT
ATOM      1  O   UNL     1      -1.492  12.687  20.535  0.00  0.00    +0.000 OA
ATOM      2  C   UNL     1      -1.208  12.265  21.654  0.00  0.00    +0.000 C 
ATOM      3  N   UNL     1      -0.363  11.221  21.953  0.00  0.00    +0.000 N 
ATOM      4  C   UNL     1       0.318  10.508  21.003  0.00  0.00    +0.000 A 
ATOM      5  N   UNL     1       0.848   9.295  21.350  0.00  0.00    +0.000 NA
ATOM      6  C   UNL     1       1.335   8.848  20.211  0.00  0.00    +0.000 A 
ATOM      7  C   UNL     1       1.972   7.625  19.842  0.00  0.00    +0.000 A 
ATOM      8  C   UNL     1       2.413   7.441  18.574  0.00  0.00    +0.000 A 
ATOM      9  C   UNL     1       2.236   8.499  17.571  0.00  0.00    +0.000 A 
ATOM     10  C   UNL     1       1.628   9.642  17.918  0.00  0.00    +0.000 A 
ATOM     11  N   UNL     1       1.171   9.814  19.220  0.00  0.00    +0.000 N 
ATOM     12  N   UNL     1       0.526  10.872  19.741  0.00  0.00    +0.000 NA
ATOM     13  H   UNL     1      -0.344  10.808  22.872  0.00  0.00    +0.000 HD
ENDROOT
BRANCH   2  14
ATOM     14  C   UNL     1      -1.900  12.894  22.807  0.00  0.00    +0.000 A 
ATOM     15  C   UNL     1      -1.400  14.038  23.442  0.00  0.00    +0.000 A 
ATOM     16  C   UNL     1      -2.115  14.614  24.496  0.00  0.00    +0.000 A 
ATOM     17  C   UNL     1      -3.324  14.054  24.915  0.00  0.00    +0.000 A 
ATOM     18  C   UNL     1      -3.822  12.920  24.276  0.00  0.00    +0.000 A 
ATOM     19 CL   UNL     1      -5.315  12.236  24.789  0.00  0.00    +0.000 Cl
ATOM     20  C   UNL     1      -3.121  12.340  23.223  0.00  0.00    +0.000 A 
ENDBRANCH   2  14
BRANCH   8  21
ATOM     21  C   UNL     1       3.122   6.192  18.244  0.00  0.00    +0.000 A 
ATOM     22  C   UNL     1       4.436   6.204  17.766  0.00  0.00    +0.000 A 
ATOM     23  C   UNL     1       5.099   5.003  17.501  0.00  0.00    +0.000 A 
ATOM     24  C   UNL     1       4.453   3.784  17.715  0.00  0.00    +0.000 A 
ATOM     25  C   UNL     1       3.138   3.751  18.200  0.00  0.00    +0.000 A 
ATOM     26  C   UNL     1       2.482   4.965  18.465  0.00  0.00    +0.000 A 
BRANCH  25  27
ATOM     27  C   UNL     1       2.423   2.446  18.445  0.00  0.00    +0.000 C 
ATOM     28  F   UNL     1       2.554   1.982  19.718  0.00  0.00    +0.000 F 
ATOM     29  F   UNL     1       1.083   2.536  18.217  0.00  0.00    +0.000 F 
ATOM     30  F   UNL     1       2.873   1.448  17.635  0.00  0.00    +0.000 F 
ENDBRANCH  25  27
ENDBRANCH   8  21
TORSDOF 3
ENDMDL
MODEL 2
REMARK VINA RESULT:      -9.3      1.772      2.280
REMARK  Name = 
REMARK  3 active torsions:
REMARK  status: ('A' for Active; 'I' for Inactive)
REMARK    1  A    between atoms: C_2  and  C_23
REMARK    2  A    between atoms: C_8  and  C_9
REMARK    3  A    between atoms: C_13  and  C_14
REMARK                            x       y       z     vdW  Elec       q    Type
REMARK                         _______ _______ _______ _____ _____    ______ ____
ROOT
ATOM      1  O   UNL     1      -1.345  12.514  20.496  0.00  0.00    +0.000 OA
ATOM      2  C   UNL     1      -1.055  12.126  21.624  0.00  0.00    +0.000 C 
ATOM      3  N   UNL     1      -0.222  11.080  21.949  0.00  0.00    +0.000 N 
ATOM      4  C   UNL     1       0.437  10.325  21.015  0.00  0.00    +0.000 A 
ATOM      5  N   UNL     1       0.954   9.116  21.398  0.00  0.00    +0.000 NA
ATOM      6  C   UNL     1       1.421   8.624  20.269  0.00  0.00    +0.000 A 
ATOM      7  C   UNL     1       2.034   7.379  19.933  0.00  0.00    +0.000 A 
ATOM      8  C   UNL     1       2.458   7.147  18.668  0.00  0.00    +0.000 A 
ATOM      9  C   UNL     1       2.285   8.173  17.632  0.00  0.00    +0.000 A 
ATOM     10  C   UNL     1       1.698   9.337  17.947  0.00  0.00    +0.000 A 
ATOM     11  N   UNL     1       1.259   9.559  19.248  0.00  0.00    +0.000 N 
ATOM     12  N   UNL     1       0.636  10.643  19.740  0.00  0.00    +0.000 NA
ATOM     13  H   UNL     1      -0.197  10.697  22.881  0.00  0.00    +0.000 HD
ENDROOT
BRANCH   2  14
ATOM     14  C   UNL     1      -1.723  12.804  22.763  0.00  0.00    +0.000 A 
ATOM     15  C   UNL     1      -1.207  13.970  23.343  0.00  0.00    +0.000 A 
ATOM     16  C   UNL     1      -1.901  14.591  24.385  0.00  0.00    +0.000 A 
ATOM     17  C   UNL     1      -3.105  14.053  24.848  0.00  0.00    +0.000 A 
ATOM     18  C   UNL     1      -3.618  12.896  24.264  0.00  0.00    +0.000 A 
ATOM     19 CL   UNL     1      -5.104  12.241  24.831  0.00  0.00    +0.000 Cl
ATOM     20  C   UNL     1      -2.938  12.272  23.224  0.00  0.00    +0.000 A 
ENDBRANCH   2  14
BRANCH   8  21
ATOM     21  C   UNL     1       3.144   5.877  18.372  0.00  0.00    +0.000 A 
ATOM     22  C   UNL     1       2.784   4.687  19.012  0.00  0.00    +0.000 A 
ATOM     23  C   UNL     1       3.423   3.490  18.681  0.00  0.00    +0.000 A 
ATOM     24  C   UNL     1       4.423   3.474  17.706  0.00  0.00    +0.000 A 
ATOM     25  C   UNL     1       4.793   4.656  17.049  0.00  0.00    +0.000 A 
ATOM     26  C   UNL     1       4.142   5.854  17.388  0.00  0.00    +0.000 A 
BRANCH  25  27
ATOM     27  C   UNL     1       5.865   4.662  15.988  0.00  0.00    +0.000 C 
ATOM     28  F   UNL     1       7.128   4.557  16.487  0.00  0.00    +0.000 F 
ATOM     29  F   UNL     1       5.728   3.635  15.104  0.00  0.00    +0.000 F 
ATOM     30  F   UNL     1       5.851   5.801  15.243  0.00  0.00    +0.000 F 
ENDBRANCH  25  27
ENDBRANCH   8  21
TORSDOF 3
ENDMDL
MODEL 3
REMARK VINA RESULT:      -9.2      1.057      1.562
REMARK  Name = 
REMARK  3 active torsions:
REMARK  status: ('A' for Active; 'I' for Inactive)
REMARK    1  A    between atoms: C_2  and  C_23
REMARK    2  A    between atoms: C_8  and  C_9
REMARK    3  A    between atoms: C_13  and  C_14
REMARK                            x       y       z     vdW  Elec       q    Type
REMARK                         _______ _______ _______ _____ _____    ______ ____
ROOT
ATOM      1  O   UNL     1      -1.511  12.943  20.662  0.00  0.00    +0.000 OA
ATOM      2  C   UNL     1      -1.318  12.431  21.762  0.00  0.00    +0.000 C 
ATOM      3  N   UNL     1      -0.544  11.326  22.034  0.00  0.00    +0.000 N 
ATOM      4  C   UNL     1       0.161  10.646  21.076  0.00  0.00    +0.000 A 
ATOM      5  N   UNL     1       0.610   9.386  21.366  0.00  0.00    +0.000 NA
ATOM      6  C   UNL     1       1.146   8.995  20.228  0.00  0.00    +0.000 A 
ATOM      7  C   UNL     1       1.745   7.769  19.809  0.00  0.00    +0.000 A 
ATOM      8  C   UNL     1       2.256   7.651  18.560  0.00  0.00    +0.000 A 
ATOM      9  C   UNL     1       2.192   8.784  17.627  0.00  0.00    +0.000 A 
ATOM     10  C   UNL     1       1.618   9.930  18.019  0.00  0.00    +0.000 A 
ATOM     11  N   UNL     1       1.090  10.034  19.301  0.00  0.00    +0.000 N 
ATOM     12  N   UNL     1       0.464  11.085  19.858  0.00  0.00    +0.000 NA
ATOM     13  H   UNL     1      -0.602  10.849  22.920  0.00  0.00    +0.000 HD
ENDROOT
BRANCH   2  14
ATOM     14  C   UNL     1      -2.050  13.013  22.914  0.00  0.00    +0.000 A 
ATOM     15  C   UNL     1      -3.227  12.441  23.416  0.00  0.00    +0.000 A 
ATOM     16  C   UNL     1      -3.851  13.007  24.531  0.00  0.00    +0.000 A 
ATOM     17  C   UNL     1      -3.306  14.138  25.144  0.00  0.00    +0.000 A 
ATOM     18  C   UNL     1      -2.133  14.701  24.645  0.00  0.00    +0.000 A 
ATOM     19 CL   UNL     1      -1.460  16.089  25.407  0.00  0.00    +0.000 Cl
ATOM     20  C   UNL     1      -1.500  14.143  23.539  0.00  0.00    +0.000 A 
ENDBRANCH   2  14
BRANCH   8  21
ATOM     21  C   UNL     1       2.924   6.393  18.182  0.00  0.00    +0.000 A 
ATOM     22  C   UNL     1       4.216   6.386  17.649  0.00  0.00    +0.000 A 
ATOM     23  C   UNL     1       4.842   5.175  17.339  0.00  0.00    +0.000 A 
ATOM     24  C   UNL     1       4.181   3.966  17.563  0.00  0.00    +0.000 A 
ATOM     25  C   UNL     1       2.887   3.953  18.104  0.00  0.00    +0.000 A 
ATOM     26  C   UNL     1       2.269   5.176  18.414  0.00  0.00    +0.000 A 
BRANCH  25  27
ATOM     27  C   UNL     1       2.157   2.659  18.362  0.00  0.00    +0.000 C 
ATOM     28  F   UNL     1       2.480   1.665  17.489  0.00  0.00    +0.000 F 
ATOM     29  F   UNL     1       2.406   2.160  19.605  0.00  0.00    +0.000 F 
ATOM     30  F   UNL     1       0.805   2.802  18.282  0.00  0.00    +0.000 F 
ENDBRANCH  25  27
ENDBRANCH   8  21
TORSDOF 3
ENDMDL
MODEL 4
REMARK VINA RESULT:      -9.1      2.044      2.695
REMARK  Name = 
REMARK  3 active torsions:
REMARK  status: ('A' for Active; 'I' for Inactive)
REMARK    1  A    between atoms: C_2  and  C_23
REMARK    2  A    between atoms: C_8  and  C_9
REMARK    3  A    between atoms: C_13  and  C_14
REMARK                            x       y       z     vdW  Elec       q    Type
REMARK                         _______ _______ _______ _____ _____    ______ ____
ROOT
ATOM      1  O   UNL     1      -1.348  12.621  20.379  0.00  0.00    +0.000 OA
ATOM      2  C   UNL     1      -1.158  12.176  21.509  0.00  0.00    +0.000 C 
ATOM      3  N   UNL     1      -0.372  11.100  21.852  0.00  0.00    +0.000 N 
ATOM      4  C   UNL     1       0.350  10.374  20.942  0.00  0.00    +0.000 A 
ATOM      5  N   UNL     1       0.813   9.140  21.309  0.00  0.00    +0.000 NA
ATOM      6  C   UNL     1       1.363   8.690  20.200  0.00  0.00    +0.000 A 
ATOM      7  C   UNL     1       1.983   7.449  19.859  0.00  0.00    +0.000 A 
ATOM      8  C   UNL     1       2.506   7.265  18.623  0.00  0.00    +0.000 A 
ATOM      9  C   UNL     1       2.435   8.340  17.625  0.00  0.00    +0.000 A 
ATOM     10  C   UNL     1       1.843   9.500  17.944  0.00  0.00    +0.000 A 
ATOM     11  N   UNL     1       1.302   9.672  19.214  0.00  0.00    +0.000 N 
ATOM     12  N   UNL     1       0.658  10.745  19.703  0.00  0.00    +0.000 NA
ATOM     13  H   UNL     1      -0.431  10.676  22.764  0.00  0.00    +0.000 HD
ENDROOT
BRANCH   2  14
ATOM     14  C   UNL     1      -1.908  12.816  22.619  0.00  0.00    +0.000 A 
ATOM     15  C   UNL     1      -3.173  12.366  23.021  0.00  0.00    +0.000 A 
ATOM     16  C   UNL     1      -3.815  12.978  24.101  0.00  0.00    +0.000 A 
ATOM     17  C   UNL     1      -3.199  14.033  24.779  0.00  0.00    +0.000 A 
ATOM     18  C   UNL     1      -1.939  14.473  24.381  0.00  0.00    +0.000 A 
ATOM     19 CL   UNL     1      -1.180  15.768  25.222  0.00  0.00    +0.000 Cl
ATOM     20  C   UNL     1      -1.288  13.869  23.310  0.00  0.00    +0.000 A 
ENDBRANCH   2  14
BRANCH   8  21
ATOM     21  C   UNL     1       3.194   5.996  18.326  0.00  0.00    +0.000 A 
ATOM     22  C   UNL     1       2.884   4.820  19.016  0.00  0.00    +0.000 A 
ATOM     23  C   UNL     1       3.521   3.622  18.684  0.00  0.00    +0.000 A 
ATOM     24  C   UNL     1       4.469   3.592  17.660  0.00  0.00    +0.000 A 
ATOM     25  C   UNL     1       4.788   4.759  16.951  0.00  0.00    +0.000 A 
ATOM     26  C   UNL     1       4.139   5.958  17.292  0.00  0.00    +0.000 A 
BRANCH  25  27
ATOM     27  C   UNL     1       5.803   4.750  15.836  0.00  0.00    +0.000 C 
ATOM     28  F   UNL     1       5.475   5.559  14.791  0.00  0.00    +0.000 F 
ATOM     29  F   UNL     1       7.035   5.156  16.251  0.00  0.00    +0.000 F 
ATOM     30  F   UNL     1       5.979   3.508  15.306  0.00  0.00    +0.000 F 
ENDBRANCH  25  27
ENDBRANCH   8  21
TORSDOF 3
ENDMDL
MODEL 5
REMARK VINA RESULT:      -9.1      3.833      4.691
REMARK  Name = 
REMARK  3 active torsions:
REMARK  status: ('A' for Active; 'I' for Inactive)
REMARK    1  A    between atoms: C_2  and  C_23
REMARK    2  A    between atoms: C_8  and  C_9
REMARK    3  A    between atoms: C_13  and  C_14
REMARK                            x       y       z     vdW  Elec       q    Type
REMARK                         _______ _______ _______ _____ _____    ______ ____
ROOT
ATOM      1  O   UNL     1       1.125  13.461  20.541  0.00  0.00    +0.000 OA
ATOM      2  C   UNL     1       1.157  13.660  19.328  0.00  0.00    +0.000 C 
ATOM      3  N   UNL     1       1.324  12.716  18.341  0.00  0.00    +0.000 N 
ATOM      4  C   UNL     1       1.453  11.376  18.594  0.00  0.00    +0.000 A 
ATOM      5  N   UNL     1       1.952  10.569  17.608  0.00  0.00    +0.000 NA
ATOM      6  C   UNL     1       2.032   9.395  18.199  0.00  0.00    +0.000 A 
ATOM      7  C   UNL     1       2.521   8.124  17.771  0.00  0.00    +0.000 A 
ATOM      8  C   UNL     1       2.449   7.052  18.596  0.00  0.00    +0.000 A 
ATOM      9  C   UNL     1       1.871   7.192  19.938  0.00  0.00    +0.000 A 
ATOM     10  C   UNL     1       1.423   8.389  20.343  0.00  0.00    +0.000 A 
ATOM     11  N   UNL     1       1.512   9.483  19.489  0.00  0.00    +0.000 N 
ATOM     12  N   UNL     1       1.139  10.753  19.726  0.00  0.00    +0.000 NA
ATOM     13  H   UNL     1       1.544  12.980  17.394  0.00  0.00    +0.000 HD
ENDROOT
BRANCH   2  14
ATOM     14  C   UNL     1       1.082  15.071  18.875  0.00  0.00    +0.000 A 
ATOM     15  C   UNL     1       2.198  15.753  18.372  0.00  0.00    +0.000 A 
ATOM     16  C   UNL     1       2.061  17.068  17.919  0.00  0.00    +0.000 A 
ATOM     17  C   UNL     1       0.816  17.701  17.965  0.00  0.00    +0.000 A 
ATOM     18  C   UNL     1      -0.292  17.018  18.460  0.00  0.00    +0.000 A 
ATOM     19 CL   UNL     1      -1.825  17.798  18.508  0.00  0.00    +0.000 Cl
ATOM     20  C   UNL     1      -0.169  15.707  18.910  0.00  0.00    +0.000 A 
ENDBRANCH   2  14
BRANCH   8  21
ATOM     21  C   UNL     1       2.904   5.742  18.097  0.00  0.00    +0.000 A 
ATOM     22  C   UNL     1       2.110   4.598  18.222  0.00  0.00    +0.000 A 
ATOM     23  C   UNL     1       2.548   3.378  17.703  0.00  0.00    +0.000 A 
ATOM     24  C   UNL     1       3.781   3.293  17.054  0.00  0.00    +0.000 A 
ATOM     25  C   UNL     1       4.589   4.431  16.913  0.00  0.00    +0.000 A 
ATOM     26  C   UNL     1       4.137   5.654  17.437  0.00  0.00    +0.000 A 
BRANCH  25  27
ATOM     27  C   UNL     1       5.921   4.366  16.209  0.00  0.00    +0.000 C 
ATOM     28  F   UNL     1       6.145   5.411  15.364  0.00  0.00    +0.000 F 
ATOM     29  F   UNL     1       6.969   4.360  17.079  0.00  0.00    +0.000 F 
ATOM     30  F   UNL     1       6.055   3.240  15.455  0.00  0.00    +0.000 F 
ENDBRANCH  25  27
ENDBRANCH   8  21
TORSDOF 3
ENDMDL
MODEL 6
REMARK VINA RESULT:      -9.0      3.564      4.309
REMARK  Name = 
REMARK  3 active torsions:
REMARK  status: ('A' for Active; 'I' for Inactive)
REMARK    1  A    between atoms: C_2  and  C_23
REMARK    2  A    between atoms: C_8  and  C_9
REMARK    3  A    between atoms: C_13  and  C_14
REMARK                            x       y       z     vdW  Elec       q    Type
REMARK                         _______ _______ _______ _____ _____    ______ ____
ROOT
ATOM      1  O   UNL     1       1.196  13.723  20.466  0.00  0.00    +0.000 OA
ATOM      2  C   UNL     1       1.232  13.866  19.246  0.00  0.00    +0.000 C 
ATOM      3  N   UNL     1       1.362  12.873  18.302  0.00  0.00    +0.000 N 
ATOM      4  C   UNL     1       1.445  11.542  18.615  0.00  0.00    +0.000 A 
ATOM      5  N   UNL     1       1.913  10.674  17.666  0.00  0.00    +0.000 NA
ATOM      6  C   UNL     1       1.953   9.526  18.310  0.00  0.00    +0.000 A 
ATOM      7  C   UNL     1       2.396   8.220  17.939  0.00  0.00    +0.000 A 
ATOM      8  C   UNL     1       2.288   7.190  18.811  0.00  0.00    +0.000 A 
ATOM      9  C   UNL     1       1.720   7.411  20.147  0.00  0.00    +0.000 A 
ATOM     10  C   UNL     1       1.316   8.640  20.498  0.00  0.00    +0.000 A 
ATOM     11  N   UNL     1       1.440   9.691  19.595  0.00  0.00    +0.000 N 
ATOM     12  N   UNL     1       1.113  10.982  19.775  0.00  0.00    +0.000 NA
ATOM     13  H   UNL     1       1.589  13.086  17.343  0.00  0.00    +0.000 HD
ENDROOT
BRANCH   2  14
ATOM     14  C   UNL     1       1.205  15.257  18.729  0.00  0.00    +0.000 A 
ATOM     15  C   UNL     1       2.342  15.874  18.190  0.00  0.00    +0.000 A 
ATOM     16  C   UNL     1       2.249  17.171  17.678  0.00  0.00    +0.000 A 
ATOM     17  C   UNL     1       1.029  17.851  17.702  0.00  0.00    +0.000 A 
ATOM     18  C   UNL     1      -0.100  17.232  18.233  0.00  0.00    +0.000 A 
ATOM     19 CL   UNL     1      -1.603  18.069  18.254  0.00  0.00    +0.000 Cl
ATOM     20  C   UNL     1      -0.021  15.939  18.742  0.00  0.00    +0.000 A 
ENDBRANCH   2  14
BRANCH   8  21
ATOM     21  C   UNL     1       2.696   5.843  18.372  0.00  0.00    +0.000 A 
ATOM     22  C   UNL     1       3.769   5.656  17.496  0.00  0.00    +0.000 A 
ATOM     23  C   UNL     1       4.160   4.366  17.130  0.00  0.00    +0.000 A 
ATOM     24  C   UNL     1       3.484   3.256  17.639  0.00  0.00    +0.000 A 
ATOM     25  C   UNL     1       2.409   3.423  18.525  0.00  0.00    +0.000 A 
ATOM     26  C   UNL     1       2.026   4.726  18.888  0.00  0.00    +0.000 A 
BRANCH  25  27
ATOM     27  C   UNL     1       1.668   2.240  19.093  0.00  0.00    +0.000 C 
ATOM     28  F   UNL     1       1.479   2.309  20.440  0.00  0.00    +0.000 F 
ATOM     29  F   UNL     1       0.428   2.093  18.549  0.00  0.00    +0.000 F 
ATOM     30  F   UNL     1       2.317   1.064  18.867  0.00  0.00    +0.000 F 
ENDBRANCH  25  27
ENDBRANCH   8  21
TORSDOF 3
ENDMDL
MODEL 7
REMARK VINA RESULT:      -8.9      1.042      1.236
REMARK  Name = 
REMARK  3 active torsions:
REMARK  status: ('A' for Active; 'I' for Inactive)
REMARK    1  A    between atoms: C_2  and  C_23
REMARK    2  A    between atoms: C_8  and  C_9
REMARK    3  A    between atoms: C_13  and  C_14
REMARK                            x       y       z     vdW  Elec       q    Type
REMARK                         _______ _______ _______ _____ _____    ______ ____
ROOT
ATOM      1  O   UNL     1      -1.541  12.906  19.912  0.00  0.00    +0.000 OA
ATOM      2  C   UNL     1      -1.428  12.559  21.085  0.00  0.00    +0.000 C 
ATOM      3  N   UNL     1      -0.669  11.518  21.569  0.00  0.00    +0.000 N 
ATOM      4  C   UNL     1       0.110  10.720  20.773  0.00  0.00    +0.000 A 
ATOM      5  N   UNL     1       0.544   9.523  21.272  0.00  0.00    +0.000 NA
ATOM      6  C   UNL     1       1.166   8.982  20.245  0.00  0.00    +0.000 A 
ATOM      7  C   UNL     1       1.803   7.719  20.051  0.00  0.00    +0.000 A 
ATOM      8  C   UNL     1       2.407   7.433  18.873  0.00  0.00    +0.000 A 
ATOM      9  C   UNL     1       2.406   8.421  17.786  0.00  0.00    +0.000 A 
ATOM     10  C   UNL     1       1.797   9.601  17.966  0.00  0.00    +0.000 A 
ATOM     11  N   UNL     1       1.173   9.878  19.177  0.00  0.00    +0.000 N 
ATOM     12  N   UNL     1       0.501  10.987  19.530  0.00  0.00    +0.000 NA
ATOM     13  H   UNL     1      -0.790  11.171  22.507  0.00  0.00    +0.000 HD
ENDROOT
BRANCH   2  14
ATOM     14  C   UNL     1      -2.248  13.288  22.085  0.00  0.00    +0.000 A 
ATOM     15  C   UNL     1      -2.329  14.686  22.106  0.00  0.00    +0.000 A 
ATOM     16  C   UNL     1      -3.151  15.318  23.043  0.00  0.00    +0.000 A 
ATOM     17  C   UNL     1      -3.889  14.561  23.956  0.00  0.00    +0.000 A 
ATOM     18  C   UNL     1      -3.810  13.170  23.928  0.00  0.00    +0.000 A 
ATOM     19 CL   UNL     1      -4.726  12.240  25.048  0.00  0.00    +0.000 Cl
ATOM     20  C   UNL     1      -2.999  12.530  22.997  0.00  0.00    +0.000 A 
ENDBRANCH   2  14
BRANCH   8  21
ATOM     21  C   UNL     1       3.110   6.146  18.730  0.00  0.00    +0.000 A 
ATOM     22  C   UNL     1       4.105   5.962  17.765  0.00  0.00    +0.000 A 
ATOM     23  C   UNL     1       4.784   4.744  17.680  0.00  0.00    +0.000 A 
ATOM     24  C   UNL     1       4.475   3.705  18.559  0.00  0.00    +0.000 A 
ATOM     25  C   UNL     1       3.484   3.873  19.537  0.00  0.00    +0.000 A 
ATOM     26  C   UNL     1       2.809   5.102  19.615  0.00  0.00    +0.000 A 
BRANCH  25  27
ATOM     27  C   UNL     1       3.138   2.767  20.502  0.00  0.00    +0.000 C 
ATOM     28  F   UNL     1       2.532   3.205  21.641  0.00  0.00    +0.000 F 
ATOM     29  F   UNL     1       2.291   1.849  19.959  0.00  0.00    +0.000 F 
ATOM     30  F   UNL     1       4.235   2.069  20.907  0.00  0.00    +0.000 F 
ENDBRANCH  25  27
ENDBRANCH   8  21
TORSDOF 3
ENDMDL
MODEL 8
REMARK VINA RESULT:      -8.9      6.236     10.993
REMARK  Name = 
REMARK  3 active torsions:
REMARK  status: ('A' for Active; 'I' for Inactive)
REMARK    1  A    between atoms: C_2  and  C_23
REMARK    2  A    between atoms: C_8  and  C_9
REMARK    3  A    between atoms: C_13  and  C_14
REMARK                            x       y       z     vdW  Elec       q    Type
REMARK                         _______ _______ _______ _____ _____    ______ ____
ROOT
ATOM      1  O   UNL     1       4.728   3.663  16.375  0.00  0.00    +0.000 OA
ATOM      2  C   UNL     1       5.107   4.703  15.840  0.00  0.00    +0.000 C 
ATOM      3  N   UNL     1       4.821   5.988  16.239  0.00  0.00    +0.000 N 
ATOM      4  C   UNL     1       4.069   6.283  17.346  0.00  0.00    +0.000 A 
ATOM      5  N   UNL     1       3.553   7.545  17.468  0.00  0.00    +0.000 NA
ATOM      6  C   UNL     1       2.825   7.461  18.562  0.00  0.00    +0.000 A 
ATOM      7  C   UNL     1       1.973   8.389  19.234  0.00  0.00    +0.000 A 
ATOM      8  C   UNL     1       1.357   8.038  20.389  0.00  0.00    +0.000 A 
ATOM      9  C   UNL     1       1.560   6.698  20.954  0.00  0.00    +0.000 A 
ATOM     10  C   UNL     1       2.352   5.825  20.316  0.00  0.00    +0.000 A 
ATOM     11  N   UNL     1       2.970   6.196  19.127  0.00  0.00    +0.000 N 
ATOM     12  N   UNL     1       3.773   5.456  18.343  0.00  0.00    +0.000 NA
ATOM     13  H   UNL     1       4.994   6.777  15.636  0.00  0.00    +0.000 HD
ENDROOT
BRANCH   2  14
ATOM     14  C   UNL     1       5.896   4.569  14.590  0.00  0.00    +0.000 A 
ATOM     15  C   UNL     1       7.043   5.336  14.347  0.00  0.00    +0.000 A 
ATOM     16  C   UNL     1       7.773   5.138  13.172  0.00  0.00    +0.000 A 
ATOM     17  C   UNL     1       7.362   4.180  12.242  0.00  0.00    +0.000 A 
ATOM     18  C   UNL     1       6.224   3.415  12.490  0.00  0.00    +0.000 A 
ATOM     19 CL   UNL     1       5.725   2.231  11.346  0.00  0.00    +0.000 Cl
ATOM     20  C   UNL     1       5.492   3.600  13.658  0.00  0.00    +0.000 A 
ENDBRANCH   2  14
BRANCH   8  21
ATOM     21  C   UNL     1       0.535   9.042  21.088  0.00  0.00    +0.000 A 
ATOM     22  C   UNL     1       0.371   9.010  22.476  0.00  0.00    +0.000 A 
ATOM     23  C   UNL     1      -0.379   9.999  23.117  0.00  0.00    +0.000 A 
ATOM     24  C   UNL     1      -0.966  11.026  22.377  0.00  0.00    +0.000 A 
ATOM     25  C   UNL     1      -0.807  11.079  20.984  0.00  0.00    +0.000 A 
ATOM     26  C   UNL     1      -0.049  10.080  20.350  0.00  0.00    +0.000 A 
BRANCH  25  27
ATOM     27  C   UNL     1      -1.425  12.182  20.164  0.00  0.00    +0.000 C 
ATOM     28  F   UNL     1      -0.565  13.199  19.878  0.00  0.00    +0.000 F 
ATOM     29  F   UNL     1      -1.891  11.740  18.963  0.00  0.00    +0.000 F 
ATOM     30  F   UNL     1      -2.490  12.759  20.788  0.00  0.00    +0.000 F 
ENDBRANCH  25  27
ENDBRANCH   8  21
TORSDOF 3
ENDMDL
MODEL 9
REMARK VINA RESULT:      -8.8      1.263      1.669
REMARK  Name = 
REMARK  3 active torsions:
REMARK  status: ('A' for Active; 'I' for Inactive)
REMARK    1  A    between atoms: C_2  and  C_23
REMARK    2  A    between atoms: C_8  and  C_9
REMARK    3  A    between atoms: C_13  and  C_14
REMARK                            x       y       z     vdW  Elec       q    Type
REMARK                         _______ _______ _______ _____ _____    ______ ____
ROOT
ATOM      1  O   UNL     1      -1.637  12.761  20.195  0.00  0.00    +0.000 OA
ATOM      2  C   UNL     1      -1.447  12.382  21.349  0.00  0.00    +0.000 C 
ATOM      3  N   UNL     1      -0.630  11.353  21.757  0.00  0.00    +0.000 N 
ATOM      4  C   UNL     1       0.128  10.606  20.893  0.00  0.00    +0.000 A 
ATOM      5  N   UNL     1       0.627   9.409  21.330  0.00  0.00    +0.000 NA
ATOM      6  C   UNL     1       1.207   8.921  20.253  0.00  0.00    +0.000 A 
ATOM      7  C   UNL     1       1.872   7.687  19.984  0.00  0.00    +0.000 A 
ATOM      8  C   UNL     1       2.418   7.457  18.765  0.00  0.00    +0.000 A 
ATOM      9  C   UNL     1       2.324   8.476  17.712  0.00  0.00    +0.000 A 
ATOM     10  C   UNL     1       1.689   9.629  17.963  0.00  0.00    +0.000 A 
ATOM     11  N   UNL     1       1.126   9.848  19.216  0.00  0.00    +0.000 N 
ATOM     12  N   UNL     1       0.440  10.923  19.641  0.00  0.00    +0.000 NA
ATOM     13  H   UNL     1      -0.687  10.975  22.689  0.00  0.00    +0.000 HD
ENDROOT
BRANCH   2  14
ATOM     14  C   UNL     1      -2.233  13.052  22.416  0.00  0.00    +0.000 A 
ATOM     15  C   UNL     1      -3.619  12.886  22.537  0.00  0.00    +0.000 A 
ATOM     16  C   UNL     1      -4.301  13.507  23.587  0.00  0.00    +0.000 A 
ATOM     17  C   UNL     1      -3.607  14.289  24.512  0.00  0.00    +0.000 A 
ATOM     18  C   UNL     1      -2.228  14.447  24.392  0.00  0.00    +0.000 A 
ATOM     19 CL   UNL     1      -1.374  15.405  25.538  0.00  0.00    +0.000 Cl
ATOM     20  C   UNL     1      -1.537  13.831  23.354  0.00  0.00    +0.000 A 
ENDBRANCH   2  14
BRANCH   8  21
ATOM     21  C   UNL     1       3.152   6.199  18.542  0.00  0.00    +0.000 A 
ATOM     22  C   UNL     1       4.094   6.076  17.517  0.00  0.00    +0.000 A 
ATOM     23  C   UNL     1       4.806   4.885  17.355  0.00  0.00    +0.000 A 
ATOM     24  C   UNL     1       4.582   3.811  18.219  0.00  0.00    +0.000 A 
ATOM     25  C   UNL     1       3.647   3.917  19.258  0.00  0.00    +0.000 A 
ATOM     26  C   UNL     1       2.938   5.121  19.412  0.00  0.00    +0.000 A 
BRANCH  25  27
ATOM     27  C   UNL     1       3.394   2.774  20.207  0.00  0.00    +0.000 C 
ATOM     28  F   UNL     1       4.521   2.094  20.557  0.00  0.00    +0.000 F 
ATOM     29  F   UNL     1       2.827   3.183  21.376  0.00  0.00    +0.000 F 
ATOM     30  F   UNL     1       2.545   1.845  19.686  0.00  0.00    +0.000 F 
ENDBRANCH  25  27
ENDBRANCH   8  21
TORSDOF 3
ENDMDL
