MODEL 1
REMARK VINA RESULT:      -6.1      0.000      0.000
REMARK  Name = 
REMARK  12 active torsions:
REMARK  status: ('A' for Active; 'I' for Inactive)
REMARK    1  A    between atoms: C_1  and  C_2
REMARK    2  A    between atoms: C_2  and  C_3
REMARK    3  A    between atoms: C_3  and  C_4
REMARK    4  A    between atoms: C_4  and  C_5
REMARK    5  A    between atoms: C_5  and  C_6
REMARK    6  A    between atoms: C_6  and  C_7
REMARK    7  A    between atoms: C_7  and  C_8
REMARK    8  A    between atoms: C_9  and  C_10
REMARK    9  A    between atoms: C_10  and  C_11
REMARK   10  A    between atoms: C_11  and  C_12
REMARK   11  A    between atoms: C_12  and  C_13
REMARK   12  A    between atoms: C_13  and  C_14
REMARK                            x       y       z     vdW  Elec       q    Type
REMARK                         _______ _______ _______ _____ _____    ______ ____
ROOT
ATOM      1  C   UNL     1       3.713   6.559  17.785  0.00  0.00    +0.000 C 
ENDROOT
BRANCH   1   3
ATOM      2  C   UNL     1       3.219   3.785  17.585  0.00  0.00    +0.000 C 
ATOM      3  C   UNL     1       3.447   5.066  17.677  0.00  0.00    +0.000 C 
BRANCH   2   4
ATOM      4  C   UNL     1       2.953   2.293  17.478  0.00  0.00    +0.000 C 
BRANCH   4   5
ATOM      5  C   UNL     1       2.228   1.819  18.720  0.00  0.00    +0.000 C 
BRANCH   5   6
ATOM      6  C   UNL     1       0.833   2.416  18.761  0.00  0.00    +0.000 C 
BRANCH   6   7
ATOM      7  C   UNL     1       0.618   3.160  20.067  0.00  0.00    +0.000 C 
BRANCH   7   8
ATOM      8  C   UNL     1       1.810   2.959  20.988  0.00  0.00    +0.000 C 
BRANCH   8  10
ATOM      9  C   UNL     1       1.688   5.436  20.733  0.00  0.00    +0.000 C 
ATOM     10  C   UNL     1       2.299   4.296  21.525  0.00  0.00    +0.000 C 
ENDBRANCH   8  10
ENDBRANCH   7   8
ENDBRANCH   6   7
ENDBRANCH   5   6
ENDBRANCH   4   5
ENDBRANCH   2   4
ENDBRANCH   1   3
BRANCH   1  11
ATOM     11  C   UNL     1       5.081   6.824  17.176  0.00  0.00    +0.000 C 
BRANCH  11  12
ATOM     12  C   UNL     1       6.085   5.950  17.888  0.00  0.00    +0.000 C 
BRANCH  12  13
ATOM     13  C   UNL     1       7.021   5.228  16.926  0.00  0.00    +0.000 C 
BRANCH  13  14
ATOM     14  C   UNL     1       6.409   5.163  15.527  0.00  0.00    +0.000 C 
ATOM     15  C   UNL     1       6.013   3.773  15.074  0.00  0.00    +0.000 C 
ATOM     16  C   UNL     1       6.275   3.785  13.589  0.00  0.00    +0.000 C 
ATOM     17  C   UNL     1       7.268   4.887  13.433  0.00  0.00    +0.000 C 
ATOM     18  O   UNL     1       7.909   5.124  12.407  0.00  0.00    +0.000 OA
ATOM     19  O   UNL     1       7.369   5.620  14.570  0.00  0.00    +0.000 OA
ENDBRANCH  13  14
ENDBRANCH  12  13
ENDBRANCH  11  12
ENDBRANCH   1  11
TORSDOF 11
ENDMDL
MODEL 2
REMARK VINA RESULT:      -6.0      3.068      7.273
REMARK  Name = 
REMARK  12 active torsions:
REMARK  status: ('A' for Active; 'I' for Inactive)
REMARK    1  A    between atoms: C_1  and  C_2
REMARK    2  A    between atoms: C_2  and  C_3
REMARK    3  A    between atoms: C_3  and  C_4
REMARK    4  A    between atoms: C_4  and  C_5
REMARK    5  A    between atoms: C_5  and  C_6
REMARK    6  A    between atoms: C_6  and  C_7
REMARK    7  A    between atoms: C_7  and  C_8
REMARK    8  A    between atoms: C_9  and  C_10
REMARK    9  A    between atoms: C_10  and  C_11
REMARK   10  A    between atoms: C_11  and  C_12
REMARK   11  A    between atoms: C_12  and  C_13
REMARK   12  A    between atoms: C_13  and  C_14
REMARK                            x       y       z     vdW  Elec       q    Type
REMARK                         _______ _______ _______ _____ _____    ______ ____
ROOT
ATOM      1  C   UNL     1       4.440   6.195  18.019  0.00  0.00    +0.000 C 
ENDROOT
BRANCH   1   3
ATOM      2  C   UNL     1       5.891   4.993  15.916  0.00  0.00    +0.000 C 
ATOM      3  C   UNL     1       5.221   5.548  16.887  0.00  0.00    +0.000 C 
BRANCH   2   4
ATOM      4  C   UNL     1       6.672   4.346  14.783  0.00  0.00    +0.000 C 
BRANCH   4   5
ATOM      5  C   UNL     1       5.736   4.047  13.631  0.00  0.00    +0.000 C 
BRANCH   5   6
ATOM      6  C   UNL     1       6.520   3.475  12.465  0.00  0.00    +0.000 C 
BRANCH   6   7
ATOM      7  C   UNL     1       5.572   2.939  11.407  0.00  0.00    +0.000 C 
BRANCH   7   8
ATOM      8  C   UNL     1       4.157   3.427  11.675  0.00  0.00    +0.000 C 
BRANCH   8  10
ATOM      9  C   UNL     1       2.916   4.210   9.659  0.00  0.00    +0.000 C 
ATOM     10  C   UNL     1       3.230   3.017  10.541  0.00  0.00    +0.000 C 
ENDBRANCH   8  10
ENDBRANCH   7   8
ENDBRANCH   6   7
ENDBRANCH   5   6
ENDBRANCH   4   5
ENDBRANCH   2   4
ENDBRANCH   1   3
BRANCH   1  11
ATOM     11  C   UNL     1       2.984   6.268  17.587  0.00  0.00    +0.000 C 
BRANCH  11  12
ATOM     12  C   UNL     1       2.163   5.489  18.586  0.00  0.00    +0.000 C 
BRANCH  12  13
ATOM     13  C   UNL     1       1.654   4.166  18.024  0.00  0.00    +0.000 C 
BRANCH  13  14
ATOM     14  C   UNL     1       1.924   3.026  19.005  0.00  0.00    +0.000 C 
ATOM     15  C   UNL     1       1.562   3.330  20.444  0.00  0.00    +0.000 C 
ATOM     16  C   UNL     1       2.599   2.587  21.246  0.00  0.00    +0.000 C 
ATOM     17  C   UNL     1       3.718   2.420  20.274  0.00  0.00    +0.000 C 
ATOM     18  O   UNL     1       4.854   2.033  20.560  0.00  0.00    +0.000 OA
ATOM     19  O   UNL     1       3.324   2.733  19.015  0.00  0.00    +0.000 OA
ENDBRANCH  13  14
ENDBRANCH  12  13
ENDBRANCH  11  12
ENDBRANCH   1  11
TORSDOF 11
ENDMDL
MODEL 3
REMARK VINA RESULT:      -5.9      1.573      3.386
REMARK  Name = 
REMARK  12 active torsions:
REMARK  status: ('A' for Active; 'I' for Inactive)
REMARK    1  A    between atoms: C_1  and  C_2
REMARK    2  A    between atoms: C_2  and  C_3
REMARK    3  A    between atoms: C_3  and  C_4
REMARK    4  A    between atoms: C_4  and  C_5
REMARK    5  A    between atoms: C_5  and  C_6
REMARK    6  A    between atoms: C_6  and  C_7
REMARK    7  A    between atoms: C_7  and  C_8
REMARK    8  A    between atoms: C_9  and  C_10
REMARK    9  A    between atoms: C_10  and  C_11
REMARK   10  A    between atoms: C_11  and  C_12
REMARK   11  A    between atoms: C_12  and  C_13
REMARK   12  A    between atoms: C_13  and  C_14
REMARK                            x       y       z     vdW  Elec       q    Type
REMARK                         _______ _______ _______ _____ _____    ______ ____
ROOT
ATOM      1  C   UNL     1       4.149   6.184  17.211  0.00  0.00    +0.000 C 
ENDROOT
BRANCH   1   3
ATOM      2  C   UNL     1       2.563   5.669  19.491  0.00  0.00    +0.000 C 
ATOM      3  C   UNL     1       3.295   5.907  18.438  0.00  0.00    +0.000 C 
BRANCH   2   4
ATOM      4  C   UNL     1       1.710   5.392  20.718  0.00  0.00    +0.000 C 
BRANCH   4   5
ATOM      5  C   UNL     1       2.258   4.185  21.451  0.00  0.00    +0.000 C 
BRANCH   5   6
ATOM      6  C   UNL     1       1.395   2.970  21.161  0.00  0.00    +0.000 C 
BRANCH   6   7
ATOM      7  C   UNL     1       0.581   3.194  19.899  0.00  0.00    +0.000 C 
BRANCH   7   8
ATOM      8  C   UNL     1       1.077   2.283  18.787  0.00  0.00    +0.000 C 
BRANCH   8  10
ATOM      9  C   UNL     1       3.381   1.890  17.918  0.00  0.00    +0.000 C 
ATOM     10  C   UNL     1       2.461   1.747  19.117  0.00  0.00    +0.000 C 
ENDBRANCH   8  10
ENDBRANCH   7   8
ENDBRANCH   6   7
ENDBRANCH   5   6
ENDBRANCH   4   5
ENDBRANCH   2   4
ENDBRANCH   1   3
BRANCH   1  11
ATOM     11  C   UNL     1       4.251   4.887  16.424  0.00  0.00    +0.000 C 
BRANCH  11  12
ATOM     12  C   UNL     1       5.422   5.009  15.478  0.00  0.00    +0.000 C 
BRANCH  12  13
ATOM     13  C   UNL     1       6.612   4.155  15.905  0.00  0.00    +0.000 C 
BRANCH  13  14
ATOM     14  C   UNL     1       7.609   4.987  16.711  0.00  0.00    +0.000 C 
ATOM     15  C   UNL     1       7.399   4.947  18.210  0.00  0.00    +0.000 C 
ATOM     16  C   UNL     1       7.798   6.326  18.671  0.00  0.00    +0.000 C 
ATOM     17  C   UNL     1       7.650   7.148  17.434  0.00  0.00    +0.000 C 
ATOM     18  O   UNL     1       7.687   8.380  17.393  0.00  0.00    +0.000 OA
ATOM     19  O   UNL     1       7.485   6.362  16.341  0.00  0.00    +0.000 OA
ENDBRANCH  13  14
ENDBRANCH  12  13
ENDBRANCH  11  12
ENDBRANCH   1  11
TORSDOF 11
ENDMDL
MODEL 4
REMARK VINA RESULT:      -5.8      3.773      7.922
REMARK  Name = 
REMARK  12 active torsions:
REMARK  status: ('A' for Active; 'I' for Inactive)
REMARK    1  A    between atoms: C_1  and  C_2
REMARK    2  A    between atoms: C_2  and  C_3
REMARK    3  A    between atoms: C_3  and  C_4
REMARK    4  A    between atoms: C_4  and  C_5
REMARK    5  A    between atoms: C_5  and  C_6
REMARK    6  A    between atoms: C_6  and  C_7
REMARK    7  A    between atoms: C_7  and  C_8
REMARK    8  A    between atoms: C_9  and  C_10
REMARK    9  A    between atoms: C_10  and  C_11
REMARK   10  A    between atoms: C_11  and  C_12
REMARK   11  A    between atoms: C_12  and  C_13
REMARK   12  A    between atoms: C_13  and  C_14
REMARK                            x       y       z     vdW  Elec       q    Type
REMARK                         _______ _______ _______ _____ _____    ______ ____
ROOT
ATOM      1  C   UNL     1       3.955   4.407  16.740  0.00  0.00    +0.000 C 
ENDROOT
BRANCH   1   3
ATOM      2  C   UNL     1       5.817   4.491  14.619  0.00  0.00    +0.000 C 
ATOM      3  C   UNL     1       4.958   4.452  15.599  0.00  0.00    +0.000 C 
BRANCH   2   4
ATOM      4  C   UNL     1       6.820   4.536  13.477  0.00  0.00    +0.000 C 
BRANCH   4   5
ATOM      5  C   UNL     1       6.502   3.439  12.484  0.00  0.00    +0.000 C 
BRANCH   5   6
ATOM      6  C   UNL     1       5.428   3.910  11.521  0.00  0.00    +0.000 C 
BRANCH   6   7
ATOM      7  C   UNL     1       4.426   2.797  11.266  0.00  0.00    +0.000 C 
BRANCH   7   8
ATOM      8  C   UNL     1       3.101   3.380  10.804  0.00  0.00    +0.000 C 
BRANCH   8  10
ATOM      9  C   UNL     1       2.189   4.964   9.107  0.00  0.00    +0.000 C 
ATOM     10  C   UNL     1       3.207   3.869   9.368  0.00  0.00    +0.000 C 
ENDBRANCH   8  10
ENDBRANCH   7   8
ENDBRANCH   6   7
ENDBRANCH   5   6
ENDBRANCH   4   5
ENDBRANCH   2   4
ENDBRANCH   1   3
BRANCH   1  11
ATOM     11  C   UNL     1       4.552   3.542  17.839  0.00  0.00    +0.000 C 
BRANCH  11  12
ATOM     12  C   UNL     1       3.739   2.273  17.925  0.00  0.00    +0.000 C 
BRANCH  12  13
ATOM     13  C   UNL     1       2.265   2.497  17.605  0.00  0.00    +0.000 C 
BRANCH  13  14
ATOM     14  C   UNL     1       1.460   2.700  18.888  0.00  0.00    +0.000 C 
ATOM     15  C   UNL     1       1.175   4.147  19.233  0.00  0.00    +0.000 C 
ATOM     16  C   UNL     1       1.205   4.176  20.740  0.00  0.00    +0.000 C 
ATOM     17  C   UNL     1       2.019   2.973  21.082  0.00  0.00    +0.000 C 
ATOM     18  O   UNL     1       2.462   2.713  22.202  0.00  0.00    +0.000 OA
ATOM     19  O   UNL     1       2.199   2.180  19.996  0.00  0.00    +0.000 OA
ENDBRANCH  13  14
ENDBRANCH  12  13
ENDBRANCH  11  12
ENDBRANCH   1  11
TORSDOF 11
ENDMDL
MODEL 5
REMARK VINA RESULT:      -5.7      4.574      7.018
REMARK  Name = 
REMARK  12 active torsions:
REMARK  status: ('A' for Active; 'I' for Inactive)
REMARK    1  A    between atoms: C_1  and  C_2
REMARK    2  A    between atoms: C_2  and  C_3
REMARK    3  A    between atoms: C_3  and  C_4
REMARK    4  A    between atoms: C_4  and  C_5
REMARK    5  A    between atoms: C_5  and  C_6
REMARK    6  A    between atoms: C_6  and  C_7
REMARK    7  A    between atoms: C_7  and  C_8
REMARK    8  A    between atoms: C_9  and  C_10
REMARK    9  A    between atoms: C_10  and  C_11
REMARK   10  A    between atoms: C_11  and  C_12
REMARK   11  A    between atoms: C_12  and  C_13
REMARK   12  A    between atoms: C_13  and  C_14
REMARK                            x       y       z     vdW  Elec       q    Type
REMARK                         _______ _______ _______ _____ _____    ______ ____
ROOT
ATOM      1  C   UNL     1       4.369   5.258  18.821  0.00  0.00    +0.000 C 
ENDROOT
BRANCH   1   3
ATOM      2  C   UNL     1       2.615   7.366  18.150  0.00  0.00    +0.000 C 
ATOM      3  C   UNL     1       3.425   6.392  18.460  0.00  0.00    +0.000 C 
BRANCH   2   4
ATOM      4  C   UNL     1       1.670   8.501  17.788  0.00  0.00    +0.000 C 
BRANCH   4   5
ATOM      5  C   UNL     1       1.462   9.388  18.998  0.00  0.00    +0.000 C 
BRANCH   5   6
ATOM      6  C   UNL     1       0.528  10.531  18.644  0.00  0.00    +0.000 C 
BRANCH   6   7
ATOM      7  C   UNL     1      -0.887  10.211  19.092  0.00  0.00    +0.000 C 
BRANCH   7   8
ATOM      8  C   UNL     1      -1.892  10.780  18.104  0.00  0.00    +0.000 C 
BRANCH   8  10
ATOM      9  C   UNL     1      -2.791  10.569  15.787  0.00  0.00    +0.000 C 
ATOM     10  C   UNL     1      -2.017   9.871  16.890  0.00  0.00    +0.000 C 
ENDBRANCH   8  10
ENDBRANCH   7   8
ENDBRANCH   6   7
ENDBRANCH   5   6
ENDBRANCH   4   5
ENDBRANCH   2   4
ENDBRANCH   1   3
BRANCH   1  11
ATOM     11  C   UNL     1       4.607   4.442  17.561  0.00  0.00    +0.000 C 
BRANCH  11  12
ATOM     12  C   UNL     1       3.309   3.760  17.197  0.00  0.00    +0.000 C 
BRANCH  12  13
ATOM     13  C   UNL     1       3.202   2.354  17.777  0.00  0.00    +0.000 C 
BRANCH  13  14
ATOM     14  C   UNL     1       2.141   2.305  18.876  0.00  0.00    +0.000 C 
ATOM     15  C   UNL     1       1.147   3.447  18.846  0.00  0.00    +0.000 C 
ATOM     16  C   UNL     1       0.835   3.698  20.299  0.00  0.00    +0.000 C 
ATOM     17  C   UNL     1       2.021   3.124  21.000  0.00  0.00    +0.000 C 
ATOM     18  O   UNL     1       2.282   3.280  22.195  0.00  0.00    +0.000 OA
ATOM     19  O   UNL     1       2.780   2.384  20.153  0.00  0.00    +0.000 OA
ENDBRANCH  13  14
ENDBRANCH  12  13
ENDBRANCH  11  12
ENDBRANCH   1  11
TORSDOF 11
ENDMDL
MODEL 6
REMARK VINA RESULT:      -5.5      3.167      6.426
REMARK  Name = 
REMARK  12 active torsions:
REMARK  status: ('A' for Active; 'I' for Inactive)
REMARK    1  A    between atoms: C_1  and  C_2
REMARK    2  A    between atoms: C_2  and  C_3
REMARK    3  A    between atoms: C_3  and  C_4
REMARK    4  A    between atoms: C_4  and  C_5
REMARK    5  A    between atoms: C_5  and  C_6
REMARK    6  A    between atoms: C_6  and  C_7
REMARK    7  A    between atoms: C_7  and  C_8
REMARK    8  A    between atoms: C_9  and  C_10
REMARK    9  A    between atoms: C_10  and  C_11
REMARK   10  A    between atoms: C_11  and  C_12
REMARK   11  A    between atoms: C_12  and  C_13
REMARK   12  A    between atoms: C_13  and  C_14
REMARK                            x       y       z     vdW  Elec       q    Type
REMARK                         _______ _______ _______ _____ _____    ______ ____
ROOT
ATOM      1  C   UNL     1       2.496   6.440  18.177  0.00  0.00    +0.000 C 
ENDROOT
BRANCH   1   3
ATOM      2  C   UNL     1       5.187   6.987  17.517  0.00  0.00    +0.000 C 
ATOM      3  C   UNL     1       3.944   6.734  17.822  0.00  0.00    +0.000 C 
BRANCH   2   4
ATOM      4  C   UNL     1       6.635   7.281  17.162  0.00  0.00    +0.000 C 
BRANCH   4   5
ATOM      5  C   UNL     1       7.537   6.280  17.853  0.00  0.00    +0.000 C 
BRANCH   5   6
ATOM      6  C   UNL     1       6.904   4.901  17.812  0.00  0.00    +0.000 C 
BRANCH   6   7
ATOM      7  C   UNL     1       7.101   4.273  16.444  0.00  0.00    +0.000 C 
BRANCH   7   8
ATOM      8  C   UNL     1       5.770   3.788  15.892  0.00  0.00    +0.000 C 
BRANCH   8  10
ATOM      9  C   UNL     1       6.279   3.940  13.456  0.00  0.00    +0.000 C 
ATOM     10  C   UNL     1       5.443   4.502  14.590  0.00  0.00    +0.000 C 
ENDBRANCH   8  10
ENDBRANCH   7   8
ENDBRANCH   6   7
ENDBRANCH   5   6
ENDBRANCH   4   5
ENDBRANCH   2   4
ENDBRANCH   1   3
BRANCH   1  11
ATOM     11  C   UNL     1       2.304   6.795  19.643  0.00  0.00    +0.000 C 
BRANCH  11  12
ATOM     12  C   UNL     1       1.893   5.539  20.375  0.00  0.00    +0.000 C 
BRANCH  12  13
ATOM     13  C   UNL     1       3.077   4.632  20.693  0.00  0.00    +0.000 C 
BRANCH  13  14
ATOM     14  C   UNL     1       2.881   3.252  20.065  0.00  0.00    +0.000 C 
ATOM     15  C   UNL     1       3.552   3.069  18.720  0.00  0.00    +0.000 C 
ATOM     16  C   UNL     1       2.618   2.156  17.968  0.00  0.00    +0.000 C 
ATOM     17  C   UNL     1       1.317   2.354  18.670  0.00  0.00    +0.000 C 
ATOM     18  O   UNL     1       0.225   1.946  18.269  0.00  0.00    +0.000 OA
ATOM     19  O   UNL     1       1.487   3.032  19.833  0.00  0.00    +0.000 OA
ENDBRANCH  13  14
ENDBRANCH  12  13
ENDBRANCH  11  12
ENDBRANCH   1  11
TORSDOF 11
ENDMDL
MODEL 7
REMARK VINA RESULT:      -5.5      1.033      2.406
REMARK  Name = 
REMARK  12 active torsions:
REMARK  status: ('A' for Active; 'I' for Inactive)
REMARK    1  A    between atoms: C_1  and  C_2
REMARK    2  A    between atoms: C_2  and  C_3
REMARK    3  A    between atoms: C_3  and  C_4
REMARK    4  A    between atoms: C_4  and  C_5
REMARK    5  A    between atoms: C_5  and  C_6
REMARK    6  A    between atoms: C_6  and  C_7
REMARK    7  A    between atoms: C_7  and  C_8
REMARK    8  A    between atoms: C_9  and  C_10
REMARK    9  A    between atoms: C_10  and  C_11
REMARK   10  A    between atoms: C_11  and  C_12
REMARK   11  A    between atoms: C_12  and  C_13
REMARK   12  A    between atoms: C_13  and  C_14
REMARK                            x       y       z     vdW  Elec       q    Type
REMARK                         _______ _______ _______ _____ _____    ______ ____
ROOT
ATOM      1  C   UNL     1       3.248   7.687  17.707  0.00  0.00    +0.000 C 
ENDROOT
BRANCH   1   3
ATOM      2  C   UNL     1       2.282   6.064  19.806  0.00  0.00    +0.000 C 
ATOM      3  C   UNL     1       2.728   6.813  18.837  0.00  0.00    +0.000 C 
BRANCH   2   4
ATOM      4  C   UNL     1       1.763   5.190  20.936  0.00  0.00    +0.000 C 
BRANCH   4   5
ATOM      5  C   UNL     1       0.895   4.089  20.363  0.00  0.00    +0.000 C 
BRANCH   5   6
ATOM      6  C   UNL     1       1.438   2.734  20.782  0.00  0.00    +0.000 C 
BRANCH   6   7
ATOM      7  C   UNL     1       2.947   2.798  20.938  0.00  0.00    +0.000 C 
BRANCH   7   8
ATOM      8  C   UNL     1       3.627   2.335  19.660  0.00  0.00    +0.000 C 
BRANCH   8  10
ATOM      9  C   UNL     1       2.669   2.536  17.366  0.00  0.00    +0.000 C 
ATOM     10  C   UNL     1       2.600   1.784  18.682  0.00  0.00    +0.000 C 
ENDBRANCH   8  10
ENDBRANCH   7   8
ENDBRANCH   6   7
ENDBRANCH   5   6
ENDBRANCH   4   5
ENDBRANCH   2   4
ENDBRANCH   1   3
BRANCH   1  11
ATOM     11  C   UNL     1       4.553   7.078  17.221  0.00  0.00    +0.000 C 
BRANCH  11  12
ATOM     12  C   UNL     1       4.388   5.577  17.205  0.00  0.00    +0.000 C 
BRANCH  12  13
ATOM     13  C   UNL     1       5.616   4.857  16.659  0.00  0.00    +0.000 C 
BRANCH  13  14
ATOM     14  C   UNL     1       5.754   5.094  15.155  0.00  0.00    +0.000 C 
ATOM     15  C   UNL     1       5.754   3.834  14.314  0.00  0.00    +0.000 C 
ATOM     16  C   UNL     1       6.689   4.155  13.176  0.00  0.00    +0.000 C 
ATOM     17  C   UNL     1       7.528   5.256  13.732  0.00  0.00    +0.000 C 
ATOM     18  O   UNL     1       8.554   5.698  13.211  0.00  0.00    +0.000 OA
ATOM     19  O   UNL     1       7.005   5.733  14.890  0.00  0.00    +0.000 OA
ENDBRANCH  13  14
ENDBRANCH  12  13
ENDBRANCH  11  12
ENDBRANCH   1  11
TORSDOF 11
ENDMDL
MODEL 8
REMARK VINA RESULT:      -5.5      5.011      8.600
REMARK  Name = 
REMARK  12 active torsions:
REMARK  status: ('A' for Active; 'I' for Inactive)
REMARK    1  A    between atoms: C_1  and  C_2
REMARK    2  A    between atoms: C_2  and  C_3
REMARK    3  A    between atoms: C_3  and  C_4
REMARK    4  A    between atoms: C_4  and  C_5
REMARK    5  A    between atoms: C_5  and  C_6
REMARK    6  A    between atoms: C_6  and  C_7
REMARK    7  A    between atoms: C_7  and  C_8
REMARK    8  A    between atoms: C_9  and  C_10
REMARK    9  A    between atoms: C_10  and  C_11
REMARK   10  A    between atoms: C_11  and  C_12
REMARK   11  A    between atoms: C_12  and  C_13
REMARK   12  A    between atoms: C_13  and  C_14
REMARK                            x       y       z     vdW  Elec       q    Type
REMARK                         _______ _______ _______ _____ _____    ______ ____
ROOT
ATOM      1  C   UNL     1       7.252   4.923  17.541  0.00  0.00    +0.000 C 
ENDROOT
BRANCH   1   3
ATOM      2  C   UNL     1       7.738   7.701  17.694  0.00  0.00    +0.000 C 
ATOM      3  C   UNL     1       7.514   6.418  17.623  0.00  0.00    +0.000 C 
BRANCH   2   4
ATOM      4  C   UNL     1       7.999   9.196  17.776  0.00  0.00    +0.000 C 
BRANCH   4   5
ATOM      5  C   UNL     1       8.944   9.480  18.925  0.00  0.00    +0.000 C 
BRANCH   5   6
ATOM      6  C   UNL     1       9.229  10.969  19.002  0.00  0.00    +0.000 C 
BRANCH   6   7
ATOM      7  C   UNL     1      10.552  11.214  19.706  0.00  0.00    +0.000 C 
BRANCH   7   8
ATOM      8  C   UNL     1      11.337  12.299  18.985  0.00  0.00    +0.000 C 
BRANCH   8  10
ATOM      9  C   UNL     1      11.353  13.340  16.719  0.00  0.00    +0.000 C 
ATOM     10  C   UNL     1      11.360  12.032  17.488  0.00  0.00    +0.000 C 
ENDBRANCH   8  10
ENDBRANCH   7   8
ENDBRANCH   6   7
ENDBRANCH   5   6
ENDBRANCH   4   5
ENDBRANCH   2   4
ENDBRANCH   1   3
BRANCH   1  11
ATOM     11  C   UNL     1       6.691   4.633  16.158  0.00  0.00    +0.000 C 
BRANCH  11  12
ATOM     12  C   UNL     1       5.201   4.872  16.201  0.00  0.00    +0.000 C 
BRANCH  12  13
ATOM     13  C   UNL     1       4.507   4.057  17.286  0.00  0.00    +0.000 C 
BRANCH  13  14
ATOM     14  C   UNL     1       3.355   4.851  17.902  0.00  0.00    +0.000 C 
ATOM     15  C   UNL     1       3.722   5.635  19.145  0.00  0.00    +0.000 C 
ATOM     16  C   UNL     1       2.475   5.584  19.990  0.00  0.00    +0.000 C 
ATOM     17  C   UNL     1       1.764   4.382  19.466  0.00  0.00    +0.000 C 
ATOM     18  O   UNL     1       0.786   3.849  19.995  0.00  0.00    +0.000 OA
ATOM     19  O   UNL     1       2.322   3.949  18.307  0.00  0.00    +0.000 OA
ENDBRANCH  13  14
ENDBRANCH  12  13
ENDBRANCH  11  12
ENDBRANCH   1  11
TORSDOF 11
ENDMDL
MODEL 9
REMARK VINA RESULT:      -5.5      2.958      6.873
REMARK  Name = 
REMARK  12 active torsions:
REMARK  status: ('A' for Active; 'I' for Inactive)
REMARK    1  A    between atoms: C_1  and  C_2
REMARK    2  A    between atoms: C_2  and  C_3
REMARK    3  A    between atoms: C_3  and  C_4
REMARK    4  A    between atoms: C_4  and  C_5
REMARK    5  A    between atoms: C_5  and  C_6
REMARK    6  A    between atoms: C_6  and  C_7
REMARK    7  A    between atoms: C_7  and  C_8
REMARK    8  A    between atoms: C_9  and  C_10
REMARK    9  A    between atoms: C_10  and  C_11
REMARK   10  A    between atoms: C_11  and  C_12
REMARK   11  A    between atoms: C_12  and  C_13
REMARK   12  A    between atoms: C_13  and  C_14
REMARK                            x       y       z     vdW  Elec       q    Type
REMARK                         _______ _______ _______ _____ _____    ______ ____
ROOT
ATOM      1  C   UNL     1       7.644   4.603  17.716  0.00  0.00    +0.000 C 
ENDROOT
BRANCH   1   3
ATOM      2  C   UNL     1       6.348   4.305  15.224  0.00  0.00    +0.000 C 
ATOM      3  C   UNL     1       6.946   4.443  16.375  0.00  0.00    +0.000 C 
BRANCH   2   4
ATOM      4  C   UNL     1       5.650   4.145  13.883  0.00  0.00    +0.000 C 
BRANCH   4   5
ATOM      5  C   UNL     1       6.638   3.625  12.861  0.00  0.00    +0.000 C 
BRANCH   5   6
ATOM      6  C   UNL     1       5.900   3.183  11.610  0.00  0.00    +0.000 C 
BRANCH   6   7
ATOM      7  C   UNL     1       4.422   3.512  11.728  0.00  0.00    +0.000 C 
BRANCH   7   8
ATOM      8  C   UNL     1       3.601   2.555  10.879  0.00  0.00    +0.000 C 
BRANCH   8  10
ATOM      9  C   UNL     1       3.190   4.540   9.427  0.00  0.00    +0.000 C 
ATOM     10  C   UNL     1       2.563   3.318  10.070  0.00  0.00    +0.000 C 
ENDBRANCH   8  10
ENDBRANCH   7   8
ENDBRANCH   6   7
ENDBRANCH   5   6
ENDBRANCH   4   5
ENDBRANCH   2   4
ENDBRANCH   1   3
BRANCH   1  11
ATOM     11  C   UNL     1       6.915   5.694  18.483  0.00  0.00    +0.000 C 
BRANCH  11  12
ATOM     12  C   UNL     1       5.563   5.155  18.887  0.00  0.00    +0.000 C 
BRANCH  12  13
ATOM     13  C   UNL     1       4.411   5.907  18.230  0.00  0.00    +0.000 C 
BRANCH  13  14
ATOM     14  C   UNL     1       3.401   4.928  17.633  0.00  0.00    +0.000 C 
ATOM     15  C   UNL     1       2.081   4.853  18.371  0.00  0.00    +0.000 C 
ATOM     16  C   UNL     1       1.665   3.411  18.231  0.00  0.00    +0.000 C 
ATOM     17  C   UNL     1       2.957   2.715  17.956  0.00  0.00    +0.000 C 
ATOM     18  O   UNL     1       3.119   1.493  17.963  0.00  0.00    +0.000 OA
ATOM     19  O   UNL     1       3.942   3.605  17.677  0.00  0.00    +0.000 OA
ENDBRANCH  13  14
ENDBRANCH  12  13
ENDBRANCH  11  12
ENDBRANCH   1  11
TORSDOF 11
ENDMDL
