MODEL 1
REMARK VINA RESULT:      -7.0      0.000      0.000
REMARK  Name = 
REMARK  1 active torsions:
REMARK  status: ('A' for Active; 'I' for Inactive)
REMARK    1  A    between atoms: C_8  and  C_9
REMARK                            x       y       z     vdW  Elec       q    Type
REMARK                         _______ _______ _______ _____ _____    ______ ____
ROOT
ATOM      1  C   UNL     1       5.713   4.170  17.945  0.00  0.00    +0.000 C 
ATOM      2  S   UNL     1       6.256   5.142  19.414  0.00  0.00    +0.000 S 
ATOM      3  C   UNL     1       7.498   6.122  18.481  0.00  0.00    +0.000 C 
ATOM      4  C   UNL     1       7.298   5.760  17.061  0.00  0.00    +0.000 A 
ATOM      5  N   UNL     1       7.865   6.185  15.956  0.00  0.00    +0.000 NA
ATOM      6  C   UNL     1       7.290   5.431  14.953  0.00  0.00    +0.000 A 
ATOM      7  C   UNL     1       7.529   5.463  13.571  0.00  0.00    +0.000 A 
ATOM      8  C   UNL     1       6.825   4.580  12.741  0.00  0.00    +0.000 A 
ATOM      9  C   UNL     1       5.903   3.683  13.283  0.00  0.00    +0.000 A 
ATOM     10 CL   UNL     1       5.052   2.611  12.236  0.00  0.00    +0.000 Cl
ATOM     11  C   UNL     1       5.648   3.629  14.659  0.00  0.00    +0.000 A 
ATOM     12  C   UNL     1       6.359   4.524  15.466  0.00  0.00    +0.000 A 
ATOM     13  N   UNL     1       6.379   4.779  16.802  0.00  0.00    +0.000 N 
ENDROOT
BRANCH   1  21
ATOM     14  F   UNL     1       4.078   6.459  17.956  0.00  0.00    +0.000 F 
ATOM     15  C   UNL     1       3.464   5.276  17.811  0.00  0.00    +0.000 A 
ATOM     16  C   UNL     1       2.074   5.259  17.707  0.00  0.00    +0.000 A 
ATOM     17  C   UNL     1       1.407   4.044  17.575  0.00  0.00    +0.000 A 
ATOM     18  C   UNL     1       2.137   2.857  17.554  0.00  0.00    +0.000 A 
ATOM     19  C   UNL     1       3.527   2.895  17.665  0.00  0.00    +0.000 A 
ATOM     20  F   UNL     1       4.195   1.733  17.661  0.00  0.00    +0.000 F 
ATOM     21  C   UNL     1       4.221   4.101  17.795  0.00  0.00    +0.000 A 
ENDBRANCH   1  21
TORSDOF 1
ENDMDL
MODEL 2
REMARK VINA RESULT:      -6.8      0.067      1.798
REMARK  Name = 
REMARK  1 active torsions:
REMARK  status: ('A' for Active; 'I' for Inactive)
REMARK    1  A    between atoms: C_8  and  C_9
REMARK                            x       y       z     vdW  Elec       q    Type
REMARK                         _______ _______ _______ _____ _____    ______ ____
ROOT
ATOM      1  C   UNL     1       5.694   4.191  17.969  0.00  0.00    +0.000 C 
ATOM      2  S   UNL     1       6.257   5.156  19.435  0.00  0.00    +0.000 S 
ATOM      3  C   UNL     1       7.501   6.126  18.493  0.00  0.00    +0.000 C 
ATOM      4  C   UNL     1       7.287   5.766  17.074  0.00  0.00    +0.000 A 
ATOM      5  N   UNL     1       7.850   6.187  15.966  0.00  0.00    +0.000 NA
ATOM      6  C   UNL     1       7.260   5.439  14.967  0.00  0.00    +0.000 A 
ATOM      7  C   UNL     1       7.489   5.468  13.583  0.00  0.00    +0.000 A 
ATOM      8  C   UNL     1       6.771   4.593  12.758  0.00  0.00    +0.000 A 
ATOM      9  C   UNL     1       5.845   3.703  13.306  0.00  0.00    +0.000 A 
ATOM     10 CL   UNL     1       4.976   2.640  12.265  0.00  0.00    +0.000 Cl
ATOM     11  C   UNL     1       5.599   3.651  14.684  0.00  0.00    +0.000 A 
ATOM     12  C   UNL     1       6.324   4.540  15.486  0.00  0.00    +0.000 A 
ATOM     13  N   UNL     1       6.357   4.794  16.822  0.00  0.00    +0.000 N 
ENDROOT
BRANCH   1  21
ATOM     14  F   UNL     1       4.285   1.773  17.689  0.00  0.00    +0.000 F 
ATOM     15  C   UNL     1       3.560   2.900  17.692  0.00  0.00    +0.000 A 
ATOM     16  C   UNL     1       2.178   2.801  17.529  0.00  0.00    +0.000 A 
ATOM     17  C   UNL     1       1.402   3.956  17.510  0.00  0.00    +0.000 A 
ATOM     18  C   UNL     1       2.014   5.200  17.647  0.00  0.00    +0.000 A 
ATOM     19  C   UNL     1       3.398   5.279  17.803  0.00  0.00    +0.000 A 
ATOM     20  F   UNL     1       3.956   6.492  17.913  0.00  0.00    +0.000 F 
ATOM     21  C   UNL     1       4.201   4.135  17.831  0.00  0.00    +0.000 A 
ENDBRANCH   1  21
TORSDOF 1
ENDMDL
MODEL 3
REMARK VINA RESULT:      -6.8      3.787      4.991
REMARK  Name = 
REMARK  1 active torsions:
REMARK  status: ('A' for Active; 'I' for Inactive)
REMARK    1  A    between atoms: C_8  and  C_9
REMARK                            x       y       z     vdW  Elec       q    Type
REMARK                         _______ _______ _______ _____ _____    ______ ____
ROOT
ATOM      1  C   UNL     1       2.728   5.510  18.037  0.00  0.00    +0.000 C 
ATOM      2  S   UNL     1       1.669   4.072  18.494  0.00  0.00    +0.000 S 
ATOM      3  C   UNL     1       3.089   2.959  18.840  0.00  0.00    +0.000 C 
ATOM      4  C   UNL     1       4.292   3.815  18.747  0.00  0.00    +0.000 A 
ATOM      5  N   UNL     1       5.565   3.568  18.947  0.00  0.00    +0.000 NA
ATOM      6  C   UNL     1       6.203   4.756  18.654  0.00  0.00    +0.000 A 
ATOM      7  C   UNL     1       7.572   5.061  18.691  0.00  0.00    +0.000 A 
ATOM      8  C   UNL     1       7.989   6.350  18.332  0.00  0.00    +0.000 A 
ATOM      9  C   UNL     1       7.057   7.312  17.940  0.00  0.00    +0.000 A 
ATOM     10 CL   UNL     1       7.602   8.888  17.506  0.00  0.00    +0.000 Cl
ATOM     11  C   UNL     1       5.686   7.034  17.891  0.00  0.00    +0.000 A 
ATOM     12  C   UNL     1       5.293   5.742  18.261  0.00  0.00    +0.000 A 
ATOM     13  N   UNL     1       4.092   5.111  18.354  0.00  0.00    +0.000 N 
ENDROOT
BRANCH   1  21
ATOM     14  F   UNL     1       1.985   5.638  20.746  0.00  0.00    +0.000 F 
ATOM     15  C   UNL     1       1.953   6.786  20.055  0.00  0.00    +0.000 A 
ATOM     16  C   UNL     1       1.532   7.944  20.708  0.00  0.00    +0.000 A 
ATOM     17  C   UNL     1       1.471   9.146  20.009  0.00  0.00    +0.000 A 
ATOM     18  C   UNL     1       1.826   9.179  18.662  0.00  0.00    +0.000 A 
ATOM     19  C   UNL     1       2.239   8.009  18.025  0.00  0.00    +0.000 A 
ATOM     20  F   UNL     1       2.554   8.073  16.724  0.00  0.00    +0.000 F 
ATOM     21  C   UNL     1       2.314   6.789  18.704  0.00  0.00    +0.000 A 
ENDBRANCH   1  21
TORSDOF 1
ENDMDL
MODEL 4
REMARK VINA RESULT:      -6.8      3.778      4.835
REMARK  Name = 
REMARK  1 active torsions:
REMARK  status: ('A' for Active; 'I' for Inactive)
REMARK    1  A    between atoms: C_8  and  C_9
REMARK                            x       y       z     vdW  Elec       q    Type
REMARK                         _______ _______ _______ _____ _____    ______ ____
ROOT
ATOM      1  C   UNL     1       2.696   5.456  18.048  0.00  0.00    +0.000 C 
ATOM      2  S   UNL     1       1.654   4.005  18.502  0.00  0.00    +0.000 S 
ATOM      3  C   UNL     1       3.086   2.901  18.825  0.00  0.00    +0.000 C 
ATOM      4  C   UNL     1       4.281   3.769  18.729  0.00  0.00    +0.000 A 
ATOM      5  N   UNL     1       5.558   3.531  18.915  0.00  0.00    +0.000 NA
ATOM      6  C   UNL     1       6.183   4.727  18.626  0.00  0.00    +0.000 A 
ATOM      7  C   UNL     1       7.550   5.044  18.654  0.00  0.00    +0.000 A 
ATOM      8  C   UNL     1       7.953   6.339  18.302  0.00  0.00    +0.000 A 
ATOM      9  C   UNL     1       7.009   7.296  17.927  0.00  0.00    +0.000 A 
ATOM     10 CL   UNL     1       7.537   8.881  17.501  0.00  0.00    +0.000 Cl
ATOM     11  C   UNL     1       5.640   7.006  17.888  0.00  0.00    +0.000 A 
ATOM     12  C   UNL     1       5.262   5.708  18.250  0.00  0.00    +0.000 A 
ATOM     13  N   UNL     1       4.066   5.066  18.348  0.00  0.00    +0.000 N 
ENDROOT
BRANCH   1  21
ATOM     14  F   UNL     1       2.587   7.929  16.713  0.00  0.00    +0.000 F 
ATOM     15  C   UNL     1       2.246   7.925  18.010  0.00  0.00    +0.000 A 
ATOM     16  C   UNL     1       1.894   9.134  18.608  0.00  0.00    +0.000 A 
ATOM     17  C   UNL     1       1.554   9.163  19.957  0.00  0.00    +0.000 A 
ATOM     18  C   UNL     1       1.575   7.983  20.698  0.00  0.00    +0.000 A 
ATOM     19  C   UNL     1       1.935   6.784  20.083  0.00  0.00    +0.000 A 
ATOM     20  F   UNL     1       1.964   5.672  20.830  0.00  0.00    +0.000 F 
ATOM     21  C   UNL     1       2.277   6.726  18.729  0.00  0.00    +0.000 A 
ENDBRANCH   1  21
TORSDOF 1
ENDMDL
MODEL 5
REMARK VINA RESULT:      -6.2      9.982     11.993
REMARK  Name = 
REMARK  1 active torsions:
REMARK  status: ('A' for Active; 'I' for Inactive)
REMARK    1  A    between atoms: C_8  and  C_9
REMARK                            x       y       z     vdW  Elec       q    Type
REMARK                         _______ _______ _______ _____ _____    ______ ____
ROOT
ATOM      1  C   UNL     1      -1.489  13.158  21.507  0.00  0.00    +0.000 C 
ATOM      2  S   UNL     1      -1.894  14.195  22.976  0.00  0.00    +0.000 S 
ATOM      3  C   UNL     1      -3.631  14.496  22.459  0.00  0.00    +0.000 C 
ATOM      4  C   UNL     1      -3.842  13.638  21.272  0.00  0.00    +0.000 A 
ATOM      5  N   UNL     1      -4.897  13.412  20.526  0.00  0.00    +0.000 NA
ATOM      6  C   UNL     1      -4.453  12.557  19.538  0.00  0.00    +0.000 A 
ATOM      7  C   UNL     1      -5.162  11.995  18.466  0.00  0.00    +0.000 A 
ATOM      8  C   UNL     1      -4.485  11.155  17.572  0.00  0.00    +0.000 A 
ATOM      9  C   UNL     1      -3.126  10.885  17.745  0.00  0.00    +0.000 A 
ATOM     10 CL   UNL     1      -2.322   9.847  16.629  0.00  0.00    +0.000 Cl
ATOM     11  C   UNL     1      -2.395  11.435  18.805  0.00  0.00    +0.000 A 
ATOM     12  C   UNL     1      -3.094  12.265  19.688  0.00  0.00    +0.000 A 
ATOM     13  N   UNL     1      -2.750  12.954  20.810  0.00  0.00    +0.000 N 
ENDROOT
BRANCH   1  21
ATOM     14  F   UNL     1       0.815  12.270  20.161  0.00  0.00    +0.000 F 
ATOM     15  C   UNL     1       0.351  11.490  21.148  0.00  0.00    +0.000 A 
ATOM     16  C   UNL     1       1.016  10.294  21.417  0.00  0.00    +0.000 A 
ATOM     17  C   UNL     1       0.546   9.455  22.423  0.00  0.00    +0.000 A 
ATOM     18  C   UNL     1      -0.588   9.817  23.148  0.00  0.00    +0.000 A 
ATOM     19  C   UNL     1      -1.243  11.015  22.860  0.00  0.00    +0.000 A 
ATOM     20  F   UNL     1      -2.342  11.322  23.563  0.00  0.00    +0.000 F 
ATOM     21  C   UNL     1      -0.790  11.877  21.858  0.00  0.00    +0.000 A 
ENDBRANCH   1  21
TORSDOF 1
ENDMDL
MODEL 6
REMARK VINA RESULT:      -6.2      9.758     11.971
REMARK  Name = 
REMARK  1 active torsions:
REMARK  status: ('A' for Active; 'I' for Inactive)
REMARK    1  A    between atoms: C_8  and  C_9
REMARK                            x       y       z     vdW  Elec       q    Type
REMARK                         _______ _______ _______ _____ _____    ______ ____
ROOT
ATOM      1  C   UNL     1      -1.136  13.033  21.600  0.00  0.00    +0.000 C 
ATOM      2  S   UNL     1      -1.283  14.048  23.131  0.00  0.00    +0.000 S 
ATOM      3  C   UNL     1      -3.027  14.528  22.812  0.00  0.00    +0.000 C 
ATOM      4  C   UNL     1      -3.443  13.737  21.633  0.00  0.00    +0.000 A 
ATOM      5  N   UNL     1      -4.588  13.637  21.000  0.00  0.00    +0.000 NA
ATOM      6  C   UNL     1      -4.335  12.781  19.948  0.00  0.00    +0.000 A 
ATOM      7  C   UNL     1      -5.203  12.327  18.944  0.00  0.00    +0.000 A 
ATOM      8  C   UNL     1      -4.708  11.461  17.960  0.00  0.00    +0.000 A 
ATOM      9  C   UNL     1      -3.371  11.060  17.978  0.00  0.00    +0.000 A 
ATOM     10 CL   UNL     1      -2.792   9.993  16.755  0.00  0.00    +0.000 Cl
ATOM     11  C   UNL     1      -2.482  11.500  18.966  0.00  0.00    +0.000 A 
ATOM     12  C   UNL     1      -3.002  12.359  19.941  0.00  0.00    +0.000 A 
ATOM     13  N   UNL     1      -2.477  12.971  21.037  0.00  0.00    +0.000 N 
ENDROOT
BRANCH   1  21
ATOM     14  F   UNL     1      -2.121  11.249  23.537  0.00  0.00    +0.000 F 
ATOM     15  C   UNL     1      -1.066  10.840  22.819  0.00  0.00    +0.000 A 
ATOM     16  C   UNL     1      -0.517   9.589  23.098  0.00  0.00    +0.000 A 
ATOM     17  C   UNL     1       0.592   9.147  22.381  0.00  0.00    +0.000 A 
ATOM     18  C   UNL     1       1.145   9.963  21.396  0.00  0.00    +0.000 A 
ATOM     19  C   UNL     1       0.585  11.214  21.137  0.00  0.00    +0.000 A 
ATOM     20  F   UNL     1       1.155  11.981  20.196  0.00  0.00    +0.000 F 
ATOM     21  C   UNL     1      -0.530  11.680  21.838  0.00  0.00    +0.000 A 
ENDBRANCH   1  21
TORSDOF 1
ENDMDL
MODEL 7
REMARK VINA RESULT:      -6.1      7.755     10.026
REMARK  Name = 
REMARK  1 active torsions:
REMARK  status: ('A' for Active; 'I' for Inactive)
REMARK    1  A    between atoms: C_8  and  C_9
REMARK                            x       y       z     vdW  Elec       q    Type
REMARK                         _______ _______ _______ _____ _____    ______ ____
ROOT
ATOM      1  C   UNL     1       0.530  11.938  19.457  0.00  0.00    +0.000 C 
ATOM      2  S   UNL     1       1.032  12.757  21.030  0.00  0.00    +0.000 S 
ATOM      3  C   UNL     1      -0.668  13.317  21.443  0.00  0.00    +0.000 C 
ATOM      4  C   UNL     1      -1.546  12.692  20.429  0.00  0.00    +0.000 A 
ATOM      5  N   UNL     1      -2.848  12.702  20.266  0.00  0.00    +0.000 NA
ATOM      6  C   UNL     1      -3.063  11.979  19.111  0.00  0.00    +0.000 A 
ATOM      7  C   UNL     1      -4.270  11.677  18.464  0.00  0.00    +0.000 A 
ATOM      8  C   UNL     1      -4.237  10.929  17.279  0.00  0.00    +0.000 A 
ATOM      9  C   UNL     1      -3.020  10.495  16.750  0.00  0.00    +0.000 A 
ATOM     10 CL   UNL     1      -3.012   9.576  15.293  0.00  0.00    +0.000 Cl
ATOM     11  C   UNL     1      -1.800  10.785  17.374  0.00  0.00    +0.000 A 
ATOM     12  C   UNL     1      -1.860  11.527  18.559  0.00  0.00    +0.000 A 
ATOM     13  N   UNL     1      -0.925  11.983  19.436  0.00  0.00    +0.000 N 
ENDROOT
BRANCH   1  21
ATOM     14  F   UNL     1       2.151  11.181  17.287  0.00  0.00    +0.000 F 
ATOM     15  C   UNL     1       1.882  10.238  18.200  0.00  0.00    +0.000 A 
ATOM     16  C   UNL     1       2.392   8.956  18.000  0.00  0.00    +0.000 A 
ATOM     17  C   UNL     1       2.114   7.951  18.922  0.00  0.00    +0.000 A 
ATOM     18  C   UNL     1       1.322   8.236  20.033  0.00  0.00    +0.000 A 
ATOM     19  C   UNL     1       0.816   9.523  20.212  0.00  0.00    +0.000 A 
ATOM     20  F   UNL     1       0.042   9.757  21.281  0.00  0.00    +0.000 F 
ATOM     21  C   UNL     1       1.084  10.551  19.304  0.00  0.00    +0.000 A 
ENDBRANCH   1  21
TORSDOF 1
ENDMDL
MODEL 8
REMARK VINA RESULT:      -6.1      3.159      4.176
REMARK  Name = 
REMARK  1 active torsions:
REMARK  status: ('A' for Active; 'I' for Inactive)
REMARK    1  A    between atoms: C_8  and  C_9
REMARK                            x       y       z     vdW  Elec       q    Type
REMARK                         _______ _______ _______ _____ _____    ______ ____
ROOT
ATOM      1  C   UNL     1       2.549   6.031  19.983  0.00  0.00    +0.000 C 
ATOM      2  S   UNL     1       1.338   7.242  20.664  0.00  0.00    +0.000 S 
ATOM      3  C   UNL     1       1.688   8.519  19.391  0.00  0.00    +0.000 C 
ATOM      4  C   UNL     1       2.593   7.867  18.419  0.00  0.00    +0.000 A 
ATOM      5  N   UNL     1       3.121   8.284  17.292  0.00  0.00    +0.000 NA
ATOM      6  C   UNL     1       3.919   7.240  16.871  0.00  0.00    +0.000 A 
ATOM      7  C   UNL     1       4.723   7.143  15.725  0.00  0.00    +0.000 A 
ATOM      8  C   UNL     1       5.464   5.973  15.514  0.00  0.00    +0.000 A 
ATOM      9  C   UNL     1       5.404   4.922  16.431  0.00  0.00    +0.000 A 
ATOM     10 CL   UNL     1       6.326   3.495  16.141  0.00  0.00    +0.000 Cl
ATOM     11  C   UNL     1       4.612   4.993  17.583  0.00  0.00    +0.000 A 
ATOM     12  C   UNL     1       3.877   6.169  17.769  0.00  0.00    +0.000 A 
ATOM     13  N   UNL     1       3.009   6.599  18.725  0.00  0.00    +0.000 N 
ENDROOT
BRANCH   1  21
ATOM     14  F   UNL     1       2.658   4.126  22.049  0.00  0.00    +0.000 F 
ATOM     15  C   UNL     1       2.077   3.744  20.904  0.00  0.00    +0.000 A 
ATOM     16  C   UNL     1       1.599   2.438  20.805  0.00  0.00    +0.000 A 
ATOM     17  C   UNL     1       1.008   2.008  19.621  0.00  0.00    +0.000 A 
ATOM     18  C   UNL     1       0.905   2.885  18.544  0.00  0.00    +0.000 A 
ATOM     19  C   UNL     1       1.394   4.187  18.660  0.00  0.00    +0.000 A 
ATOM     20  F   UNL     1       1.297   4.998  17.598  0.00  0.00    +0.000 F 
ATOM     21  C   UNL     1       1.989   4.645  19.839  0.00  0.00    +0.000 A 
ENDBRANCH   1  21
TORSDOF 1
ENDMDL
MODEL 9
REMARK VINA RESULT:      -6.0      8.842     11.173
REMARK  Name = 
REMARK  1 active torsions:
REMARK  status: ('A' for Active; 'I' for Inactive)
REMARK    1  A    between atoms: C_8  and  C_9
REMARK                            x       y       z     vdW  Elec       q    Type
REMARK                         _______ _______ _______ _____ _____    ______ ____
ROOT
ATOM      1  C   UNL     1      -0.767  12.383  20.714  0.00  0.00    +0.000 C 
ATOM      2  S   UNL     1      -0.741  13.341  22.289  0.00  0.00    +0.000 S 
ATOM      3  C   UNL     1      -2.477  13.919  22.127  0.00  0.00    +0.000 C 
ATOM      4  C   UNL     1      -3.024  13.200  20.956  0.00  0.00    +0.000 A 
ATOM      5  N   UNL     1      -4.219  13.183  20.412  0.00  0.00    +0.000 NA
ATOM      6  C   UNL     1      -4.093  12.359  19.313  0.00  0.00    +0.000 A 
ATOM      7  C   UNL     1      -5.058  11.990  18.364  0.00  0.00    +0.000 A 
ATOM      8  C   UNL     1      -4.687  11.142  17.313  0.00  0.00    +0.000 A 
ATOM      9  C   UNL     1      -3.375  10.675  17.210  0.00  0.00    +0.000 A 
ATOM     10 CL   UNL     1      -2.950   9.632  15.906  0.00  0.00    +0.000 Cl
ATOM     11  C   UNL     1      -2.391  11.030  18.141  0.00  0.00    +0.000 A 
ATOM     12  C   UNL     1      -2.788  11.872  19.185  0.00  0.00    +0.000 A 
ATOM     13  N   UNL     1      -2.149  12.412  20.258  0.00  0.00    +0.000 N 
ENDROOT
BRANCH   1  21
ATOM     14  F   UNL     1      -1.451  10.688  22.851  0.00  0.00    +0.000 F 
ATOM     15  C   UNL     1      -0.594  10.201  21.942  0.00  0.00    +0.000 A 
ATOM     16  C   UNL     1      -0.085   8.917  22.130  0.00  0.00    +0.000 A 
ATOM     17  C   UNL     1       0.821   8.393  21.212  0.00  0.00    +0.000 A 
ATOM     18  C   UNL     1       1.214   9.160  20.117  0.00  0.00    +0.000 A 
ATOM     19  C   UNL     1       0.697  10.445  19.950  0.00  0.00    +0.000 A 
ATOM     20  F   UNL     1       1.112  11.163  18.896  0.00  0.00    +0.000 F 
ATOM     21  C   UNL     1      -0.216  10.994  20.854  0.00  0.00    +0.000 A 
ENDBRANCH   1  21
TORSDOF 1
ENDMDL
