MODEL 1
REMARK VINA RESULT:      -8.5      0.000      0.000
REMARK  Name = 
REMARK  8 active torsions:
REMARK  status: ('A' for Active; 'I' for Inactive)
REMARK    1  A    between atoms: N_3  and  C_4
REMARK    2  A    between atoms: C_6  and  C_7
REMARK    3  A    between atoms: C_7  and  O_9
REMARK    4  A    between atoms: C_11  and  N_12
REMARK    5  A    between atoms: N_12  and  C_13
REMARK    6  A    between atoms: C_13  and  C_14
REMARK    7  A    between atoms: C_20  and  O_21
REMARK    8  A    between atoms: O_21  and  C_22
REMARK                            x       y       z     vdW  Elec       q    Type
REMARK                         _______ _______ _______ _____ _____    ______ ____
ROOT
ATOM      1  C   UNL     1       6.735   5.519  16.504  0.00  0.00    +0.000 A 
ATOM      2  C   UNL     1       7.053   5.240  15.170  0.00  0.00    +0.000 A 
ATOM      3  C   UNL     1       6.290   4.336  14.438  0.00  0.00    +0.000 A 
ATOM      4  C   UNL     1       5.136   3.801  14.990  0.00  0.00    +0.000 A 
ATOM      5  C   UNL     1       4.748   4.074  16.309  0.00  0.00    +0.000 A 
ATOM      6  C   UNL     1       5.561   4.965  17.078  0.00  0.00    +0.000 A 
ENDROOT
BRANCH   1   9
ATOM      7  O   UNL     1       8.260   8.298  18.163  0.00  0.00    +0.000 OA
ATOM      8  C   UNL     1       7.462   7.671  17.475  0.00  0.00    +0.000 C 
ATOM      9  N   UNL     1       7.662   6.359  17.149  0.00  0.00    +0.000 N 
ATOM     10  H   UNL     1       8.436   5.943  17.652  0.00  0.00    +0.000 HD
ENDBRANCH   1   9
BRANCH   3  11
ATOM     11  C   UNL     1       6.718   3.972  13.072  0.00  0.00    +0.000 C 
ATOM     12  O   UNL     1       7.469   4.684  12.418  0.00  0.00    +0.000 OA
BRANCH  11  13
ATOM     13  O   UNL     1       6.263   2.789  12.625  0.00  0.00    +0.000 OA
ATOM     14  H   UNL     1       6.077   2.111  13.302  0.00  0.00    +0.000 HD
ENDBRANCH  11  13
ENDBRANCH   3  11
BRANCH   5  15
ATOM     15  N   UNL     1       3.574   3.520  16.820  0.00  0.00    +0.000 N 
ATOM     16  H   UNL     1       2.813   4.180  16.925  0.00  0.00    +0.000 HD
BRANCH  15  17
ATOM     17  C   UNL     1       3.557   2.372  17.738  0.00  0.00    +0.000 C 
BRANCH  17  18
ATOM     18  C   UNL     1       2.797   2.596  19.035  0.00  0.00    +0.000 A 
ATOM     19  C   UNL     1       3.406   2.466  20.290  0.00  0.00    +0.000 A 
ATOM     20  C   UNL     1       2.673   2.681  21.463  0.00  0.00    +0.000 A 
ATOM     21  C   UNL     1       1.324   3.046  21.398  0.00  0.00    +0.000 A 
ATOM     22  C   UNL     1       0.713   3.197  20.161  0.00  0.00    +0.000 A 
ATOM     23  C   UNL     1       1.446   2.983  18.992  0.00  0.00    +0.000 A 
ENDBRANCH  17  18
ENDBRANCH  15  17
ENDBRANCH   5  15
BRANCH   6  24
ATOM     24  O   UNL     1       5.129   5.226  18.371  0.00  0.00    +0.000 OA
BRANCH  24  25
ATOM     25  C   UNL     1       4.099   6.117  18.622  0.00  0.00    +0.000 A 
ATOM     26  C   UNL     1       3.256   6.099  19.736  0.00  0.00    +0.000 A 
ATOM     27  C   UNL     1       2.188   7.002  19.828  0.00  0.00    +0.000 A 
ATOM     28  C   UNL     1       1.992   7.964  18.840  0.00  0.00    +0.000 A 
ATOM     29  C   UNL     1       2.865   8.031  17.759  0.00  0.00    +0.000 A 
ATOM     30  C   UNL     1       3.913   7.111  17.651  0.00  0.00    +0.000 A 
ENDBRANCH  24  25
ENDBRANCH   6  24
TORSDOF 8
ENDMDL
MODEL 2
REMARK VINA RESULT:      -8.5      0.354      1.355
REMARK  Name = 
REMARK  8 active torsions:
REMARK  status: ('A' for Active; 'I' for Inactive)
REMARK    1  A    between atoms: N_3  and  C_4
REMARK    2  A    between atoms: C_6  and  C_7
REMARK    3  A    between atoms: C_7  and  O_9
REMARK    4  A    between atoms: C_11  and  N_12
REMARK    5  A    between atoms: N_12  and  C_13
REMARK    6  A    between atoms: C_13  and  C_14
REMARK    7  A    between atoms: C_20  and  O_21
REMARK    8  A    between atoms: O_21  and  C_22
REMARK                            x       y       z     vdW  Elec       q    Type
REMARK                         _______ _______ _______ _____ _____    ______ ____
ROOT
ATOM      1  C   UNL     1       6.539   5.724  16.299  0.00  0.00    +0.000 A 
ATOM      2  C   UNL     1       6.895   5.379  14.991  0.00  0.00    +0.000 A 
ATOM      3  C   UNL     1       6.240   4.342  14.332  0.00  0.00    +0.000 A 
ATOM      4  C   UNL     1       5.148   3.729  14.926  0.00  0.00    +0.000 A 
ATOM      5  C   UNL     1       4.724   4.059  16.221  0.00  0.00    +0.000 A 
ATOM      6  C   UNL     1       5.429   5.090  16.917  0.00  0.00    +0.000 A 
ENDROOT
BRANCH   1   9
ATOM      7  O   UNL     1       8.521   7.606  18.607  0.00  0.00    +0.000 OA
ATOM      8  C   UNL     1       7.683   6.809  18.201  0.00  0.00    +0.000 C 
ATOM      9  N   UNL     1       7.364   6.707  16.876  0.00  0.00    +0.000 N 
ATOM     10  H   UNL     1       7.989   7.238  16.279  0.00  0.00    +0.000 HD
ENDBRANCH   1   9
BRANCH   3  11
ATOM     11  C   UNL     1       6.715   3.924  12.997  0.00  0.00    +0.000 C 
ATOM     12  O   UNL     1       7.486   4.610  12.340  0.00  0.00    +0.000 OA
BRANCH  11  13
ATOM     13  O   UNL     1       6.277   2.722  12.585  0.00  0.00    +0.000 OA
ATOM     14  H   UNL     1       6.894   1.974  12.694  0.00  0.00    +0.000 HD
ENDBRANCH  11  13
ENDBRANCH   3  11
BRANCH   5  15
ATOM     15  N   UNL     1       3.614   3.420  16.775  0.00  0.00    +0.000 N 
ATOM     16  H   UNL     1       2.773   3.984  16.792  0.00  0.00    +0.000 HD
BRANCH  15  17
ATOM     17  C   UNL     1       3.714   2.391  17.821  0.00  0.00    +0.000 C 
BRANCH  17  18
ATOM     18  C   UNL     1       2.847   2.630  19.045  0.00  0.00    +0.000 A 
ATOM     19  C   UNL     1       1.482   2.930  18.948  0.00  0.00    +0.000 A 
ATOM     20  C   UNL     1       0.716   3.142  20.099  0.00  0.00    +0.000 A 
ATOM     21  C   UNL     1       1.298   3.041  21.366  0.00  0.00    +0.000 A 
ATOM     22  C   UNL     1       2.645   2.725  21.479  0.00  0.00    +0.000 A 
ATOM     23  C   UNL     1       3.408   2.513  20.329  0.00  0.00    +0.000 A 
ENDBRANCH  17  18
ENDBRANCH  15  17
ENDBRANCH   5  15
BRANCH   6  24
ATOM     24  O   UNL     1       4.963   5.401  18.186  0.00  0.00    +0.000 OA
BRANCH  24  25
ATOM     25  C   UNL     1       3.943   6.318  18.376  0.00  0.00    +0.000 A 
ATOM     26  C   UNL     1       3.625   7.376  17.521  0.00  0.00    +0.000 A 
ATOM     27  C   UNL     1       2.626   8.294  17.873  0.00  0.00    +0.000 A 
ATOM     28  C   UNL     1       1.900   8.127  19.050  0.00  0.00    +0.000 A 
ATOM     29  C   UNL     1       2.166   7.040  19.877  0.00  0.00    +0.000 A 
ATOM     30  C   UNL     1       3.183   6.140  19.541  0.00  0.00    +0.000 A 
ENDBRANCH  24  25
ENDBRANCH   6  24
TORSDOF 8
ENDMDL
MODEL 3
REMARK VINA RESULT:      -8.4      0.648      1.278
REMARK  Name = 
REMARK  8 active torsions:
REMARK  status: ('A' for Active; 'I' for Inactive)
REMARK    1  A    between atoms: N_3  and  C_4
REMARK    2  A    between atoms: C_6  and  C_7
REMARK    3  A    between atoms: C_7  and  O_9
REMARK    4  A    between atoms: C_11  and  N_12
REMARK    5  A    between atoms: N_12  and  C_13
REMARK    6  A    between atoms: C_13  and  C_14
REMARK    7  A    between atoms: C_20  and  O_21
REMARK    8  A    between atoms: O_21  and  C_22
REMARK                            x       y       z     vdW  Elec       q    Type
REMARK                         _______ _______ _______ _____ _____    ______ ____
ROOT
ATOM      1  C   UNL     1       6.504   6.002  17.062  0.00  0.00    +0.000 A 
ATOM      2  C   UNL     1       7.039   5.831  15.780  0.00  0.00    +0.000 A 
ATOM      3  C   UNL     1       6.478   4.911  14.899  0.00  0.00    +0.000 A 
ATOM      4  C   UNL     1       5.310   4.249  15.245  0.00  0.00    +0.000 A 
ATOM      5  C   UNL     1       4.710   4.408  16.501  0.00  0.00    +0.000 A 
ATOM      6  C   UNL     1       5.315   5.317  17.425  0.00  0.00    +0.000 A 
ENDROOT
BRANCH   1   9
ATOM      7  O   UNL     1       8.267   8.855  18.306  0.00  0.00    +0.000 OA
ATOM      8  C   UNL     1       7.756   8.086  17.500  0.00  0.00    +0.000 C 
ATOM      9  N   UNL     1       7.245   6.876  17.879  0.00  0.00    +0.000 N 
ATOM     10  H   UNL     1       7.202   6.766  18.885  0.00  0.00    +0.000 HD
ENDBRANCH   1   9
BRANCH   3  11
ATOM     11  C   UNL     1       7.134   4.668  13.598  0.00  0.00    +0.000 C 
ATOM     12  O   UNL     1       6.720   3.826  12.812  0.00  0.00    +0.000 OA
BRANCH  11  13
ATOM     13  O   UNL     1       8.181   5.467  13.326  0.00  0.00    +0.000 OA
ATOM     14  H   UNL     1       8.941   5.049  12.880  0.00  0.00    +0.000 HD
ENDBRANCH  11  13
ENDBRANCH   3  11
BRANCH   5  15
ATOM     15  N   UNL     1       3.530   3.727  16.802  0.00  0.00    +0.000 N 
ATOM     16  H   UNL     1       2.706   4.315  16.835  0.00  0.00    +0.000 HD
BRANCH  15  17
ATOM     17  C   UNL     1       3.487   2.518  17.638  0.00  0.00    +0.000 C 
BRANCH  17  18
ATOM     18  C   UNL     1       2.760   2.676  18.963  0.00  0.00    +0.000 A 
ATOM     19  C   UNL     1       3.412   2.537  20.194  0.00  0.00    +0.000 A 
ATOM     20  C   UNL     1       2.708   2.691  21.394  0.00  0.00    +0.000 A 
ATOM     21  C   UNL     1       1.345   3.003  21.380  0.00  0.00    +0.000 A 
ATOM     22  C   UNL     1       0.690   3.164  20.167  0.00  0.00    +0.000 A 
ATOM     23  C   UNL     1       1.394   3.011  18.971  0.00  0.00    +0.000 A 
ENDBRANCH  17  18
ENDBRANCH  15  17
ENDBRANCH   5  15
BRANCH   6  24
ATOM     24  O   UNL     1       4.676   5.462  18.649  0.00  0.00    +0.000 OA
BRANCH  24  25
ATOM     25  C   UNL     1       3.644   6.368  18.821  0.00  0.00    +0.000 A 
ATOM     26  C   UNL     1       3.284   7.377  17.925  0.00  0.00    +0.000 A 
ATOM     27  C   UNL     1       2.275   8.292  18.258  0.00  0.00    +0.000 A 
ATOM     28  C   UNL     1       1.582   8.168  19.460  0.00  0.00    +0.000 A 
ATOM     29  C   UNL     1       1.890   7.127  20.331  0.00  0.00    +0.000 A 
ATOM     30  C   UNL     1       2.916   6.231  20.012  0.00  0.00    +0.000 A 
ENDBRANCH  24  25
ENDBRANCH   6  24
TORSDOF 8
ENDMDL
MODEL 4
REMARK VINA RESULT:      -8.4      0.487      1.046
REMARK  Name = 
REMARK  8 active torsions:
REMARK  status: ('A' for Active; 'I' for Inactive)
REMARK    1  A    between atoms: N_3  and  C_4
REMARK    2  A    between atoms: C_6  and  C_7
REMARK    3  A    between atoms: C_7  and  O_9
REMARK    4  A    between atoms: C_11  and  N_12
REMARK    5  A    between atoms: N_12  and  C_13
REMARK    6  A    between atoms: C_13  and  C_14
REMARK    7  A    between atoms: C_20  and  O_21
REMARK    8  A    between atoms: O_21  and  C_22
REMARK                            x       y       z     vdW  Elec       q    Type
REMARK                         _______ _______ _______ _____ _____    ______ ____
ROOT
ATOM      1  C   UNL     1       6.485   5.824  17.026  0.00  0.00    +0.000 A 
ATOM      2  C   UNL     1       6.981   5.661  15.728  0.00  0.00    +0.000 A 
ATOM      3  C   UNL     1       6.384   4.759  14.852  0.00  0.00    +0.000 A 
ATOM      4  C   UNL     1       5.217   4.109  15.223  0.00  0.00    +0.000 A 
ATOM      5  C   UNL     1       4.654   4.262  16.497  0.00  0.00    +0.000 A 
ATOM      6  C   UNL     1       5.297   5.151  17.414  0.00  0.00    +0.000 A 
ENDROOT
BRANCH   1   9
ATOM      7  O   UNL     1       8.288   8.653  18.268  0.00  0.00    +0.000 OA
ATOM      8  C   UNL     1       7.743   7.904  17.465  0.00  0.00    +0.000 C 
ATOM      9  N   UNL     1       7.260   6.680  17.831  0.00  0.00    +0.000 N 
ATOM     10  H   UNL     1       7.268   6.537  18.835  0.00  0.00    +0.000 HD
ENDBRANCH   1   9
BRANCH   3  11
ATOM     11  C   UNL     1       7.000   4.522  13.531  0.00  0.00    +0.000 C 
ATOM     12  O   UNL     1       7.817   5.297  13.050  0.00  0.00    +0.000 OA
BRANCH  11  13
ATOM     13  O   UNL     1       6.635   3.379  12.926  0.00  0.00    +0.000 OA
ATOM     14  H   UNL     1       5.783   2.993  13.204  0.00  0.00    +0.000 HD
ENDBRANCH  11  13
ENDBRANCH   3  11
BRANCH   5  15
ATOM     15  N   UNL     1       3.473   3.593  16.823  0.00  0.00    +0.000 N 
ATOM     16  H   UNL     1       2.646   4.177  16.810  0.00  0.00    +0.000 HD
BRANCH  15  17
ATOM     17  C   UNL     1       3.425   2.437  17.729  0.00  0.00    +0.000 C 
BRANCH  17  18
ATOM     18  C   UNL     1       2.675   2.668  19.031  0.00  0.00    +0.000 A 
ATOM     19  C   UNL     1       1.325   3.039  19.060  0.00  0.00    +0.000 A 
ATOM     20  C   UNL     1       0.669   3.243  20.279  0.00  0.00    +0.000 A 
ATOM     21  C   UNL     1       1.348   3.061  21.488  0.00  0.00    +0.000 A 
ATOM     22  C   UNL     1       2.681   2.675  21.475  0.00  0.00    +0.000 A 
ATOM     23  C   UNL     1       3.334   2.472  20.258  0.00  0.00    +0.000 A 
ENDBRANCH  17  18
ENDBRANCH  15  17
ENDBRANCH   5  15
BRANCH   6  24
ATOM     24  O   UNL     1       4.694   5.291  18.656  0.00  0.00    +0.000 OA
BRANCH  24  25
ATOM     25  C   UNL     1       3.721   6.250  18.883  0.00  0.00    +0.000 A 
ATOM     26  C   UNL     1       2.886   6.319  20.000  0.00  0.00    +0.000 A 
ATOM     27  C   UNL     1       1.874   7.287  20.068  0.00  0.00    +0.000 A 
ATOM     28  C   UNL     1       1.730   8.226  19.050  0.00  0.00    +0.000 A 
ATOM     29  C   UNL     1       2.599   8.206  17.963  0.00  0.00    +0.000 A 
ATOM     30  C   UNL     1       3.589   7.221  17.880  0.00  0.00    +0.000 A 
ENDBRANCH  24  25
ENDBRANCH   6  24
TORSDOF 8
ENDMDL
MODEL 5
REMARK VINA RESULT:      -7.7      2.039      4.780
REMARK  Name = 
REMARK  8 active torsions:
REMARK  status: ('A' for Active; 'I' for Inactive)
REMARK    1  A    between atoms: N_3  and  C_4
REMARK    2  A    between atoms: C_6  and  C_7
REMARK    3  A    between atoms: C_7  and  O_9
REMARK    4  A    between atoms: C_11  and  N_12
REMARK    5  A    between atoms: N_12  and  C_13
REMARK    6  A    between atoms: C_13  and  C_14
REMARK    7  A    between atoms: C_20  and  O_21
REMARK    8  A    between atoms: O_21  and  C_22
REMARK                            x       y       z     vdW  Elec       q    Type
REMARK                         _______ _______ _______ _____ _____    ______ ____
ROOT
ATOM      1  C   UNL     1       5.367   4.377  18.315  0.00  0.00    +0.000 A 
ATOM      2  C   UNL     1       6.142   4.236  17.159  0.00  0.00    +0.000 A 
ATOM      3  C   UNL     1       6.033   5.154  16.120  0.00  0.00    +0.000 A 
ATOM      4  C   UNL     1       5.245   6.283  16.279  0.00  0.00    +0.000 A 
ATOM      5  C   UNL     1       4.474   6.496  17.430  0.00  0.00    +0.000 A 
ATOM      6  C   UNL     1       4.549   5.526  18.478  0.00  0.00    +0.000 A 
ENDROOT
BRANCH   1   9
ATOM      7  O   UNL     1       4.913   1.282  20.050  0.00  0.00    +0.000 OA
ATOM      8  C   UNL     1       4.656   2.241  19.332  0.00  0.00    +0.000 C 
ATOM      9  N   UNL     1       5.498   3.312  19.226  0.00  0.00    +0.000 N 
ATOM     10  H   UNL     1       6.393   3.153  19.673  0.00  0.00    +0.000 HD
ENDBRANCH   1   9
BRANCH   3  11
ATOM     11  C   UNL     1       6.775   4.914  14.866  0.00  0.00    +0.000 C 
ATOM     12  O   UNL     1       7.768   5.565  14.567  0.00  0.00    +0.000 OA
BRANCH  11  13
ATOM     13  O   UNL     1       6.309   3.907  14.108  0.00  0.00    +0.000 OA
ATOM     14  H   UNL     1       5.340   3.789  14.089  0.00  0.00    +0.000 HD
ENDBRANCH  11  13
ENDBRANCH   3  11
BRANCH   5  15
ATOM     15  N   UNL     1       3.702   7.653  17.549  0.00  0.00    +0.000 N 
ATOM     16  H   UNL     1       4.175   8.426  18.000  0.00  0.00    +0.000 HD
BRANCH  15  17
ATOM     17  C   UNL     1       2.238   7.635  17.681  0.00  0.00    +0.000 C 
BRANCH  17  18
ATOM     18  C   UNL     1       1.667   8.644  18.662  0.00  0.00    +0.000 A 
ATOM     19  C   UNL     1       1.253   9.922  18.265  0.00  0.00    +0.000 A 
ATOM     20  C   UNL     1       0.731  10.824  19.198  0.00  0.00    +0.000 A 
ATOM     21  C   UNL     1       0.599  10.456  20.541  0.00  0.00    +0.000 A 
ATOM     22  C   UNL     1       0.986   9.186  20.946  0.00  0.00    +0.000 A 
ATOM     23  C   UNL     1       1.506   8.287  20.013  0.00  0.00    +0.000 A 
ENDBRANCH  17  18
ENDBRANCH  15  17
ENDBRANCH   5  15
BRANCH   6  24
ATOM     24  O   UNL     1       3.789   5.786  19.609  0.00  0.00    +0.000 OA
BRANCH  24  25
ATOM     25  C   UNL     1       2.827   4.895  20.054  0.00  0.00    +0.000 A 
ATOM     26  C   UNL     1       2.719   4.389  21.351  0.00  0.00    +0.000 A 
ATOM     27  C   UNL     1       1.754   3.418  21.653  0.00  0.00    +0.000 A 
ATOM     28  C   UNL     1       0.855   2.993  20.678  0.00  0.00    +0.000 A 
ATOM     29  C   UNL     1       0.913   3.539  19.399  0.00  0.00    +0.000 A 
ATOM     30  C   UNL     1       1.895   4.485  19.089  0.00  0.00    +0.000 A 
ENDBRANCH  24  25
ENDBRANCH   6  24
TORSDOF 8
ENDMDL
MODEL 6
REMARK VINA RESULT:      -7.6      1.522      4.891
REMARK  Name = 
REMARK  8 active torsions:
REMARK  status: ('A' for Active; 'I' for Inactive)
REMARK    1  A    between atoms: N_3  and  C_4
REMARK    2  A    between atoms: C_6  and  C_7
REMARK    3  A    between atoms: C_7  and  O_9
REMARK    4  A    between atoms: C_11  and  N_12
REMARK    5  A    between atoms: N_12  and  C_13
REMARK    6  A    between atoms: C_13  and  C_14
REMARK    7  A    between atoms: C_20  and  O_21
REMARK    8  A    between atoms: O_21  and  C_22
REMARK                            x       y       z     vdW  Elec       q    Type
REMARK                         _______ _______ _______ _____ _____    ______ ____
ROOT
ATOM      1  C   UNL     1       5.601   6.435  17.099  0.00  0.00    +0.000 A 
ATOM      2  C   UNL     1       4.660   7.214  17.782  0.00  0.00    +0.000 A 
ATOM      3  C   UNL     1       3.393   6.709  18.059  0.00  0.00    +0.000 A 
ATOM      4  C   UNL     1       3.100   5.386  17.767  0.00  0.00    +0.000 A 
ATOM      5  C   UNL     1       4.016   4.548  17.117  0.00  0.00    +0.000 A 
ATOM      6  C   UNL     1       5.301   5.083  16.788  0.00  0.00    +0.000 A 
ENDROOT
BRANCH   1   9
ATOM      7  O   UNL     1       8.464   8.573  17.264  0.00  0.00    +0.000 OA
ATOM      8  C   UNL     1       7.352   8.125  17.521  0.00  0.00    +0.000 C 
ATOM      9  N   UNL     1       6.792   7.117  16.788  0.00  0.00    +0.000 N 
ATOM     10  H   UNL     1       7.442   6.699  16.133  0.00  0.00    +0.000 HD
ENDBRANCH   1   9
BRANCH   3  11
ATOM     11  C   UNL     1       2.384   7.594  18.675  0.00  0.00    +0.000 C 
ATOM     12  O   UNL     1       1.728   8.387  18.012  0.00  0.00    +0.000 OA
BRANCH  11  13
ATOM     13  O   UNL     1       2.211   7.431  19.998  0.00  0.00    +0.000 OA
ATOM     14  H   UNL     1       1.674   8.107  20.452  0.00  0.00    +0.000 HD
ENDBRANCH  11  13
ENDBRANCH   3  11
BRANCH   5  15
ATOM     15  N   UNL     1       3.680   3.220  16.851  0.00  0.00    +0.000 N 
ATOM     16  H   UNL     1       3.010   3.101  16.101  0.00  0.00    +0.000 HD
BRANCH  15  17
ATOM     17  C   UNL     1       3.684   2.166  17.877  0.00  0.00    +0.000 C 
BRANCH  17  18
ATOM     18  C   UNL     1       2.808   2.441  19.087  0.00  0.00    +0.000 A 
ATOM     19  C   UNL     1       1.416   2.562  18.991  0.00  0.00    +0.000 A 
ATOM     20  C   UNL     1       0.643   2.815  20.130  0.00  0.00    +0.000 A 
ATOM     21  C   UNL     1       1.248   2.934  21.385  0.00  0.00    +0.000 A 
ATOM     22  C   UNL     1       2.625   2.798  21.498  0.00  0.00    +0.000 A 
ATOM     23  C   UNL     1       3.395   2.545  20.362  0.00  0.00    +0.000 A 
ENDBRANCH  17  18
ENDBRANCH  15  17
ENDBRANCH   5  15
BRANCH   6  24
ATOM     24  O   UNL     1       6.185   4.213  16.165  0.00  0.00    +0.000 OA
BRANCH  24  25
ATOM     25  C   UNL     1       6.351   4.213  14.791  0.00  0.00    +0.000 A 
ATOM     26  C   UNL     1       5.556   3.526  13.871  0.00  0.00    +0.000 A 
ATOM     27  C   UNL     1       5.885   3.533  12.508  0.00  0.00    +0.000 A 
ATOM     28  C   UNL     1       6.973   4.272  12.051  0.00  0.00    +0.000 A 
ATOM     29  C   UNL     1       7.734   5.012  12.951  0.00  0.00    +0.000 A 
ATOM     30  C   UNL     1       7.423   4.982  14.315  0.00  0.00    +0.000 A 
ENDBRANCH  24  25
ENDBRANCH   6  24
TORSDOF 8
ENDMDL
MODEL 7
REMARK VINA RESULT:      -7.6      0.654      1.294
REMARK  Name = 
REMARK  8 active torsions:
REMARK  status: ('A' for Active; 'I' for Inactive)
REMARK    1  A    between atoms: N_3  and  C_4
REMARK    2  A    between atoms: C_6  and  C_7
REMARK    3  A    between atoms: C_7  and  O_9
REMARK    4  A    between atoms: C_11  and  N_12
REMARK    5  A    between atoms: N_12  and  C_13
REMARK    6  A    between atoms: C_13  and  C_14
REMARK    7  A    between atoms: C_20  and  O_21
REMARK    8  A    between atoms: O_21  and  C_22
REMARK                            x       y       z     vdW  Elec       q    Type
REMARK                         _______ _______ _______ _____ _____    ______ ____
ROOT
ATOM      1  C   UNL     1       6.746   5.667  15.971  0.00  0.00    +0.000 A 
ATOM      2  C   UNL     1       6.921   5.336  14.623  0.00  0.00    +0.000 A 
ATOM      3  C   UNL     1       6.373   4.166  14.107  0.00  0.00    +0.000 A 
ATOM      4  C   UNL     1       5.546   3.385  14.900  0.00  0.00    +0.000 A 
ATOM      5  C   UNL     1       5.305   3.688  16.248  0.00  0.00    +0.000 A 
ATOM      6  C   UNL     1       5.910   4.865  16.791  0.00  0.00    +0.000 A 
ENDROOT
BRANCH   1   9
ATOM      7  O   UNL     1       8.130   8.324  17.927  0.00  0.00    +0.000 OA
ATOM      8  C   UNL     1       7.377   7.413  17.601  0.00  0.00    +0.000 C 
ATOM      9  N   UNL     1       7.454   6.815  16.375  0.00  0.00    +0.000 N 
ATOM     10  H   UNL     1       8.273   7.098  15.850  0.00  0.00    +0.000 HD
ENDBRANCH   1   9
BRANCH   3  11
ATOM     11  C   UNL     1       6.672   3.783  12.713  0.00  0.00    +0.000 C 
ATOM     12  O   UNL     1       6.128   2.830  12.172  0.00  0.00    +0.000 OA
BRANCH  11  13
ATOM     13  O   UNL     1       7.545   4.583  12.075  0.00  0.00    +0.000 OA
ATOM     14  H   UNL     1       8.225   4.139  11.535  0.00  0.00    +0.000 HD
ENDBRANCH  11  13
ENDBRANCH   3  11
BRANCH   5  15
ATOM     15  N   UNL     1       4.458   2.877  17.004  0.00  0.00    +0.000 N 
ATOM     16  H   UNL     1       4.794   1.931  17.136  0.00  0.00    +0.000 HD
BRANCH  15  17
ATOM     17  C   UNL     1       2.998   3.048  17.041  0.00  0.00    +0.000 C 
BRANCH  17  18
ATOM     18  C   UNL     1       2.376   2.978  18.426  0.00  0.00    +0.000 A 
ATOM     19  C   UNL     1       3.040   2.401  19.516  0.00  0.00    +0.000 A 
ATOM     20  C   UNL     1       2.434   2.356  20.776  0.00  0.00    +0.000 A 
ATOM     21  C   UNL     1       1.162   2.904  20.970  0.00  0.00    +0.000 A 
ATOM     22  C   UNL     1       0.500   3.498  19.904  0.00  0.00    +0.000 A 
ATOM     23  C   UNL     1       1.106   3.541  18.647  0.00  0.00    +0.000 A 
ENDBRANCH  17  18
ENDBRANCH  15  17
ENDBRANCH   5  15
BRANCH   6  24
ATOM     24  O   UNL     1       5.627   5.140  18.121  0.00  0.00    +0.000 OA
BRANCH  24  25
ATOM     25  C   UNL     1       4.481   5.823  18.489  0.00  0.00    +0.000 A 
ATOM     26  C   UNL     1       3.779   6.731  17.693  0.00  0.00    +0.000 A 
ATOM     27  C   UNL     1       2.682   7.430  18.217  0.00  0.00    +0.000 A 
ATOM     28  C   UNL     1       2.245   7.182  19.515  0.00  0.00    +0.000 A 
ATOM     29  C   UNL     1       2.898   6.232  20.295  0.00  0.00    +0.000 A 
ATOM     30  C   UNL     1       4.011   5.556  19.783  0.00  0.00    +0.000 A 
ENDBRANCH  24  25
ENDBRANCH   6  24
TORSDOF 8
ENDMDL
MODEL 8
REMARK VINA RESULT:      -7.6      2.013      4.750
REMARK  Name = 
REMARK  8 active torsions:
REMARK  status: ('A' for Active; 'I' for Inactive)
REMARK    1  A    between atoms: N_3  and  C_4
REMARK    2  A    between atoms: C_6  and  C_7
REMARK    3  A    between atoms: C_7  and  O_9
REMARK    4  A    between atoms: C_11  and  N_12
REMARK    5  A    between atoms: N_12  and  C_13
REMARK    6  A    between atoms: C_13  and  C_14
REMARK    7  A    between atoms: C_20  and  O_21
REMARK    8  A    between atoms: O_21  and  C_22
REMARK                            x       y       z     vdW  Elec       q    Type
REMARK                         _______ _______ _______ _____ _____    ______ ____
ROOT
ATOM      1  C   UNL     1       5.195   4.238  18.171  0.00  0.00    +0.000 A 
ATOM      2  C   UNL     1       5.907   4.122  16.971  0.00  0.00    +0.000 A 
ATOM      3  C   UNL     1       5.838   5.126  16.010  0.00  0.00    +0.000 A 
ATOM      4  C   UNL     1       5.162   6.303  16.291  0.00  0.00    +0.000 A 
ATOM      5  C   UNL     1       4.461   6.490  17.490  0.00  0.00    +0.000 A 
ATOM      6  C   UNL     1       4.491   5.437  18.457  0.00  0.00    +0.000 A 
ENDROOT
BRANCH   1   9
ATOM      7  O   UNL     1       4.606   1.021  19.618  0.00  0.00    +0.000 OA
ATOM      8  C   UNL     1       4.398   2.043  18.975  0.00  0.00    +0.000 C 
ATOM      9  N   UNL     1       5.267   3.097  18.991  0.00  0.00    +0.000 N 
ATOM     10  H   UNL     1       6.141   2.879  19.456  0.00  0.00    +0.000 HD
ENDBRANCH   1   9
BRANCH   3  11
ATOM     11  C   UNL     1       6.504   4.923  14.708  0.00  0.00    +0.000 C 
ATOM     12  O   UNL     1       6.017   4.217  13.835  0.00  0.00    +0.000 OA
BRANCH  11  13
ATOM     13  O   UNL     1       7.651   5.604  14.539  0.00  0.00    +0.000 OA
ATOM     14  H   UNL     1       7.902   6.217  15.255  0.00  0.00    +0.000 HD
ENDBRANCH  11  13
ENDBRANCH   3  11
BRANCH   5  15
ATOM     15  N   UNL     1       3.801   7.695  17.732  0.00  0.00    +0.000 N 
ATOM     16  H   UNL     1       4.195   8.243  18.487  0.00  0.00    +0.000 HD
BRANCH  15  17
ATOM     17  C   UNL     1       2.366   7.894  17.480  0.00  0.00    +0.000 C 
BRANCH  17  18
ATOM     18  C   UNL     1       1.614   8.627  18.579  0.00  0.00    +0.000 A 
ATOM     19  C   UNL     1       1.703   8.251  19.925  0.00  0.00    +0.000 A 
ATOM     20  C   UNL     1       0.996   8.952  20.908  0.00  0.00    +0.000 A 
ATOM     21  C   UNL     1       0.203  10.051  20.562  0.00  0.00    +0.000 A 
ATOM     22  C   UNL     1       0.121  10.448  19.235  0.00  0.00    +0.000 A 
ATOM     23  C   UNL     1       0.827   9.747  18.255  0.00  0.00    +0.000 A 
ENDBRANCH  17  18
ENDBRANCH  15  17
ENDBRANCH   5  15
BRANCH   6  24
ATOM     24  O   UNL     1       3.804   5.672  19.640  0.00  0.00    +0.000 OA
BRANCH  24  25
ATOM     25  C   UNL     1       2.821   4.806  20.088  0.00  0.00    +0.000 A 
ATOM     26  C   UNL     1       2.745   4.246  21.365  0.00  0.00    +0.000 A 
ATOM     27  C   UNL     1       1.749   3.307  21.668  0.00  0.00    +0.000 A 
ATOM     28  C   UNL     1       0.789   2.969  20.717  0.00  0.00    +0.000 A 
ATOM     29  C   UNL     1       0.818   3.570  19.462  0.00  0.00    +0.000 A 
ATOM     30  C   UNL     1       1.830   4.484  19.150  0.00  0.00    +0.000 A 
ENDBRANCH  24  25
ENDBRANCH   6  24
TORSDOF 8
ENDMDL
MODEL 9
REMARK VINA RESULT:      -7.5      1.540      4.815
REMARK  Name = 
REMARK  8 active torsions:
REMARK  status: ('A' for Active; 'I' for Inactive)
REMARK    1  A    between atoms: N_3  and  C_4
REMARK    2  A    between atoms: C_6  and  C_7
REMARK    3  A    between atoms: C_7  and  O_9
REMARK    4  A    between atoms: C_11  and  N_12
REMARK    5  A    between atoms: N_12  and  C_13
REMARK    6  A    between atoms: C_13  and  C_14
REMARK    7  A    between atoms: C_20  and  O_21
REMARK    8  A    between atoms: O_21  and  C_22
REMARK                            x       y       z     vdW  Elec       q    Type
REMARK                         _______ _______ _______ _____ _____    ______ ____
ROOT
ATOM      1  C   UNL     1       5.646   6.478  17.050  0.00  0.00    +0.000 A 
ATOM      2  C   UNL     1       4.690   7.248  17.721  0.00  0.00    +0.000 A 
ATOM      3  C   UNL     1       3.420   6.735  17.971  0.00  0.00    +0.000 A 
ATOM      4  C   UNL     1       3.139   5.413  17.665  0.00  0.00    +0.000 A 
ATOM      5  C   UNL     1       4.071   4.583  17.026  0.00  0.00    +0.000 A 
ATOM      6  C   UNL     1       5.359   5.127  16.724  0.00  0.00    +0.000 A 
ENDROOT
BRANCH   1   9
ATOM      7  O   UNL     1       8.526   8.584  17.306  0.00  0.00    +0.000 OA
ATOM      8  C   UNL     1       7.414   8.130  17.548  0.00  0.00    +0.000 C 
ATOM      9  N   UNL     1       6.839   7.168  16.766  0.00  0.00    +0.000 N 
ATOM     10  H   UNL     1       7.480   6.783  16.082  0.00  0.00    +0.000 HD
ENDBRANCH   1   9
BRANCH   3  11
ATOM     11  C   UNL     1       2.396   7.611  18.575  0.00  0.00    +0.000 C 
ATOM     12  O   UNL     1       2.059   7.500  19.746  0.00  0.00    +0.000 OA
BRANCH  11  13
ATOM     13  O   UNL     1       1.901   8.560  17.761  0.00  0.00    +0.000 OA
ATOM     14  H   UNL     1       1.295   9.208  18.167  0.00  0.00    +0.000 HD
ENDBRANCH  11  13
ENDBRANCH   3  11
BRANCH   5  15
ATOM     15  N   UNL     1       3.746   3.255  16.745  0.00  0.00    +0.000 N 
ATOM     16  H   UNL     1       3.099   3.138  15.975  0.00  0.00    +0.000 HD
BRANCH  15  17
ATOM     17  C   UNL     1       3.724   2.197  17.765  0.00  0.00    +0.000 C 
BRANCH  17  18
ATOM     18  C   UNL     1       2.882   2.502  18.992  0.00  0.00    +0.000 A 
ATOM     19  C   UNL     1       3.452   2.766  20.244  0.00  0.00    +0.000 A 
ATOM     20  C   UNL     1       2.642   3.044  21.351  0.00  0.00    +0.000 A 
ATOM     21  C   UNL     1       1.250   3.079  21.219  0.00  0.00    +0.000 A 
ATOM     22  C   UNL     1       0.672   2.839  19.980  0.00  0.00    +0.000 A 
ATOM     23  C   UNL     1       1.481   2.563  18.877  0.00  0.00    +0.000 A 
ENDBRANCH  17  18
ENDBRANCH  15  17
ENDBRANCH   5  15
BRANCH   6  24
ATOM     24  O   UNL     1       6.259   4.265  16.112  0.00  0.00    +0.000 OA
BRANCH  24  25
ATOM     25  C   UNL     1       6.425   4.253  14.738  0.00  0.00    +0.000 A 
ATOM     26  C   UNL     1       5.626   3.562  13.824  0.00  0.00    +0.000 A 
ATOM     27  C   UNL     1       5.956   3.554  12.461  0.00  0.00    +0.000 A 
ATOM     28  C   UNL     1       7.048   4.283  11.997  0.00  0.00    +0.000 A 
ATOM     29  C   UNL     1       7.812   5.027  12.891  0.00  0.00    +0.000 A 
ATOM     30  C   UNL     1       7.501   5.011  14.255  0.00  0.00    +0.000 A 
ENDBRANCH  24  25
ENDBRANCH   6  24
TORSDOF 8
ENDMDL
