MODEL 1
REMARK VINA RESULT:      -7.6      0.000      0.000
REMARK  Name = 
REMARK  5 active torsions:
REMARK  status: ('A' for Active; 'I' for Inactive)
REMARK    1  A    between atoms: C_1  and  C_2
REMARK    2  A    between atoms: C_5  and  C_6
REMARK    3  A    between atoms: N_10  and  C_11
REMARK    4  A    between atoms: C_11  and  C_12
REMARK    5  A    between atoms: C_17  and  C_19
REMARK                            x       y       z     vdW  Elec       q    Type
REMARK                         _______ _______ _______ _____ _____    ______ ____
ROOT
ATOM      1  C   UNL     1       1.418   8.763  19.710  0.00  0.00    +0.000 A 
ATOM      2  C   UNL     1       1.718   9.091  18.397  0.00  0.00    +0.000 A 
ATOM      3  S   UNL     1       2.716   7.895  17.696  0.00  0.00    +0.000 S 
ATOM      4  C   UNL     1       2.559   6.968  19.128  0.00  0.00    +0.000 A 
ATOM      5  N   UNL     1       3.134   5.711  19.096  0.00  0.00    +0.000 N 
ATOM      6  C   UNL     1       2.376   4.739  18.403  0.00  0.00    +0.000 C 
ATOM      7  O   UNL     1       1.321   5.017  17.825  0.00  0.00    +0.000 OA
ATOM      8  N   UNL     1       1.896   7.522  20.121  0.00  0.00    +0.000 NA
ENDROOT
BRANCH   1  13
ATOM      9  C   UNL     1      -1.578  12.235  23.253  0.00  0.00    +0.000 C 
ATOM     10  C   UNL     1      -0.785  11.367  22.321  0.00  0.00    +0.000 A 
ATOM     11  C   UNL     1      -0.335  11.829  21.077  0.00  0.00    +0.000 A 
ATOM     12  C   UNL     1       0.385  10.985  20.215  0.00  0.00    +0.000 A 
ATOM     13  C   UNL     1       0.673   9.666  20.588  0.00  0.00    +0.000 A 
ATOM     14  C   UNL     1       0.218   9.215  21.837  0.00  0.00    +0.000 A 
ATOM     15  C   UNL     1      -0.499  10.052  22.694  0.00  0.00    +0.000 A 
ENDBRANCH   1  13
BRANCH   6  16
ATOM     16  C   UNL     1       2.897   3.379  18.315  0.00  0.00    +0.000 A 
ATOM     17  C   UNL     1       3.488   2.718  17.251  0.00  0.00    +0.000 A 
ATOM     18  C   UNL     1       3.822   1.418  17.705  0.00  0.00    +0.000 A 
ATOM     19  C   UNL     1       3.377   1.343  18.999  0.00  0.00    +0.000 A 
ATOM     20  O   UNL     1       2.807   2.516  19.374  0.00  0.00    +0.000 OA
ENDBRANCH   6  16
BRANCH   5  21
ATOM     21  C   UNL     1       4.475   5.421  19.625  0.00  0.00    +0.000 C 
BRANCH  21  22
ATOM     22  C   UNL     1       5.715   5.834  18.830  0.00  0.00    +0.000 C 
ATOM     23  C   UNL     1       5.484   5.659  17.329  0.00  0.00    +0.000 C 
ATOM     24  C   UNL     1       6.900   5.592  16.820  0.00  0.00    +0.000 C 
ATOM     25  C   UNL     1       7.592   4.799  17.910  0.00  0.00    +0.000 C 
ATOM     26  O   UNL     1       6.840   4.993  19.117  0.00  0.00    +0.000 OA
ENDBRANCH  21  22
ENDBRANCH   5  21
TORSDOF 4
ENDMDL
MODEL 2
REMARK VINA RESULT:      -7.5      0.701      1.311
REMARK  Name = 
REMARK  5 active torsions:
REMARK  status: ('A' for Active; 'I' for Inactive)
REMARK    1  A    between atoms: C_1  and  C_2
REMARK    2  A    between atoms: C_5  and  C_6
REMARK    3  A    between atoms: N_10  and  C_11
REMARK    4  A    between atoms: C_11  and  C_12
REMARK    5  A    between atoms: C_17  and  C_19
REMARK                            x       y       z     vdW  Elec       q    Type
REMARK                         _______ _______ _______ _____ _____    ______ ____
ROOT
ATOM      1  C   UNL     1       1.288   8.941  19.811  0.00  0.00    +0.000 A 
ATOM      2  C   UNL     1       1.547   9.282  18.494  0.00  0.00    +0.000 A 
ATOM      3  S   UNL     1       2.535   8.100  17.754  0.00  0.00    +0.000 S 
ATOM      4  C   UNL     1       2.428   7.162  19.183  0.00  0.00    +0.000 A 
ATOM      5  N   UNL     1       3.014   5.910  19.125  0.00  0.00    +0.000 N 
ATOM      6  C   UNL     1       2.244   4.937  18.446  0.00  0.00    +0.000 C 
ATOM      7  O   UNL     1       1.171   5.209  17.901  0.00  0.00    +0.000 OA
ATOM      8  N   UNL     1       1.789   7.702  20.199  0.00  0.00    +0.000 NA
ENDROOT
BRANCH   1  13
ATOM      9  C   UNL     1      -1.546  12.566  23.335  0.00  0.00    +0.000 C 
ATOM     10  C   UNL     1      -0.831  11.598  22.439  0.00  0.00    +0.000 A 
ATOM     11  C   UNL     1      -0.577  10.276  22.826  0.00  0.00    +0.000 A 
ATOM     12  C   UNL     1       0.117   9.399  21.974  0.00  0.00    +0.000 A 
ATOM     13  C   UNL     1       0.561   9.831  20.718  0.00  0.00    +0.000 A 
ATOM     14  C   UNL     1       0.298  11.157  20.341  0.00  0.00    +0.000 A 
ATOM     15  C   UNL     1      -0.390  12.030  21.187  0.00  0.00    +0.000 A 
ENDBRANCH   1  13
BRANCH   6  16
ATOM     16  C   UNL     1       2.775   3.582  18.333  0.00  0.00    +0.000 A 
ATOM     17  C   UNL     1       3.277   2.911  17.230  0.00  0.00    +0.000 A 
ATOM     18  C   UNL     1       3.670   1.624  17.672  0.00  0.00    +0.000 A 
ATOM     19  C   UNL     1       3.345   1.564  19.002  0.00  0.00    +0.000 A 
ATOM     20  O   UNL     1       2.794   2.735  19.409  0.00  0.00    +0.000 OA
ENDBRANCH   6  16
BRANCH   5  21
ATOM     21  C   UNL     1       4.372   5.629  19.612  0.00  0.00    +0.000 C 
BRANCH  21  22
ATOM     22  C   UNL     1       5.523   5.475  18.617  0.00  0.00    +0.000 C 
ATOM     23  C   UNL     1       6.874   5.585  19.324  0.00  0.00    +0.000 C 
ATOM     24  C   UNL     1       7.780   5.939  18.174  0.00  0.00    +0.000 C 
ATOM     25  C   UNL     1       6.905   6.868  17.356  0.00  0.00    +0.000 C 
ATOM     26  O   UNL     1       5.541   6.534  17.649  0.00  0.00    +0.000 OA
ENDBRANCH  21  22
ENDBRANCH   5  21
TORSDOF 4
ENDMDL
MODEL 3
REMARK VINA RESULT:      -6.9      3.569      8.858
REMARK  Name = 
REMARK  5 active torsions:
REMARK  status: ('A' for Active; 'I' for Inactive)
REMARK    1  A    between atoms: C_1  and  C_2
REMARK    2  A    between atoms: C_5  and  C_6
REMARK    3  A    between atoms: N_10  and  C_11
REMARK    4  A    between atoms: C_11  and  C_12
REMARK    5  A    between atoms: C_17  and  C_19
REMARK                            x       y       z     vdW  Elec       q    Type
REMARK                         _______ _______ _______ _____ _____    ______ ____
ROOT
ATOM      1  C   UNL     1       2.143   8.773  18.309  0.00  0.00    +0.000 A 
ATOM      2  C   UNL     1       2.700   9.961  17.865  0.00  0.00    +0.000 A 
ATOM      3  S   UNL     1       1.698  11.282  18.281  0.00  0.00    +0.000 S 
ATOM      4  C   UNL     1       0.681  10.201  19.137  0.00  0.00    +0.000 A 
ATOM      5  N   UNL     1      -0.354  10.784  19.845  0.00  0.00    +0.000 N 
ATOM      6  C   UNL     1       0.034  11.367  21.073  0.00  0.00    +0.000 C 
ATOM      7  O   UNL     1       1.211  11.402  21.442  0.00  0.00    +0.000 OA
ATOM      8  N   UNL     1       0.981   8.922  19.060  0.00  0.00    +0.000 NA
ENDROOT
BRANCH   1  13
ATOM      9  C   UNL     1       4.387   3.560  17.137  0.00  0.00    +0.000 C 
ATOM     10  C   UNL     1       3.826   4.924  17.412  0.00  0.00    +0.000 A 
ATOM     11  C   UNL     1       4.535   6.094  17.107  0.00  0.00    +0.000 A 
ATOM     12  C   UNL     1       3.994   7.358  17.398  0.00  0.00    +0.000 A 
ATOM     13  C   UNL     1       2.731   7.470  17.992  0.00  0.00    +0.000 A 
ATOM     14  C   UNL     1       2.030   6.291  18.291  0.00  0.00    +0.000 A 
ATOM     15  C   UNL     1       2.567   5.035  18.004  0.00  0.00    +0.000 A 
ENDBRANCH   1  13
BRANCH   6  16
ATOM     16  C   UNL     1      -0.988  12.006  21.897  0.00  0.00    +0.000 A 
ATOM     17  C   UNL     1      -1.719  11.501  22.960  0.00  0.00    +0.000 A 
ATOM     18  C   UNL     1      -2.566  12.543  23.411  0.00  0.00    +0.000 A 
ATOM     19  C   UNL     1      -2.340  13.605  22.574  0.00  0.00    +0.000 A 
ATOM     20  O   UNL     1      -1.398  13.288  21.650  0.00  0.00    +0.000 OA
ENDBRANCH   6  16
BRANCH   5  21
ATOM     21  C   UNL     1      -1.723  10.905  19.323  0.00  0.00    +0.000 C 
BRANCH  21  22
ATOM     22  C   UNL     1      -1.955  11.078  17.821  0.00  0.00    +0.000 C 
ATOM     23  C   UNL     1      -3.397  11.500  17.538  0.00  0.00    +0.000 C 
ATOM     24  C   UNL     1      -3.542  11.097  16.094  0.00  0.00    +0.000 C 
ATOM     25  C   UNL     1      -2.764   9.797  16.047  0.00  0.00    +0.000 C 
ATOM     26  O   UNL     1      -1.800   9.843  17.109  0.00  0.00    +0.000 OA
ENDBRANCH  21  22
ENDBRANCH   5  21
TORSDOF 4
ENDMDL
MODEL 4
REMARK VINA RESULT:      -6.8      5.319     10.667
REMARK  Name = 
REMARK  5 active torsions:
REMARK  status: ('A' for Active; 'I' for Inactive)
REMARK    1  A    between atoms: C_1  and  C_2
REMARK    2  A    between atoms: C_5  and  C_6
REMARK    3  A    between atoms: N_10  and  C_11
REMARK    4  A    between atoms: C_11  and  C_12
REMARK    5  A    between atoms: C_17  and  C_19
REMARK                            x       y       z     vdW  Elec       q    Type
REMARK                         _______ _______ _______ _____ _____    ______ ____
ROOT
ATOM      1  C   UNL     1       0.083  11.161  20.135  0.00  0.00    +0.000 A 
ATOM      2  C   UNL     1       0.674  12.389  20.384  0.00  0.00    +0.000 A 
ATOM      3  S   UNL     1      -0.511  13.550  20.794  0.00  0.00    +0.000 S 
ATOM      4  C   UNL     1      -1.694  12.312  20.751  0.00  0.00    +0.000 A 
ATOM      5  N   UNL     1      -2.967  12.685  21.144  0.00  0.00    +0.000 N 
ATOM      6  C   UNL     1      -3.140  12.780  22.544  0.00  0.00    +0.000 C 
ATOM      7  O   UNL     1      -2.210  12.606  23.336  0.00  0.00    +0.000 OA
ATOM      8  N   UNL     1      -1.289  11.121  20.366  0.00  0.00    +0.000 NA
ENDROOT
BRANCH   1  13
ATOM      9  C   UNL     1       3.086   6.644  18.094  0.00  0.00    +0.000 C 
ATOM     10  C   UNL     1       2.322   7.806  18.658  0.00  0.00    +0.000 A 
ATOM     11  C   UNL     1       1.866   7.823  19.982  0.00  0.00    +0.000 A 
ATOM     12  C   UNL     1       1.131   8.915  20.475  0.00  0.00    +0.000 A 
ATOM     13  C   UNL     1       0.848  10.011  19.650  0.00  0.00    +0.000 A 
ATOM     14  C   UNL     1       1.312   9.983  18.325  0.00  0.00    +0.000 A 
ATOM     15  C   UNL     1       2.041   8.898  17.834  0.00  0.00    +0.000 A 
ENDBRANCH   1  13
BRANCH   6  16
ATOM     16  C   UNL     1      -4.450  13.164  23.061  0.00  0.00    +0.000 A 
ATOM     17  C   UNL     1      -4.955  14.417  23.367  0.00  0.00    +0.000 A 
ATOM     18  C   UNL     1      -6.284  14.228  23.821  0.00  0.00    +0.000 A 
ATOM     19  C   UNL     1      -6.500  12.875  23.810  0.00  0.00    +0.000 A 
ATOM     20  O   UNL     1      -5.397  12.222  23.364  0.00  0.00    +0.000 OA
ENDBRANCH   6  16
BRANCH   5  21
ATOM     21  C   UNL     1      -4.024  13.071  20.199  0.00  0.00    +0.000 C 
BRANCH  21  22
ATOM     22  C   UNL     1      -5.093  12.055  19.793  0.00  0.00    +0.000 C 
ATOM     23  C   UNL     1      -5.163  11.916  18.272  0.00  0.00    +0.000 C 
ATOM     24  C   UNL     1      -6.543  11.341  18.092  0.00  0.00    +0.000 C 
ATOM     25  C   UNL     1      -7.336  12.082  19.150  0.00  0.00    +0.000 C 
ATOM     26  O   UNL     1      -6.410  12.482  20.171  0.00  0.00    +0.000 OA
ENDBRANCH  21  22
ENDBRANCH   5  21
TORSDOF 4
ENDMDL
MODEL 5
REMARK VINA RESULT:      -6.8      4.658      9.874
REMARK  Name = 
REMARK  5 active torsions:
REMARK  status: ('A' for Active; 'I' for Inactive)
REMARK    1  A    between atoms: C_1  and  C_2
REMARK    2  A    between atoms: C_5  and  C_6
REMARK    3  A    between atoms: N_10  and  C_11
REMARK    4  A    between atoms: C_11  and  C_12
REMARK    5  A    between atoms: C_17  and  C_19
REMARK                            x       y       z     vdW  Elec       q    Type
REMARK                         _______ _______ _______ _____ _____    ______ ____
ROOT
ATOM      1  C   UNL     1       0.698  10.452  19.747  0.00  0.00    +0.000 A 
ATOM      2  C   UNL     1       1.389  11.650  19.824  0.00  0.00    +0.000 A 
ATOM      3  S   UNL     1       0.321  12.931  20.198  0.00  0.00    +0.000 S 
ATOM      4  C   UNL     1      -0.942  11.786  20.370  0.00  0.00    +0.000 A 
ATOM      5  N   UNL     1      -2.151  12.288  20.815  0.00  0.00    +0.000 N 
ATOM      6  C   UNL     1      -2.205  12.533  22.207  0.00  0.00    +0.000 C 
ATOM      7  O   UNL     1      -1.227  12.368  22.942  0.00  0.00    +0.000 OA
ATOM      8  N   UNL     1      -0.650  10.536  20.081  0.00  0.00    +0.000 NA
ENDROOT
BRANCH   1  13
ATOM      9  C   UNL     1       3.224   5.548  17.967  0.00  0.00    +0.000 C 
ATOM     10  C   UNL     1       2.585   6.812  18.463  0.00  0.00    +0.000 A 
ATOM     11  C   UNL     1       2.202   6.976  19.801  0.00  0.00    +0.000 A 
ATOM     12  C   UNL     1       1.583   8.162  20.231  0.00  0.00    +0.000 A 
ATOM     13  C   UNL     1       1.344   9.206  19.329  0.00  0.00    +0.000 A 
ATOM     14  C   UNL     1       1.734   9.030  17.991  0.00  0.00    +0.000 A 
ATOM     15  C   UNL     1       2.348   7.852  17.563  0.00  0.00    +0.000 A 
ENDBRANCH   1  13
BRANCH   6  16
ATOM     16  C   UNL     1      -3.441  13.061  22.776  0.00  0.00    +0.000 A 
ATOM     17  C   UNL     1      -3.824  14.372  23.011  0.00  0.00    +0.000 A 
ATOM     18  C   UNL     1      -5.127  14.328  23.566  0.00  0.00    +0.000 A 
ATOM     19  C   UNL     1      -5.446  13.000  23.680  0.00  0.00    +0.000 A 
ATOM     20  O   UNL     1      -4.432  12.227  23.217  0.00  0.00    +0.000 OA
ENDBRANCH   6  16
BRANCH   5  21
ATOM     21  C   UNL     1      -3.254  12.658  19.916  0.00  0.00    +0.000 C 
BRANCH  21  22
ATOM     22  C   UNL     1      -3.742  11.667  18.858  0.00  0.00    +0.000 C 
ATOM     23  C   UNL     1      -2.779  11.616  17.672  0.00  0.00    +0.000 C 
ATOM     24  C   UNL     1      -3.667  11.051  16.596  0.00  0.00    +0.000 C 
ATOM     25  C   UNL     1      -4.991  11.729  16.889  0.00  0.00    +0.000 C 
ATOM     26  O   UNL     1      -4.993  12.069  18.283  0.00  0.00    +0.000 OA
ENDBRANCH  21  22
ENDBRANCH   5  21
TORSDOF 4
ENDMDL
MODEL 6
REMARK VINA RESULT:      -6.7      3.422      8.791
REMARK  Name = 
REMARK  5 active torsions:
REMARK  status: ('A' for Active; 'I' for Inactive)
REMARK    1  A    between atoms: C_1  and  C_2
REMARK    2  A    between atoms: C_5  and  C_6
REMARK    3  A    between atoms: N_10  and  C_11
REMARK    4  A    between atoms: C_11  and  C_12
REMARK    5  A    between atoms: C_17  and  C_19
REMARK                            x       y       z     vdW  Elec       q    Type
REMARK                         _______ _______ _______ _____ _____    ______ ____
ROOT
ATOM      1  C   UNL     1       2.172   7.912  18.980  0.00  0.00    +0.000 A 
ATOM      2  C   UNL     1       2.660   8.778  18.015  0.00  0.00    +0.000 A 
ATOM      3  S   UNL     1       1.802  10.256  18.050  0.00  0.00    +0.000 S 
ATOM      4  C   UNL     1       0.952   9.693  19.426  0.00  0.00    +0.000 A 
ATOM      5  N   UNL     1       0.099  10.606  20.020  0.00  0.00    +0.000 N 
ATOM      6  C   UNL     1       0.747  11.567  20.832  0.00  0.00    +0.000 C 
ATOM      7  O   UNL     1       1.975  11.614  20.943  0.00  0.00    +0.000 OA
ATOM      8  N   UNL     1       1.193   8.456  19.805  0.00  0.00    +0.000 NA
ENDROOT
BRANCH   1  13
ATOM      9  C   UNL     1       4.011   2.449  19.582  0.00  0.00    +0.000 C 
ATOM     10  C   UNL     1       3.540   3.861  19.388  0.00  0.00    +0.000 A 
ATOM     11  C   UNL     1       3.978   4.650  18.317  0.00  0.00    +0.000 A 
ATOM     12  C   UNL     1       3.538   5.977  18.175  0.00  0.00    +0.000 A 
ATOM     13  C   UNL     1       2.646   6.532  19.100  0.00  0.00    +0.000 A 
ATOM     14  C   UNL     1       2.212   5.731  20.168  0.00  0.00    +0.000 A 
ATOM     15  C   UNL     1       2.650   4.413  20.311  0.00  0.00    +0.000 A 
ENDBRANCH   1  13
BRANCH   6  16
ATOM     16  C   UNL     1      -0.067  12.574  21.506  0.00  0.00    +0.000 A 
ATOM     17  C   UNL     1      -0.514  13.805  21.055  0.00  0.00    +0.000 A 
ATOM     18  C   UNL     1      -1.277  14.377  22.103  0.00  0.00    +0.000 A 
ATOM     19  C   UNL     1      -1.216  13.488  23.145  0.00  0.00    +0.000 A 
ATOM     20  O   UNL     1      -0.480  12.402  22.800  0.00  0.00    +0.000 OA
ENDBRANCH   6  16
BRANCH   5  21
ATOM     21  C   UNL     1      -1.343  10.665  19.744  0.00  0.00    +0.000 C 
BRANCH  21  22
ATOM     22  C   UNL     1      -1.839  11.051  18.349  0.00  0.00    +0.000 C 
ATOM     23  C   UNL     1      -3.305  11.483  18.392  0.00  0.00    +0.000 C 
ATOM     24  C   UNL     1      -3.709  11.293  16.953  0.00  0.00    +0.000 C 
ATOM     25  C   UNL     1      -2.961  10.029  16.578  0.00  0.00    +0.000 C 
ATOM     26  O   UNL     1      -1.823   9.937  17.446  0.00  0.00    +0.000 OA
ENDBRANCH  21  22
ENDBRANCH   5  21
TORSDOF 4
ENDMDL
MODEL 7
REMARK VINA RESULT:      -6.7      3.523      8.859
REMARK  Name = 
REMARK  5 active torsions:
REMARK  status: ('A' for Active; 'I' for Inactive)
REMARK    1  A    between atoms: C_1  and  C_2
REMARK    2  A    between atoms: C_5  and  C_6
REMARK    3  A    between atoms: N_10  and  C_11
REMARK    4  A    between atoms: C_11  and  C_12
REMARK    5  A    between atoms: C_17  and  C_19
REMARK                            x       y       z     vdW  Elec       q    Type
REMARK                         _______ _______ _______ _____ _____    ______ ____
ROOT
ATOM      1  C   UNL     1       2.081   7.872  19.224  0.00  0.00    +0.000 A 
ATOM      2  C   UNL     1       2.619   8.641  18.205  0.00  0.00    +0.000 A 
ATOM      3  S   UNL     1       1.776  10.121  18.066  0.00  0.00    +0.000 S 
ATOM      4  C   UNL     1       0.861   9.694  19.450  0.00  0.00    +0.000 A 
ATOM      5  N   UNL     1      -0.006  10.664  19.919  0.00  0.00    +0.000 N 
ATOM      6  C   UNL     1       0.616  11.692  20.666  0.00  0.00    +0.000 C 
ATOM      7  O   UNL     1       1.839  11.741  20.825  0.00  0.00    +0.000 OA
ATOM      8  N   UNL     1       1.073   8.496  19.952  0.00  0.00    +0.000 NA
ENDROOT
BRANCH   1  13
ATOM      9  C   UNL     1       3.937   2.464  20.168  0.00  0.00    +0.000 C 
ATOM     10  C   UNL     1       3.444   3.865  19.960  0.00  0.00    +0.000 A 
ATOM     11  C   UNL     1       2.358   4.385  20.677  0.00  0.00    +0.000 A 
ATOM     12  C   UNL     1       1.903   5.694  20.443  0.00  0.00    +0.000 A 
ATOM     13  C   UNL     1       2.534   6.506  19.492  0.00  0.00    +0.000 A 
ATOM     14  C   UNL     1       3.622   5.974  18.781  0.00  0.00    +0.000 A 
ATOM     15  C   UNL     1       4.074   4.673  19.012  0.00  0.00    +0.000 A 
ENDBRANCH   1  13
BRANCH   6  16
ATOM     16  C   UNL     1      -0.215  12.762  21.207  0.00  0.00    +0.000 A 
ATOM     17  C   UNL     1      -0.820  12.879  22.448  0.00  0.00    +0.000 A 
ATOM     18  C   UNL     1      -1.501  14.122  22.460  0.00  0.00    +0.000 A 
ATOM     19  C   UNL     1      -1.312  14.670  21.219  0.00  0.00    +0.000 A 
ATOM     20  O   UNL     1      -0.547  13.854  20.451  0.00  0.00    +0.000 OA
ENDBRANCH   6  16
BRANCH   5  21
ATOM     21  C   UNL     1      -1.435  10.706  19.576  0.00  0.00    +0.000 C 
BRANCH  21  22
ATOM     22  C   UNL     1      -1.869  11.065  18.154  0.00  0.00    +0.000 C 
ATOM     23  C   UNL     1      -3.354  11.426  18.111  0.00  0.00    +0.000 C 
ATOM     24  C   UNL     1      -3.667  11.213  16.654  0.00  0.00    +0.000 C 
ATOM     25  C   UNL     1      -2.840   9.985  16.328  0.00  0.00    +0.000 C 
ATOM     26  O   UNL     1      -1.749   9.949  17.260  0.00  0.00    +0.000 OA
ENDBRANCH  21  22
ENDBRANCH   5  21
TORSDOF 4
ENDMDL
MODEL 8
REMARK VINA RESULT:      -6.7      5.292     10.611
REMARK  Name = 
REMARK  5 active torsions:
REMARK  status: ('A' for Active; 'I' for Inactive)
REMARK    1  A    between atoms: C_1  and  C_2
REMARK    2  A    between atoms: C_5  and  C_6
REMARK    3  A    between atoms: N_10  and  C_11
REMARK    4  A    between atoms: C_11  and  C_12
REMARK    5  A    between atoms: C_17  and  C_19
REMARK                            x       y       z     vdW  Elec       q    Type
REMARK                         _______ _______ _______ _____ _____    ______ ____
ROOT
ATOM      1  C   UNL     1       0.008  11.268  19.751  0.00  0.00    +0.000 A 
ATOM      2  C   UNL     1       0.531  12.551  19.762  0.00  0.00    +0.000 A 
ATOM      3  S   UNL     1      -0.685  13.688  20.148  0.00  0.00    +0.000 S 
ATOM      4  C   UNL     1      -1.772  12.391  20.410  0.00  0.00    +0.000 A 
ATOM      5  N   UNL     1      -3.019  12.741  20.895  0.00  0.00    +0.000 N 
ATOM      6  C   UNL     1      -3.048  13.025  22.280  0.00  0.00    +0.000 C 
ATOM      7  O   UNL     1      -2.027  13.018  22.974  0.00  0.00    +0.000 OA
ATOM      8  N   UNL     1      -1.325  11.182  20.144  0.00  0.00    +0.000 NA
ENDROOT
BRANCH   1  13
ATOM      9  C   UNL     1       3.160   6.643  18.250  0.00  0.00    +0.000 C 
ATOM     10  C   UNL     1       2.334   7.845  18.602  0.00  0.00    +0.000 A 
ATOM     11  C   UNL     1       2.099   8.879  17.687  0.00  0.00    +0.000 A 
ATOM     12  C   UNL     1       1.341  10.004  18.053  0.00  0.00    +0.000 A 
ATOM     13  C   UNL     1       0.799  10.107  19.340  0.00  0.00    +0.000 A 
ATOM     14  C   UNL     1       1.039   9.063  20.248  0.00  0.00    +0.000 A 
ATOM     15  C   UNL     1       1.794   7.946  19.885  0.00  0.00    +0.000 A 
ENDBRANCH   1  13
BRANCH   6  16
ATOM     16  C   UNL     1      -4.319  13.401  22.889  0.00  0.00    +0.000 A 
ATOM     17  C   UNL     1      -4.907  14.648  23.026  0.00  0.00    +0.000 A 
ATOM     18  C   UNL     1      -6.147  14.452  23.682  0.00  0.00    +0.000 A 
ATOM     19  C   UNL     1      -6.227  13.110  23.948  0.00  0.00    +0.000 A 
ATOM     20  O   UNL     1      -5.125  12.468  23.485  0.00  0.00    +0.000 OA
ENDBRANCH   6  16
BRANCH   5  21
ATOM     21  C   UNL     1      -4.198  12.928  20.037  0.00  0.00    +0.000 C 
BRANCH  21  22
ATOM     22  C   UNL     1      -5.040  11.720  19.624  0.00  0.00    +0.000 C 
ATOM     23  C   UNL     1      -5.765  11.986  18.304  0.00  0.00    +0.000 C 
ATOM     24  C   UNL     1      -6.879  10.974  18.372  0.00  0.00    +0.000 C 
ATOM     25  C   UNL     1      -7.252  11.011  19.840  0.00  0.00    +0.000 C 
ATOM     26  O   UNL     1      -6.094  11.456  20.561  0.00  0.00    +0.000 OA
ENDBRANCH  21  22
ENDBRANCH   5  21
TORSDOF 4
ENDMDL
MODEL 9
REMARK VINA RESULT:      -6.6      5.336     11.119
REMARK  Name = 
REMARK  5 active torsions:
REMARK  status: ('A' for Active; 'I' for Inactive)
REMARK    1  A    between atoms: C_1  and  C_2
REMARK    2  A    between atoms: C_5  and  C_6
REMARK    3  A    between atoms: N_10  and  C_11
REMARK    4  A    between atoms: C_11  and  C_12
REMARK    5  A    between atoms: C_17  and  C_19
REMARK                            x       y       z     vdW  Elec       q    Type
REMARK                         _______ _______ _______ _____ _____    ______ ____
ROOT
ATOM      1  C   UNL     1      -0.224  11.100  20.265  0.00  0.00    +0.000 A 
ATOM      2  C   UNL     1      -0.914  11.884  19.355  0.00  0.00    +0.000 A 
ATOM      3  S   UNL     1      -1.892  13.025  20.169  0.00  0.00    +0.000 S 
ATOM      4  C   UNL     1      -1.223  12.492  21.653  0.00  0.00    +0.000 A 
ATOM      5  N   UNL     1      -1.607  13.204  22.775  0.00  0.00    +0.000 N 
ATOM      6  C   UNL     1      -0.941  14.441  22.937  0.00  0.00    +0.000 C 
ATOM      7  O   UNL     1      -0.134  14.868  22.107  0.00  0.00    +0.000 OA
ATOM      8  N   UNL     1      -0.396  11.469  21.596  0.00  0.00    +0.000 NA
ENDROOT
BRANCH   1  13
ATOM      9  C   UNL     1       3.014   6.634  18.490  0.00  0.00    +0.000 C 
ATOM     10  C   UNL     1       2.190   7.786  18.985  0.00  0.00    +0.000 A 
ATOM     11  C   UNL     1       1.758   7.874  20.315  0.00  0.00    +0.000 A 
ATOM     12  C   UNL     1       0.967   8.953  20.744  0.00  0.00    +0.000 A 
ATOM     13  C   UNL     1       0.602   9.966  19.848  0.00  0.00    +0.000 A 
ATOM     14  C   UNL     1       1.042   9.868  18.519  0.00  0.00    +0.000 A 
ATOM     15  C   UNL     1       1.827   8.795  18.091  0.00  0.00    +0.000 A 
ENDBRANCH   1  13
BRANCH   6  16
ATOM     16  C   UNL     1      -1.274  15.267  24.093  0.00  0.00    +0.000 A 
ATOM     17  C   UNL     1      -2.167  16.320  24.209  0.00  0.00    +0.000 A 
ATOM     18  C   UNL     1      -2.113  16.763  25.554  0.00  0.00    +0.000 A 
ATOM     19  C   UNL     1      -1.163  15.990  26.169  0.00  0.00    +0.000 A 
ATOM     20  O   UNL     1      -0.642  15.092  25.296  0.00  0.00    +0.000 OA
ENDBRANCH   6  16
BRANCH   5  21
ATOM     21  C   UNL     1      -2.698  12.784  23.665  0.00  0.00    +0.000 C 
BRANCH  21  22
ATOM     22  C   UNL     1      -4.124  12.668  23.123  0.00  0.00    +0.000 C 
ATOM     23  C   UNL     1      -4.668  14.038  22.722  0.00  0.00    +0.000 C 
ATOM     24  C   UNL     1      -6.153  13.783  22.746  0.00  0.00    +0.000 C 
ATOM     25  C   UNL     1      -6.298  12.868  23.945  0.00  0.00    +0.000 C 
ATOM     26  O   UNL     1      -5.041  12.200  24.122  0.00  0.00    +0.000 OA
ENDBRANCH  21  22
ENDBRANCH   5  21
TORSDOF 4
ENDMDL
