MODEL 1
REMARK VINA RESULT:      -9.2      0.000      0.000
REMARK  Name = 
REMARK  9 active torsions:
REMARK  status: ('A' for Active; 'I' for Inactive)
REMARK    1  A    between atoms: C_1  and  C_2
REMARK    2  A    between atoms: C_2  and  O_3
REMARK    3  A    between atoms: C_2  and  C_4
REMARK    4  A    between atoms: C_4  and  N_5
REMARK    5  A    between atoms: C_4  and  C_28
REMARK    6  A    between atoms: C_6  and  C_8
REMARK    7  A    between atoms: C_11  and  C_12
REMARK    8  A    between atoms: C_14  and  C_15
REMARK    9  A    between atoms: C_23  and  N_24
REMARK                            x       y       z     vdW  Elec       q    Type
REMARK                         _______ _______ _______ _____ _____    ______ ____
ROOT
ATOM      1  C   UNL     1       3.197   6.422  18.688  0.00  0.00    +0.000 A 
ATOM      2  C   UNL     1       2.505   6.403  19.898  0.00  0.00    +0.000 A 
ATOM      3  C   UNL     1       1.640   7.457  20.220  0.00  0.00    +0.000 A 
ATOM      4  C   UNL     1       1.453   8.558  19.361  0.00  0.00    +0.000 A 
ATOM      5  C   UNL     1       2.162   8.550  18.146  0.00  0.00    +0.000 A 
ATOM      6  C   UNL     1       3.017   7.499  17.823  0.00  0.00    +0.000 A 
ATOM      7  F   UNL     1       3.672   7.558  16.653  0.00  0.00    +0.000 F 
ENDROOT
BRANCH   4   8
ATOM      8  C   UNL     1       0.530   9.669  19.681  0.00  0.00    +0.000 A 
ATOM      9  N   UNL     1      -0.252  10.069  18.638  0.00  0.00    +0.000 NA
ATOM     10  C   UNL     1      -1.168  11.035  18.880  0.00  0.00    +0.000 A 
ATOM     11  C   UNL     1      -1.260  11.624  20.133  0.00  0.00    +0.000 A 
ATOM     12  N   UNL     1      -0.470  11.276  21.174  0.00  0.00    +0.000 NA
ATOM     13  C   UNL     1       0.421  10.289  20.945  0.00  0.00    +0.000 A 
BRANCH  10  14
ATOM     14  C   UNL     1      -2.125  11.403  17.771  0.00  0.00    +0.000 C 
ATOM     15  C   UNL     1      -3.554  11.543  18.316  0.00  0.00    +0.000 C 
ATOM     16  C   UNL     1      -4.537  11.799  17.183  0.00  0.00    +0.000 C 
ATOM     17  O   UNL     1      -4.444  10.781  16.189  0.00  0.00    +0.000 OA
ATOM     18  C   UNL     1      -3.151  10.718  15.590  0.00  0.00    +0.000 C 
ATOM     19  C   UNL     1      -2.090  10.383  16.628  0.00  0.00    +0.000 C 
ENDBRANCH  10  14
BRANCH  13  20
ATOM     20  N   UNL     1       1.153   9.901  22.066  0.00  0.00    +0.000 N 
ATOM     21  H   UNL     1       2.095   9.662  21.763  0.00  0.00    +0.000 HD
ATOM     22  H   UNL     1       0.706   9.165  22.598  0.00  0.00    +0.000 HD
ENDBRANCH  13  20
ENDBRANCH   4   8
BRANCH   1  24
ATOM     23  N   UNL     1       5.289   5.630  17.763  0.00  0.00    +0.000 N 
ATOM     24  C   UNL     1       4.102   5.294  18.360  0.00  0.00    +0.000 C 
ATOM     25  O   UNL     1       3.787   4.141  18.658  0.00  0.00    +0.000 OA
ATOM     26  H   UNL     1       5.439   6.595  17.493  0.00  0.00    +0.000 HD
BRANCH  23  27
ATOM     27  C   UNL     1       6.320   4.663  17.394  0.00  0.00    +0.000 C 
BRANCH  27  28
ATOM     28  C   UNL     1       6.329   4.521  15.869  0.00  0.00    +0.000 A 
ATOM     29  C   UNL     1       5.340   3.771  15.210  0.00  0.00    +0.000 A 
ATOM     30  C   UNL     1       5.358   3.631  13.816  0.00  0.00    +0.000 A 
ATOM     31  C   UNL     1       6.351   4.253  13.061  0.00  0.00    +0.000 A 
ATOM     32  C   UNL     1       7.327   5.009  13.701  0.00  0.00    +0.000 A 
ATOM     33 CL   UNL     1       8.538   5.807  12.774  0.00  0.00    +0.000 Cl
ATOM     34  C   UNL     1       7.325   5.139  15.090  0.00  0.00    +0.000 A 
ENDBRANCH  27  28
BRANCH  27  36
ATOM     35  C   UNL     1       7.752   5.700  19.307  0.00  0.00    +0.000 C 
ATOM     36  C   UNL     1       7.739   5.054  17.925  0.00  0.00    +0.000 C 
BRANCH  36  37
ATOM     37  O   UNL     1       8.589   3.899  17.999  0.00  0.00    +0.000 OA
ATOM     38  H   UNL     1       8.148   3.180  17.514  0.00  0.00    +0.000 HD
ENDBRANCH  36  37
ENDBRANCH  27  36
ENDBRANCH  23  27
ENDBRANCH   1  24
TORSDOF 8
ENDMDL
MODEL 2
REMARK VINA RESULT:      -9.1      3.774     10.129
REMARK  Name = 
REMARK  9 active torsions:
REMARK  status: ('A' for Active; 'I' for Inactive)
REMARK    1  A    between atoms: C_1  and  C_2
REMARK    2  A    between atoms: C_2  and  O_3
REMARK    3  A    between atoms: C_2  and  C_4
REMARK    4  A    between atoms: C_4  and  N_5
REMARK    5  A    between atoms: C_4  and  C_28
REMARK    6  A    between atoms: C_6  and  C_8
REMARK    7  A    between atoms: C_11  and  C_12
REMARK    8  A    between atoms: C_14  and  C_15
REMARK    9  A    between atoms: C_23  and  N_24
REMARK                            x       y       z     vdW  Elec       q    Type
REMARK                         _______ _______ _______ _____ _____    ______ ____
ROOT
ATOM      1  C   UNL     1       1.226   9.506  19.672  0.00  0.00    +0.000 A 
ATOM      2  C   UNL     1       1.571   9.164  18.365  0.00  0.00    +0.000 A 
ATOM      3  C   UNL     1       1.996   7.860  18.078  0.00  0.00    +0.000 A 
ATOM      4  C   UNL     1       2.105   6.874  19.078  0.00  0.00    +0.000 A 
ATOM      5  C   UNL     1       1.750   7.247  20.387  0.00  0.00    +0.000 A 
ATOM      6  C   UNL     1       1.320   8.540  20.671  0.00  0.00    +0.000 A 
ATOM      7  F   UNL     1       1.006   8.834  21.943  0.00  0.00    +0.000 F 
ENDROOT
BRANCH   4   8
ATOM      8  C   UNL     1       2.537   5.489  18.786  0.00  0.00    +0.000 A 
ATOM      9  N   UNL     1       3.591   5.399  17.925  0.00  0.00    +0.000 NA
ATOM     10  C   UNL     1       4.082   4.165  17.668  0.00  0.00    +0.000 A 
ATOM     11  C   UNL     1       3.491   3.039  18.223  0.00  0.00    +0.000 A 
ATOM     12  N   UNL     1       2.420   3.096  19.046  0.00  0.00    +0.000 NA
ATOM     13  C   UNL     1       1.950   4.327  19.333  0.00  0.00    +0.000 A 
BRANCH  10  14
ATOM     14  C   UNL     1       5.325   4.056  16.815  0.00  0.00    +0.000 C 
ATOM     15  C   UNL     1       6.527   4.691  17.531  0.00  0.00    +0.000 C 
ATOM     16  C   UNL     1       7.751   4.686  16.628  0.00  0.00    +0.000 C 
ATOM     17  O   UNL     1       7.471   5.330  15.388  0.00  0.00    +0.000 OA
ATOM     18  C   UNL     1       6.433   4.679  14.656  0.00  0.00    +0.000 C 
ATOM     19  C   UNL     1       5.127   4.698  15.438  0.00  0.00    +0.000 C 
ENDBRANCH  10  14
BRANCH  13  20
ATOM     20  N   UNL     1       0.903   4.346  20.253  0.00  0.00    +0.000 N 
ATOM     21  H   UNL     1       0.752   5.310  20.543  0.00  0.00    +0.000 HD
ATOM     22  H   UNL     1       1.045   3.713  21.029  0.00  0.00    +0.000 HD
ENDBRANCH  13  20
ENDBRANCH   4   8
BRANCH   1  24
ATOM     23  N   UNL     1      -0.576  11.049  20.154  0.00  0.00    +0.000 N 
ATOM     24  C   UNL     1       0.771  10.889  19.956  0.00  0.00    +0.000 C 
ATOM     25  O   UNL     1       1.589  11.805  20.040  0.00  0.00    +0.000 OA
ATOM     26  H   UNL     1      -1.186  10.254  20.001  0.00  0.00    +0.000 HD
BRANCH  23  27
ATOM     27  C   UNL     1      -1.209  12.327  20.474  0.00  0.00    +0.000 C 
BRANCH  27  28
ATOM     28  C   UNL     1      -2.638  12.312  19.925  0.00  0.00    +0.000 A 
ATOM     29  C   UNL     1      -3.696  12.879  20.655  0.00  0.00    +0.000 A 
ATOM     30  C   UNL     1      -5.005  12.852  20.158  0.00  0.00    +0.000 A 
ATOM     31  C   UNL     1      -5.273  12.276  18.917  0.00  0.00    +0.000 A 
ATOM     32  C   UNL     1      -4.231  11.724  18.178  0.00  0.00    +0.000 A 
ATOM     33 CL   UNL     1      -4.546  11.040  16.630  0.00  0.00    +0.000 Cl
ATOM     34  C   UNL     1      -2.928  11.732  18.675  0.00  0.00    +0.000 A 
ENDBRANCH  27  28
BRANCH  27  36
ATOM     35  C   UNL     1      -1.303  11.416  22.913  0.00  0.00    +0.000 C 
ATOM     36  C   UNL     1      -1.205  12.640  22.007  0.00  0.00    +0.000 C 
BRANCH  36  37
ATOM     37  O   UNL     1      -0.005  13.335  22.379  0.00  0.00    +0.000 OA
ATOM     38  H   UNL     1       0.110  14.075  21.758  0.00  0.00    +0.000 HD
ENDBRANCH  36  37
ENDBRANCH  27  36
ENDBRANCH  23  27
ENDBRANCH   1  24
TORSDOF 8
ENDMDL
MODEL 3
REMARK VINA RESULT:      -9.0      3.672     10.049
REMARK  Name = 
REMARK  9 active torsions:
REMARK  status: ('A' for Active; 'I' for Inactive)
REMARK    1  A    between atoms: C_1  and  C_2
REMARK    2  A    between atoms: C_2  and  O_3
REMARK    3  A    between atoms: C_2  and  C_4
REMARK    4  A    between atoms: C_4  and  N_5
REMARK    5  A    between atoms: C_4  and  C_28
REMARK    6  A    between atoms: C_6  and  C_8
REMARK    7  A    between atoms: C_11  and  C_12
REMARK    8  A    between atoms: C_14  and  C_15
REMARK    9  A    between atoms: C_23  and  N_24
REMARK                            x       y       z     vdW  Elec       q    Type
REMARK                         _______ _______ _______ _____ _____    ______ ____
ROOT
ATOM      1  C   UNL     1       1.251   9.473  19.705  0.00  0.00    +0.000 A 
ATOM      2  C   UNL     1       1.224   8.534  20.736  0.00  0.00    +0.000 A 
ATOM      3  C   UNL     1       1.650   7.222  20.490  0.00  0.00    +0.000 A 
ATOM      4  C   UNL     1       2.095   6.808  19.219  0.00  0.00    +0.000 A 
ATOM      5  C   UNL     1       2.112   7.776  18.199  0.00  0.00    +0.000 A 
ATOM      6  C   UNL     1       1.695   9.082  18.445  0.00  0.00    +0.000 A 
ATOM      7  F   UNL     1       1.726   9.955  17.426  0.00  0.00    +0.000 F 
ENDROOT
BRANCH   4   8
ATOM      8  C   UNL     1       2.563   5.429  18.950  0.00  0.00    +0.000 A 
ATOM      9  N   UNL     1       3.606   5.351  18.075  0.00  0.00    +0.000 NA
ATOM     10  C   UNL     1       4.129   4.126  17.837  0.00  0.00    +0.000 A 
ATOM     11  C   UNL     1       3.580   2.996  18.427  0.00  0.00    +0.000 A 
ATOM     12  N   UNL     1       2.521   3.040  19.266  0.00  0.00    +0.000 NA
ATOM     13  C   UNL     1       2.019   4.264  19.532  0.00  0.00    +0.000 A 
BRANCH  10  14
ATOM     14  C   UNL     1       5.361   4.034  16.968  0.00  0.00    +0.000 C 
ATOM     15  C   UNL     1       6.552   4.730  17.644  0.00  0.00    +0.000 C 
ATOM     16  C   UNL     1       7.761   4.740  16.721  0.00  0.00    +0.000 C 
ATOM     17  O   UNL     1       7.439   5.336  15.467  0.00  0.00    +0.000 OA
ATOM     18  C   UNL     1       6.413   4.629  14.773  0.00  0.00    +0.000 C 
ATOM     19  C   UNL     1       5.120   4.627  15.575  0.00  0.00    +0.000 C 
ENDBRANCH  10  14
BRANCH  13  20
ATOM     20  N   UNL     1       0.986   4.274  20.469  0.00  0.00    +0.000 N 
ATOM     21  H   UNL     1       0.139   4.594  20.005  0.00  0.00    +0.000 HD
ATOM     22  H   UNL     1       1.210   4.803  21.302  0.00  0.00    +0.000 HD
ENDBRANCH  13  20
ENDBRANCH   4   8
BRANCH   1  24
ATOM     23  N   UNL     1      -0.542  11.028  20.187  0.00  0.00    +0.000 N 
ATOM     24  C   UNL     1       0.804  10.859  19.986  0.00  0.00    +0.000 C 
ATOM     25  O   UNL     1       1.628  11.771  20.066  0.00  0.00    +0.000 OA
ATOM     26  H   UNL     1      -1.156  10.236  20.038  0.00  0.00    +0.000 HD
BRANCH  23  27
ATOM     27  C   UNL     1      -1.166  12.310  20.504  0.00  0.00    +0.000 C 
BRANCH  27  28
ATOM     28  C   UNL     1      -2.595  12.304  19.954  0.00  0.00    +0.000 A 
ATOM     29  C   UNL     1      -3.650  12.877  20.683  0.00  0.00    +0.000 A 
ATOM     30  C   UNL     1      -4.959  12.859  20.184  0.00  0.00    +0.000 A 
ATOM     31  C   UNL     1      -5.228  12.284  18.943  0.00  0.00    +0.000 A 
ATOM     32  C   UNL     1      -4.189  11.726  18.205  0.00  0.00    +0.000 A 
ATOM     33 CL   UNL     1      -4.508  11.044  16.657  0.00  0.00    +0.000 Cl
ATOM     34  C   UNL     1      -2.887  11.726  18.704  0.00  0.00    +0.000 A 
ENDBRANCH  27  28
BRANCH  27  36
ATOM     35  C   UNL     1      -1.252  11.403  22.944  0.00  0.00    +0.000 C 
ATOM     36  C   UNL     1      -1.161  12.626  22.037  0.00  0.00    +0.000 C 
BRANCH  36  37
ATOM     37  O   UNL     1       0.036  13.328  22.405  0.00  0.00    +0.000 OA
ATOM     38  H   UNL     1      -0.171  13.869  23.187  0.00  0.00    +0.000 HD
ENDBRANCH  36  37
ENDBRANCH  27  36
ENDBRANCH  23  27
ENDBRANCH   1  24
TORSDOF 8
ENDMDL
MODEL 4
REMARK VINA RESULT:      -9.0      3.393      4.421
REMARK  Name = 
REMARK  9 active torsions:
REMARK  status: ('A' for Active; 'I' for Inactive)
REMARK    1  A    between atoms: C_1  and  C_2
REMARK    2  A    between atoms: C_2  and  O_3
REMARK    3  A    between atoms: C_2  and  C_4
REMARK    4  A    between atoms: C_4  and  N_5
REMARK    5  A    between atoms: C_4  and  C_28
REMARK    6  A    between atoms: C_6  and  C_8
REMARK    7  A    between atoms: C_11  and  C_12
REMARK    8  A    between atoms: C_14  and  C_15
REMARK    9  A    between atoms: C_23  and  N_24
REMARK                            x       y       z     vdW  Elec       q    Type
REMARK                         _______ _______ _______ _____ _____    ______ ____
ROOT
ATOM      1  C   UNL     1       2.414   7.426  18.938  0.00  0.00    +0.000 A 
ATOM      2  C   UNL     1       2.520   8.241  17.812  0.00  0.00    +0.000 A 
ATOM      3  C   UNL     1       1.914   9.504  17.809  0.00  0.00    +0.000 A 
ATOM      4  C   UNL     1       1.178   9.981  18.912  0.00  0.00    +0.000 A 
ATOM      5  C   UNL     1       1.088   9.139  20.034  0.00  0.00    +0.000 A 
ATOM      6  C   UNL     1       1.697   7.886  20.040  0.00  0.00    +0.000 A 
ATOM      7  F   UNL     1       1.564   7.127  21.139  0.00  0.00    +0.000 F 
ENDROOT
BRANCH   4   8
ATOM      8  C   UNL     1       0.547  11.319  18.928  0.00  0.00    +0.000 A 
ATOM      9  N   UNL     1       1.424  12.352  19.086  0.00  0.00    +0.000 NA
ATOM     10  C   UNL     1       0.922  13.608  19.040  0.00  0.00    +0.000 A 
ATOM     11  C   UNL     1      -0.441  13.820  18.892  0.00  0.00    +0.000 A 
ATOM     12  N   UNL     1      -1.337  12.815  18.774  0.00  0.00    +0.000 NA
ATOM     13  C   UNL     1      -0.836  11.562  18.784  0.00  0.00    +0.000 A 
BRANCH  10  14
ATOM     14  C   UNL     1       1.893  14.765  19.089  0.00  0.00    +0.000 C 
ATOM     15  C   UNL     1       1.149  16.100  18.938  0.00  0.00    +0.000 C 
ATOM     16  C   UNL     1       2.134  17.258  18.870  0.00  0.00    +0.000 C 
ATOM     17  O   UNL     1       3.083  17.056  17.826  0.00  0.00    +0.000 OA
ATOM     18  C   UNL     1       3.864  15.878  18.017  0.00  0.00    +0.000 C 
ATOM     19  C   UNL     1       2.982  14.639  18.017  0.00  0.00    +0.000 C 
ENDBRANCH  10  14
BRANCH  13  20
ATOM     20  N   UNL     1      -1.782  10.560  18.572  0.00  0.00    +0.000 N 
ATOM     21  H   UNL     1      -1.312   9.660  18.641  0.00  0.00    +0.000 HD
ATOM     22  H   UNL     1      -2.298  10.677  17.710  0.00  0.00    +0.000 HD
ENDBRANCH  13  20
ENDBRANCH   4   8
BRANCH   1  24
ATOM     23  N   UNL     1       2.811   5.308  17.834  0.00  0.00    +0.000 N 
ATOM     24  C   UNL     1       3.069   6.096  18.926  0.00  0.00    +0.000 C 
ATOM     25  O   UNL     1       3.824   5.769  19.842  0.00  0.00    +0.000 OA
ATOM     26  H   UNL     1       2.126   5.627  17.159  0.00  0.00    +0.000 HD
BRANCH  23  27
ATOM     27  C   UNL     1       3.387   3.982  17.629  0.00  0.00    +0.000 C 
BRANCH  27  28
ATOM     28  C   UNL     1       4.768   4.146  16.987  0.00  0.00    +0.000 A 
ATOM     29  C   UNL     1       5.891   4.467  17.766  0.00  0.00    +0.000 A 
ATOM     30  C   UNL     1       7.151   4.631  17.175  0.00  0.00    +0.000 A 
ATOM     31  C   UNL     1       7.309   4.457  15.801  0.00  0.00    +0.000 A 
ATOM     32  C   UNL     1       6.206   4.125  15.021  0.00  0.00    +0.000 A 
ATOM     33 CL   UNL     1       6.398   3.877  13.328  0.00  0.00    +0.000 Cl
ATOM     34  C   UNL     1       4.946   3.978  15.600  0.00  0.00    +0.000 A 
ENDBRANCH  27  28
BRANCH  27  36
ATOM     35  C   UNL     1       2.143   2.734  19.547  0.00  0.00    +0.000 C 
ATOM     36  C   UNL     1       3.484   3.149  18.950  0.00  0.00    +0.000 C 
BRANCH  36  37
ATOM     37  O   UNL     1       4.233   1.944  18.736  0.00  0.00    +0.000 OA
ATOM     38  H   UNL     1       5.027   1.987  19.297  0.00  0.00    +0.000 HD
ENDBRANCH  36  37
ENDBRANCH  27  36
ENDBRANCH  23  27
ENDBRANCH   1  24
TORSDOF 8
ENDMDL
MODEL 5
REMARK VINA RESULT:      -8.9      4.184     10.275
REMARK  Name = 
REMARK  9 active torsions:
REMARK  status: ('A' for Active; 'I' for Inactive)
REMARK    1  A    between atoms: C_1  and  C_2
REMARK    2  A    between atoms: C_2  and  O_3
REMARK    3  A    between atoms: C_2  and  C_4
REMARK    4  A    between atoms: C_4  and  N_5
REMARK    5  A    between atoms: C_4  and  C_28
REMARK    6  A    between atoms: C_6  and  C_8
REMARK    7  A    between atoms: C_11  and  C_12
REMARK    8  A    between atoms: C_14  and  C_15
REMARK    9  A    between atoms: C_23  and  N_24
REMARK                            x       y       z     vdW  Elec       q    Type
REMARK                         _______ _______ _______ _____ _____    ______ ____
ROOT
ATOM      1  C   UNL     1       1.181   9.408  19.785  0.00  0.00    +0.000 A 
ATOM      2  C   UNL     1       1.138   8.483  20.828  0.00  0.00    +0.000 A 
ATOM      3  C   UNL     1       1.545   7.162  20.600  0.00  0.00    +0.000 A 
ATOM      4  C   UNL     1       1.986   6.724  19.336  0.00  0.00    +0.000 A 
ATOM      5  C   UNL     1       2.021   7.678  18.304  0.00  0.00    +0.000 A 
ATOM      6  C   UNL     1       1.624   8.993  18.531  0.00  0.00    +0.000 A 
ATOM      7  F   UNL     1       1.671   9.852  17.501  0.00  0.00    +0.000 F 
ENDROOT
BRANCH   4   8
ATOM      8  C   UNL     1       2.434   5.335  19.087  0.00  0.00    +0.000 A 
ATOM      9  N   UNL     1       3.546   5.235  18.303  0.00  0.00    +0.000 NA
ATOM     10  C   UNL     1       4.049   3.998  18.092  0.00  0.00    +0.000 A 
ATOM     11  C   UNL     1       3.419   2.878  18.615  0.00  0.00    +0.000 A 
ATOM     12  N   UNL     1       2.293   2.945  19.362  0.00  0.00    +0.000 NA
ATOM     13  C   UNL     1       1.808   4.180  19.603  0.00  0.00    +0.000 A 
BRANCH  10  14
ATOM     14  C   UNL     1       5.349   3.878  17.329  0.00  0.00    +0.000 C 
ATOM     15  C   UNL     1       6.473   4.628  18.059  0.00  0.00    +0.000 C 
ATOM     16  C   UNL     1       7.753   4.608  17.236  0.00  0.00    +0.000 C 
ATOM     17  O   UNL     1       7.525   5.130  15.929  0.00  0.00    +0.000 OA
ATOM     18  C   UNL     1       6.566   4.370  15.195  0.00  0.00    +0.000 C 
ATOM     19  C   UNL     1       5.213   4.391  15.891  0.00  0.00    +0.000 C 
ENDBRANCH  10  14
BRANCH  13  20
ATOM     20  N   UNL     1       0.699   4.210  20.448  0.00  0.00    +0.000 N 
ATOM     21  H   UNL     1       0.644   5.135  20.868  0.00  0.00    +0.000 HD
ATOM     22  H   UNL     1       0.699   3.462  21.129  0.00  0.00    +0.000 HD
ENDBRANCH  13  20
ENDBRANCH   4   8
BRANCH   1  24
ATOM     23  N   UNL     1      -0.594  11.005  20.182  0.00  0.00    +0.000 N 
ATOM     24  C   UNL     1       0.755  10.804  20.046  0.00  0.00    +0.000 C 
ATOM     25  O   UNL     1       1.596  11.696  20.166  0.00  0.00    +0.000 OA
ATOM     26  H   UNL     1      -1.219  10.229  20.003  0.00  0.00    +0.000 HD
BRANCH  23  27
ATOM     27  C   UNL     1      -1.201  12.302  20.472  0.00  0.00    +0.000 C 
BRANCH  27  28
ATOM     28  C   UNL     1      -2.624  12.308  19.906  0.00  0.00    +0.000 A 
ATOM     29  C   UNL     1      -2.932  11.615  18.723  0.00  0.00    +0.000 A 
ATOM     30  C   UNL     1      -4.231  11.634  18.199  0.00  0.00    +0.000 A 
ATOM     31  C   UNL     1      -5.244  12.327  18.859  0.00  0.00    +0.000 A 
ATOM     32  C   UNL     1      -4.955  13.005  20.040  0.00  0.00    +0.000 A 
ATOM     33 CL   UNL     1      -6.206  13.837  20.878  0.00  0.00    +0.000 Cl
ATOM     34  C   UNL     1      -3.660  13.005  20.557  0.00  0.00    +0.000 A 
ENDBRANCH  27  28
BRANCH  27  36
ATOM     35  C   UNL     1      -1.383  11.443  22.924  0.00  0.00    +0.000 C 
ATOM     36  C   UNL     1      -1.208  12.644  21.999  0.00  0.00    +0.000 C 
BRANCH  36  37
ATOM     37  O   UNL     1       0.018  13.285  22.380  0.00  0.00    +0.000 OA
ATOM     38  H   UNL     1       0.445  13.608  21.567  0.00  0.00    +0.000 HD
ENDBRANCH  36  37
ENDBRANCH  27  36
ENDBRANCH  23  27
ENDBRANCH   1  24
TORSDOF 8
ENDMDL
MODEL 6
REMARK VINA RESULT:      -8.9      3.363      9.934
REMARK  Name = 
REMARK  9 active torsions:
REMARK  status: ('A' for Active; 'I' for Inactive)
REMARK    1  A    between atoms: C_1  and  C_2
REMARK    2  A    between atoms: C_2  and  O_3
REMARK    3  A    between atoms: C_2  and  C_4
REMARK    4  A    between atoms: C_4  and  N_5
REMARK    5  A    between atoms: C_4  and  C_28
REMARK    6  A    between atoms: C_6  and  C_8
REMARK    7  A    between atoms: C_11  and  C_12
REMARK    8  A    between atoms: C_14  and  C_15
REMARK    9  A    between atoms: C_23  and  N_24
REMARK                            x       y       z     vdW  Elec       q    Type
REMARK                         _______ _______ _______ _____ _____    ______ ____
ROOT
ATOM      1  C   UNL     1       1.151   9.552  19.251  0.00  0.00    +0.000 A 
ATOM      2  C   UNL     1       1.677   9.101  18.042  0.00  0.00    +0.000 A 
ATOM      3  C   UNL     1       2.319   7.856  17.986  0.00  0.00    +0.000 A 
ATOM      4  C   UNL     1       2.468   7.042  19.125  0.00  0.00    +0.000 A 
ATOM      5  C   UNL     1       1.927   7.522  20.331  0.00  0.00    +0.000 A 
ATOM      6  C   UNL     1       1.283   8.755  20.386  0.00  0.00    +0.000 A 
ATOM      7  F   UNL     1       0.798   9.160  21.570  0.00  0.00    +0.000 F 
ENDROOT
BRANCH   4   8
ATOM      8  C   UNL     1       3.129   5.718  19.076  0.00  0.00    +0.000 A 
ATOM      9  N   UNL     1       3.916   5.524  17.979  0.00  0.00    +0.000 NA
ATOM     10  C   UNL     1       4.605   4.362  17.905  0.00  0.00    +0.000 A 
ATOM     11  C   UNL     1       4.466   3.392  18.888  0.00  0.00    +0.000 A 
ATOM     12  N   UNL     1       3.662   3.542  19.964  0.00  0.00    +0.000 NA
ATOM     13  C   UNL     1       3.000   4.714  20.059  0.00  0.00    +0.000 A 
BRANCH  10  14
ATOM     14  C   UNL     1       5.575   4.181  16.760  0.00  0.00    +0.000 C 
ATOM     15  C   UNL     1       6.715   5.206  16.852  0.00  0.00    +0.000 C 
ATOM     16  C   UNL     1       7.628   5.102  15.640  0.00  0.00    +0.000 C 
ATOM     17  O   UNL     1       6.885   5.240  14.431  0.00  0.00    +0.000 OA
ATOM     18  C   UNL     1       5.899   4.222  14.276  0.00  0.00    +0.000 C 
ATOM     19  C   UNL     1       4.875   4.285  15.400  0.00  0.00    +0.000 C 
ENDBRANCH  10  14
BRANCH  13  20
ATOM     20  N   UNL     1       2.252   4.862  21.227  0.00  0.00    +0.000 N 
ATOM     21  H   UNL     1       1.311   5.148  20.967  0.00  0.00    +0.000 HD
ATOM     22  H   UNL     1       2.686   5.480  21.900  0.00  0.00    +0.000 HD
ENDBRANCH  13  20
ENDBRANCH   4   8
BRANCH   1  24
ATOM     23  N   UNL     1      -0.847  10.852  19.676  0.00  0.00    +0.000 N 
ATOM     24  C   UNL     1       0.468  10.868  19.290  0.00  0.00    +0.000 C 
ATOM     25  O   UNL     1       1.090  11.897  19.024  0.00  0.00    +0.000 OA
ATOM     26  H   UNL     1      -1.299   9.955  19.814  0.00  0.00    +0.000 HD
BRANCH  23  27
ATOM     27  C   UNL     1      -1.676  12.048  19.804  0.00  0.00    +0.000 C 
BRANCH  27  28
ATOM     28  C   UNL     1      -2.892  11.896  18.885  0.00  0.00    +0.000 A 
ATOM     29  C   UNL     1      -4.176  12.261  19.323  0.00  0.00    +0.000 A 
ATOM     30  C   UNL     1      -5.289  12.109  18.486  0.00  0.00    +0.000 A 
ATOM     31  C   UNL     1      -5.132  11.608  17.195  0.00  0.00    +0.000 A 
ATOM     32  C   UNL     1      -3.864  11.256  16.745  0.00  0.00    +0.000 A 
ATOM     33 CL   UNL     1      -3.656  10.668  15.141  0.00  0.00    +0.000 Cl
ATOM     34  C   UNL     1      -2.754  11.389  17.579  0.00  0.00    +0.000 A 
ENDBRANCH  27  28
BRANCH  27  36
ATOM     35  C   UNL     1      -1.318  11.584  22.342  0.00  0.00    +0.000 C 
ATOM     36  C   UNL     1      -2.124  12.323  21.278  0.00  0.00    +0.000 C 
BRANCH  36  37
ATOM     37  O   UNL     1      -2.028  13.722  21.584  0.00  0.00    +0.000 OA
ATOM     38  H   UNL     1      -1.135  13.886  21.933  0.00  0.00    +0.000 HD
ENDBRANCH  36  37
ENDBRANCH  27  36
ENDBRANCH  23  27
ENDBRANCH   1  24
TORSDOF 8
ENDMDL
MODEL 7
REMARK VINA RESULT:      -8.8      4.250     10.308
REMARK  Name = 
REMARK  9 active torsions:
REMARK  status: ('A' for Active; 'I' for Inactive)
REMARK    1  A    between atoms: C_1  and  C_2
REMARK    2  A    between atoms: C_2  and  O_3
REMARK    3  A    between atoms: C_2  and  C_4
REMARK    4  A    between atoms: C_4  and  N_5
REMARK    5  A    between atoms: C_4  and  C_28
REMARK    6  A    between atoms: C_6  and  C_8
REMARK    7  A    between atoms: C_11  and  C_12
REMARK    8  A    between atoms: C_14  and  C_15
REMARK    9  A    between atoms: C_23  and  N_24
REMARK                            x       y       z     vdW  Elec       q    Type
REMARK                         _______ _______ _______ _____ _____    ______ ____
ROOT
ATOM      1  C   UNL     1       1.269   9.489  19.521  0.00  0.00    +0.000 A 
ATOM      2  C   UNL     1       1.596   9.122  18.217  0.00  0.00    +0.000 A 
ATOM      3  C   UNL     1       2.015   7.811  17.949  0.00  0.00    +0.000 A 
ATOM      4  C   UNL     1       2.134   6.844  18.967  0.00  0.00    +0.000 A 
ATOM      5  C   UNL     1       1.796   7.242  20.272  0.00  0.00    +0.000 A 
ATOM      6  C   UNL     1       1.373   8.542  20.537  0.00  0.00    +0.000 A 
ATOM      7  F   UNL     1       1.076   8.861  21.807  0.00  0.00    +0.000 F 
ENDROOT
BRANCH   4   8
ATOM      8  C   UNL     1       2.559   5.453  18.695  0.00  0.00    +0.000 A 
ATOM      9  N   UNL     1       3.620   5.345  17.843  0.00  0.00    +0.000 NA
ATOM     10  C   UNL     1       4.104   4.105  17.605  0.00  0.00    +0.000 A 
ATOM     11  C   UNL     1       3.503   2.989  18.171  0.00  0.00    +0.000 A 
ATOM     12  N   UNL     1       2.427   3.064  18.986  0.00  0.00    +0.000 NA
ATOM     13  C   UNL     1       1.962   4.302  19.253  0.00  0.00    +0.000 A 
BRANCH  10  14
ATOM     14  C   UNL     1       5.352   3.977  16.763  0.00  0.00    +0.000 C 
ATOM     15  C   UNL     1       6.527   4.712  17.426  0.00  0.00    +0.000 C 
ATOM     16  C   UNL     1       7.753   4.684  16.525  0.00  0.00    +0.000 C 
ATOM     17  O   UNL     1       7.451   5.216  15.238  0.00  0.00    +0.000 OA
ATOM     18  C   UNL     1       6.441   4.470  14.561  0.00  0.00    +0.000 C 
ATOM     19  C   UNL     1       5.133   4.501  15.339  0.00  0.00    +0.000 C 
ENDBRANCH  10  14
BRANCH  13  20
ATOM     20  N   UNL     1       0.909   4.339  20.166  0.00  0.00    +0.000 N 
ATOM     21  H   UNL     1       0.385   5.198  20.012  0.00  0.00    +0.000 HD
ATOM     22  H   UNL     1       1.210   4.220  21.125  0.00  0.00    +0.000 HD
ENDBRANCH  13  20
ENDBRANCH   4   8
BRANCH   1  24
ATOM     23  N   UNL     1      -0.515  11.038  20.052  0.00  0.00    +0.000 N 
ATOM     24  C   UNL     1       0.820  10.878  19.784  0.00  0.00    +0.000 C 
ATOM     25  O   UNL     1       1.635  11.801  19.793  0.00  0.00    +0.000 OA
ATOM     26  H   UNL     1      -1.126  10.235  19.959  0.00  0.00    +0.000 HD
BRANCH  23  27
ATOM     27  C   UNL     1      -1.138  12.321  20.364  0.00  0.00    +0.000 C 
BRANCH  27  28
ATOM     28  C   UNL     1      -2.590  12.288  19.879  0.00  0.00    +0.000 A 
ATOM     29  C   UNL     1      -2.936  11.630  18.686  0.00  0.00    +0.000 A 
ATOM     30  C   UNL     1      -4.262  11.612  18.236  0.00  0.00    +0.000 A 
ATOM     31  C   UNL     1      -5.264  12.233  18.980  0.00  0.00    +0.000 A 
ATOM     32  C   UNL     1      -4.936  12.874  20.171  0.00  0.00    +0.000 A 
ATOM     33 CL   UNL     1      -6.172  13.616  21.112  0.00  0.00    +0.000 Cl
ATOM     34  C   UNL     1      -3.615  12.911  20.615  0.00  0.00    +0.000 A 
ENDBRANCH  27  28
BRANCH  27  36
ATOM     35  C   UNL     1      -1.167  11.482  22.829  0.00  0.00    +0.000 C 
ATOM     36  C   UNL     1      -1.069  12.677  21.887  0.00  0.00    +0.000 C 
BRANCH  36  37
ATOM     37  O   UNL     1       0.163  13.347  22.194  0.00  0.00    +0.000 OA
ATOM     38  H   UNL     1       0.054  14.285  21.957  0.00  0.00    +0.000 HD
ENDBRANCH  36  37
ENDBRANCH  27  36
ENDBRANCH  23  27
ENDBRANCH   1  24
TORSDOF 8
ENDMDL
MODEL 8
REMARK VINA RESULT:      -8.8      3.047      3.978
REMARK  Name = 
REMARK  9 active torsions:
REMARK  status: ('A' for Active; 'I' for Inactive)
REMARK    1  A    between atoms: C_1  and  C_2
REMARK    2  A    between atoms: C_2  and  O_3
REMARK    3  A    between atoms: C_2  and  C_4
REMARK    4  A    between atoms: C_4  and  N_5
REMARK    5  A    between atoms: C_4  and  C_28
REMARK    6  A    between atoms: C_6  and  C_8
REMARK    7  A    between atoms: C_11  and  C_12
REMARK    8  A    between atoms: C_14  and  C_15
REMARK    9  A    between atoms: C_23  and  N_24
REMARK                            x       y       z     vdW  Elec       q    Type
REMARK                         _______ _______ _______ _____ _____    ______ ____
ROOT
ATOM      1  C   UNL     1       1.949   7.238  19.470  0.00  0.00    +0.000 A 
ATOM      2  C   UNL     1       1.625   7.175  20.824  0.00  0.00    +0.000 A 
ATOM      3  C   UNL     1       1.136   8.316  21.474  0.00  0.00    +0.000 A 
ATOM      4  C   UNL     1       0.973   9.545  20.804  0.00  0.00    +0.000 A 
ATOM      5  C   UNL     1       1.307   9.578  19.439  0.00  0.00    +0.000 A 
ATOM      6  C   UNL     1       1.785   8.443  18.790  0.00  0.00    +0.000 A 
ATOM      7  F   UNL     1       2.095   8.545  17.488  0.00  0.00    +0.000 F 
ENDROOT
BRANCH   4   8
ATOM      8  C   UNL     1       0.443  10.752  21.475  0.00  0.00    +0.000 A 
ATOM      9  N   UNL     1       0.848  11.929  20.916  0.00  0.00    +0.000 NA
ATOM     10  C   UNL     1       0.344  13.071  21.438  0.00  0.00    +0.000 A 
ATOM     11  C   UNL     1      -0.508  13.035  22.533  0.00  0.00    +0.000 A 
ATOM     12  N   UNL     1      -0.893  11.885  23.131  0.00  0.00    +0.000 NA
ATOM     13  C   UNL     1      -0.420  10.742  22.592  0.00  0.00    +0.000 A 
BRANCH  10  14
ATOM     14  C   UNL     1       0.684  14.376  20.755  0.00  0.00    +0.000 C 
ATOM     15  C   UNL     1      -0.182  14.570  19.501  0.00  0.00    +0.000 C 
ATOM     16  C   UNL     1       0.237  15.824  18.749  0.00  0.00    +0.000 C 
ATOM     17  O   UNL     1       1.628  15.787  18.435  0.00  0.00    +0.000 OA
ATOM     18  C   UNL     1       2.450  15.726  19.599  0.00  0.00    +0.000 C 
ATOM     19  C   UNL     1       2.171  14.457  20.392  0.00  0.00    +0.000 C 
ENDBRANCH  10  14
BRANCH  13  20
ATOM     20  N   UNL     1      -0.911   9.579  23.184  0.00  0.00    +0.000 N 
ATOM     21  H   UNL     1      -1.716   9.264  22.646  0.00  0.00    +0.000 HD
ATOM     22  H   UNL     1      -1.106   9.687  24.171  0.00  0.00    +0.000 HD
ENDBRANCH  13  20
ENDBRANCH   4   8
BRANCH   1  24
ATOM     23  N   UNL     1       3.324   5.246  19.524  0.00  0.00    +0.000 N 
ATOM     24  C   UNL     1       2.457   6.018  18.796  0.00  0.00    +0.000 C 
ATOM     25  O   UNL     1       2.068   5.729  17.664  0.00  0.00    +0.000 OA
ATOM     26  H   UNL     1       3.642   5.591  20.422  0.00  0.00    +0.000 HD
BRANCH  23  27
ATOM     27  C   UNL     1       3.905   3.995  19.043  0.00  0.00    +0.000 C 
BRANCH  27  28
ATOM     28  C   UNL     1       5.131   4.327  18.188  0.00  0.00    +0.000 A 
ATOM     29  C   UNL     1       6.249   4.968  18.748  0.00  0.00    +0.000 A 
ATOM     30  C   UNL     1       7.364   5.283  17.961  0.00  0.00    +0.000 A 
ATOM     31  C   UNL     1       7.386   4.945  16.609  0.00  0.00    +0.000 A 
ATOM     32  C   UNL     1       6.292   4.296  16.046  0.00  0.00    +0.000 A 
ATOM     33 CL   UNL     1       6.324   3.847  14.385  0.00  0.00    +0.000 Cl
ATOM     34  C   UNL     1       5.171   3.995  16.820  0.00  0.00    +0.000 A 
ENDBRANCH  27  28
BRANCH  27  36
ATOM     35  C   UNL     1       3.110   2.544  21.054  0.00  0.00    +0.000 C 
ATOM     36  C   UNL     1       4.284   3.015  20.203  0.00  0.00    +0.000 C 
BRANCH  36  37
ATOM     37  O   UNL     1       4.918   1.836  19.683  0.00  0.00    +0.000 OA
ATOM     38  H   UNL     1       5.709   1.665  20.223  0.00  0.00    +0.000 HD
ENDBRANCH  36  37
ENDBRANCH  27  36
ENDBRANCH  23  27
ENDBRANCH   1  24
TORSDOF 8
ENDMDL
MODEL 9
REMARK VINA RESULT:      -8.7      2.865      4.031
REMARK  Name = 
REMARK  9 active torsions:
REMARK  status: ('A' for Active; 'I' for Inactive)
REMARK    1  A    between atoms: C_1  and  C_2
REMARK    2  A    between atoms: C_2  and  O_3
REMARK    3  A    between atoms: C_2  and  C_4
REMARK    4  A    between atoms: C_4  and  N_5
REMARK    5  A    between atoms: C_4  and  C_28
REMARK    6  A    between atoms: C_6  and  C_8
REMARK    7  A    between atoms: C_11  and  C_12
REMARK    8  A    between atoms: C_14  and  C_15
REMARK    9  A    between atoms: C_23  and  N_24
REMARK                            x       y       z     vdW  Elec       q    Type
REMARK                         _______ _______ _______ _____ _____    ______ ____
ROOT
ATOM      1  C   UNL     1       2.128   7.562  19.102  0.00  0.00    +0.000 A 
ATOM      2  C   UNL     1       2.201   8.368  17.967  0.00  0.00    +0.000 A 
ATOM      3  C   UNL     1       1.694   9.674  18.010  0.00  0.00    +0.000 A 
ATOM      4  C   UNL     1       1.090  10.202  19.168  0.00  0.00    +0.000 A 
ATOM      5  C   UNL     1       1.031   9.367  20.298  0.00  0.00    +0.000 A 
ATOM      6  C   UNL     1       1.542   8.072  20.258  0.00  0.00    +0.000 A 
ATOM      7  F   UNL     1       1.444   7.323  21.367  0.00  0.00    +0.000 F 
ENDROOT
BRANCH   4   8
ATOM      8  C   UNL     1       0.565  11.585  19.231  0.00  0.00    +0.000 A 
ATOM      9  N   UNL     1      -0.499  11.744  20.070  0.00  0.00    +0.000 NA
ATOM     10  C   UNL     1      -0.985  12.996  20.228  0.00  0.00    +0.000 A 
ATOM     11  C   UNL     1      -0.447  14.060  19.517  0.00  0.00    +0.000 A 
ATOM     12  N   UNL     1       0.581  13.923  18.649  0.00  0.00    +0.000 NA
ATOM     13  C   UNL     1       1.091  12.682  18.515  0.00  0.00    +0.000 A 
BRANCH  10  14
ATOM     14  C   UNL     1      -2.082  13.211  21.245  0.00  0.00    +0.000 C 
ATOM     15  C   UNL     1      -1.959  12.199  22.393  0.00  0.00    +0.000 C 
ATOM     16  C   UNL     1      -3.128  12.338  23.357  0.00  0.00    +0.000 C 
ATOM     17  O   UNL     1      -4.371  12.214  22.670  0.00  0.00    +0.000 OA
ATOM     18  C   UNL     1      -4.550  13.223  21.678  0.00  0.00    +0.000 C 
ATOM     19  C   UNL     1      -3.473  13.125  20.607  0.00  0.00    +0.000 C 
ENDBRANCH  10  14
BRANCH  13  20
ATOM     20  N   UNL     1       2.204  12.601  17.679  0.00  0.00    +0.000 N 
ATOM     21  H   UNL     1       2.257  13.461  17.138  0.00  0.00    +0.000 HD
ATOM     22  H   UNL     1       2.211  11.767  17.106  0.00  0.00    +0.000 HD
ENDBRANCH  13  20
ENDBRANCH   4   8
BRANCH   1  24
ATOM     23  N   UNL     1       2.721   5.610  17.798  0.00  0.00    +0.000 N 
ATOM     24  C   UNL     1       2.678   6.186  19.041  0.00  0.00    +0.000 C 
ATOM     25  O   UNL     1       3.098   5.641  20.063  0.00  0.00    +0.000 OA
ATOM     26  H   UNL     1       2.295   6.102  17.022  0.00  0.00    +0.000 HD
BRANCH  23  27
ATOM     27  C   UNL     1       3.255   4.276  17.534  0.00  0.00    +0.000 C 
BRANCH  27  28
ATOM     28  C   UNL     1       4.755   4.401  17.252  0.00  0.00    +0.000 A 
ATOM     29  C   UNL     1       5.286   4.038  16.003  0.00  0.00    +0.000 A 
ATOM     30  C   UNL     1       6.660   4.140  15.751  0.00  0.00    +0.000 A 
ATOM     31  C   UNL     1       7.520   4.624  16.736  0.00  0.00    +0.000 A 
ATOM     32  C   UNL     1       7.004   5.002  17.972  0.00  0.00    +0.000 A 
ATOM     33 CL   UNL     1       8.053   5.631  19.182  0.00  0.00    +0.000 Cl
ATOM     34  C   UNL     1       5.639   4.886  18.235  0.00  0.00    +0.000 A 
ENDBRANCH  27  28
BRANCH  27  36
ATOM     35  C   UNL     1       1.585   2.681  18.737  0.00  0.00    +0.000 C 
ATOM     36  C   UNL     1       2.991   3.272  18.704  0.00  0.00    +0.000 C 
BRANCH  36  37
ATOM     37  O   UNL     1       3.904   2.166  18.638  0.00  0.00    +0.000 OA
ATOM     38  H   UNL     1       4.798   2.513  18.802  0.00  0.00    +0.000 HD
ENDBRANCH  36  37
ENDBRANCH  27  36
ENDBRANCH  23  27
ENDBRANCH   1  24
TORSDOF 8
ENDMDL
