MODEL 1
REMARK VINA RESULT:      -7.3      0.000      0.000
REMARK  Name = 
REMARK  3 active torsions:
REMARK  status: ('A' for Active; 'I' for Inactive)
REMARK    1  A    between atoms: C_1  and  N_2
REMARK    2  A    between atoms: C_4  and  C_5
REMARK    3  A    between atoms: C_6  and  C_7
REMARK                            x       y       z     vdW  Elec       q    Type
REMARK                         _______ _______ _______ _____ _____    ______ ____
ROOT
ATOM      1  C   UNL     1      -2.342  14.066  20.943  0.00  0.00    +0.000 C 
ATOM      2  C   UNL     1      -3.649  14.380  20.890  0.00  0.00    +0.000 C 
ATOM      3  C   UNL     1      -3.740  15.849  20.729  0.00  0.00    +0.000 C 
ATOM      4  O   UNL     1      -4.757  16.512  20.649  0.00  0.00    +0.000 OA
ATOM      5  N   UNL     1      -2.481  16.329  20.691  0.00  0.00    +0.000 N 
ATOM      6  C   UNL     1      -1.582  15.331  20.843  0.00  0.00    +0.000 C 
ATOM      7  O   UNL     1      -0.374  15.468  20.918  0.00  0.00    +0.000 OA
ATOM      8  H   UNL     1      -2.242  17.302  20.635  0.00  0.00    +0.000 HD
ENDROOT
BRANCH   2   9
ATOM      9  C   UNL     1      -4.770  13.539  21.095  0.00  0.00    +0.000 A 
ATOM     10  C   UNL     1      -5.587  13.511  22.209  0.00  0.00    +0.000 A 
ATOM     11  N   UNL     1      -6.567  12.587  21.955  0.00  0.00    +0.000 N 
ATOM     12  C   UNL     1      -6.360  11.964  20.742  0.00  0.00    +0.000 A 
ATOM     13  C   UNL     1      -7.071  10.937  20.100  0.00  0.00    +0.000 A 
ATOM     14  C   UNL     1      -6.615  10.506  18.852  0.00  0.00    +0.000 A 
ATOM     15  C   UNL     1      -5.493  11.078  18.262  0.00  0.00    +0.000 A 
ATOM     16  C   UNL     1      -4.795  12.102  18.910  0.00  0.00    +0.000 A 
ATOM     17  C   UNL     1      -5.230  12.553  20.175  0.00  0.00    +0.000 A 
ATOM     18  C   UNL     1      -7.664  12.302  22.844  0.00  0.00    +0.000 C 
ATOM     19  C   UNL     1      -7.687  13.140  24.121  0.00  0.00    +0.000 C 
ATOM     20  N   UNL     1      -6.694  14.180  24.347  0.00  0.00    +0.000 NA
ATOM     21  C   UNL     1      -5.511  14.235  23.503  0.00  0.00    +0.000 C 
ATOM     22  H   UNL     1      -6.407  14.180  25.325  0.00  0.00    +0.000 HD
ENDBRANCH   2   9
BRANCH   1  26
ATOM     23  C   UNL     1      -0.565  10.108  23.258  0.00  0.00    +0.000 C 
ATOM     24  N   UNL     1      -0.919  11.030  22.202  0.00  0.00    +0.000 N 
ATOM     25  C   UNL     1      -1.563  12.223  22.391  0.00  0.00    +0.000 A 
ATOM     26  C   UNL     1      -1.729  12.809  21.157  0.00  0.00    +0.000 A 
ATOM     27  C   UNL     1      -1.170  11.938  20.176  0.00  0.00    +0.000 A 
ATOM     28  C   UNL     1      -1.043  11.979  18.771  0.00  0.00    +0.000 A 
ATOM     29  C   UNL     1      -0.416  10.925  18.099  0.00  0.00    +0.000 A 
ATOM     30  C   UNL     1       0.095   9.840  18.806  0.00  0.00    +0.000 A 
ATOM     31  C   UNL     1      -0.016   9.772  20.197  0.00  0.00    +0.000 A 
ATOM     32  C   UNL     1      -0.658  10.830  20.862  0.00  0.00    +0.000 A 
ENDBRANCH   1  26
TORSDOF 2
ENDMDL
MODEL 2
REMARK VINA RESULT:      -7.3      2.823      5.314
REMARK  Name = 
REMARK  3 active torsions:
REMARK  status: ('A' for Active; 'I' for Inactive)
REMARK    1  A    between atoms: C_1  and  N_2
REMARK    2  A    between atoms: C_4  and  C_5
REMARK    3  A    between atoms: C_6  and  C_7
REMARK                            x       y       z     vdW  Elec       q    Type
REMARK                         _______ _______ _______ _____ _____    ______ ____
ROOT
ATOM      1  C   UNL     1      -0.796  14.289  21.508  0.00  0.00    +0.000 C 
ATOM      2  C   UNL     1      -1.494  13.141  21.442  0.00  0.00    +0.000 C 
ATOM      3  C   UNL     1      -1.786  12.724  22.832  0.00  0.00    +0.000 C 
ATOM      4  O   UNL     1      -2.393  11.731  23.184  0.00  0.00    +0.000 OA
ATOM      5  N   UNL     1      -1.247  13.651  23.650  0.00  0.00    +0.000 N 
ATOM      6  C   UNL     1      -0.610  14.608  22.940  0.00  0.00    +0.000 C 
ATOM      7  O   UNL     1       0.026  15.534  23.407  0.00  0.00    +0.000 OA
ATOM      8  H   UNL     1      -1.252  13.599  24.653  0.00  0.00    +0.000 HD
ENDROOT
BRANCH   2   9
ATOM      9  C   UNL     1      -1.793  12.351  20.304  0.00  0.00    +0.000 A 
ATOM     10  C   UNL     1      -3.004  12.283  19.642  0.00  0.00    +0.000 A 
ATOM     11  N   UNL     1      -2.824  11.437  18.578  0.00  0.00    +0.000 N 
ATOM     12  C   UNL     1      -1.554  10.900  18.581  0.00  0.00    +0.000 A 
ATOM     13  C   UNL     1      -0.945   9.968  17.724  0.00  0.00    +0.000 A 
ATOM     14  C   UNL     1       0.380   9.610  17.980  0.00  0.00    +0.000 A 
ATOM     15  C   UNL     1       1.078  10.162  19.050  0.00  0.00    +0.000 A 
ATOM     16  C   UNL     1       0.463  11.091  19.894  0.00  0.00    +0.000 A 
ATOM     17  C   UNL     1      -0.878  11.467  19.662  0.00  0.00    +0.000 A 
ATOM     18  C   UNL     1      -3.833  11.146  17.594  0.00  0.00    +0.000 C 
ATOM     19  C   UNL     1      -5.157  11.882  17.796  0.00  0.00    +0.000 C 
ATOM     20  N   UNL     1      -5.315  12.844  18.877  0.00  0.00    +0.000 NA
ATOM     21  C   UNL     1      -4.323  12.898  19.938  0.00  0.00    +0.000 C 
ATOM     22  H   UNL     1      -6.242  12.752  19.290  0.00  0.00    +0.000 HD
ENDBRANCH   2   9
BRANCH   1  26
ATOM     23  C   UNL     1      -0.360  17.536  17.841  0.00  0.00    +0.000 C 
ATOM     24  N   UNL     1      -0.031  16.509  18.804  0.00  0.00    +0.000 N 
ATOM     25  C   UNL     1      -0.902  15.998  19.728  0.00  0.00    +0.000 A 
ATOM     26  C   UNL     1      -0.224  15.052  20.464  0.00  0.00    +0.000 A 
ATOM     27  C   UNL     1       1.114  14.989  19.974  0.00  0.00    +0.000 A 
ATOM     28  C   UNL     1       2.259  14.238  20.315  0.00  0.00    +0.000 A 
ATOM     29  C   UNL     1       3.450  14.425  19.605  0.00  0.00    +0.000 A 
ATOM     30  C   UNL     1       3.512  15.338  18.557  0.00  0.00    +0.000 A 
ATOM     31  C   UNL     1       2.394  16.095  18.197  0.00  0.00    +0.000 A 
ATOM     32  C   UNL     1       1.206  15.908  18.923  0.00  0.00    +0.000 A 
ENDBRANCH   1  26
TORSDOF 2
ENDMDL
MODEL 3
REMARK VINA RESULT:      -7.3      0.862      1.967
REMARK  Name = 
REMARK  3 active torsions:
REMARK  status: ('A' for Active; 'I' for Inactive)
REMARK    1  A    between atoms: C_1  and  N_2
REMARK    2  A    between atoms: C_4  and  C_5
REMARK    3  A    between atoms: C_6  and  C_7
REMARK                            x       y       z     vdW  Elec       q    Type
REMARK                         _______ _______ _______ _____ _____    ______ ____
ROOT
ATOM      1  C   UNL     1      -1.986  13.847  20.471  0.00  0.00    +0.000 C 
ATOM      2  C   UNL     1      -3.253  14.222  20.723  0.00  0.00    +0.000 C 
ATOM      3  C   UNL     1      -3.238  15.683  20.966  0.00  0.00    +0.000 C 
ATOM      4  O   UNL     1      -4.192  16.388  21.234  0.00  0.00    +0.000 OA
ATOM      5  N   UNL     1      -1.961  16.098  20.840  0.00  0.00    +0.000 N 
ATOM      6  C   UNL     1      -1.141  15.058  20.574  0.00  0.00    +0.000 C 
ATOM      7  O   UNL     1       0.071  15.115  20.476  0.00  0.00    +0.000 OA
ATOM      8  H   UNL     1      -1.649  17.039  20.999  0.00  0.00    +0.000 HD
ENDROOT
BRANCH   2   9
ATOM      9  C   UNL     1      -4.400  13.409  20.891  0.00  0.00    +0.000 A 
ATOM     10  C   UNL     1      -5.130  13.240  22.053  0.00  0.00    +0.000 A 
ATOM     11  N   UNL     1      -6.176  12.410  21.743  0.00  0.00    +0.000 N 
ATOM     12  C   UNL     1      -6.098  11.978  20.436  0.00  0.00    +0.000 A 
ATOM     13  C   UNL     1      -6.912  11.097  19.706  0.00  0.00    +0.000 A 
ATOM     14  C   UNL     1      -6.578  10.849  18.372  0.00  0.00    +0.000 A 
ATOM     15  C   UNL     1      -5.475  11.459  17.784  0.00  0.00    +0.000 A 
ATOM     16  C   UNL     1      -4.673  12.336  18.520  0.00  0.00    +0.000 A 
ATOM     17  C   UNL     1      -4.984  12.601  19.872  0.00  0.00    +0.000 A 
ATOM     18  C   UNL     1      -7.215  12.035  22.667  0.00  0.00    +0.000 C 
ATOM     19  C   UNL     1      -7.093  12.661  24.056  0.00  0.00    +0.000 C 
ATOM     20  N   UNL     1      -6.029  13.610  24.354  0.00  0.00    +0.000 NA
ATOM     21  C   UNL     1      -4.914  13.746  23.431  0.00  0.00    +0.000 C 
ATOM     22  H   UNL     1      -5.669  13.443  25.292  0.00  0.00    +0.000 HD
ENDBRANCH   2   9
BRANCH   1  26
ATOM     23  C   UNL     1      -0.273   9.887  18.113  0.00  0.00    +0.000 C 
ATOM     24  N   UNL     1      -0.699  10.765  19.180  0.00  0.00    +0.000 N 
ATOM     25  C   UNL     1      -1.165  12.040  19.002  0.00  0.00    +0.000 A 
ATOM     26  C   UNL     1      -1.462  12.554  20.244  0.00  0.00    +0.000 A 
ATOM     27  C   UNL     1      -1.160  11.556  21.218  0.00  0.00    +0.000 A 
ATOM     28  C   UNL     1      -1.240  11.489  22.625  0.00  0.00    +0.000 A 
ATOM     29  C   UNL     1      -0.855  10.319  23.288  0.00  0.00    +0.000 A 
ATOM     30  C   UNL     1      -0.403   9.216  22.570  0.00  0.00    +0.000 A 
ATOM     31  C   UNL     1      -0.313   9.254  21.176  0.00  0.00    +0.000 A 
ATOM     32  C   UNL     1      -0.691  10.437  20.520  0.00  0.00    +0.000 A 
ENDBRANCH   1  26
TORSDOF 2
ENDMDL
MODEL 4
REMARK VINA RESULT:      -7.1      2.317      3.832
REMARK  Name = 
REMARK  3 active torsions:
REMARK  status: ('A' for Active; 'I' for Inactive)
REMARK    1  A    between atoms: C_1  and  N_2
REMARK    2  A    between atoms: C_4  and  C_5
REMARK    3  A    between atoms: C_6  and  C_7
REMARK                            x       y       z     vdW  Elec       q    Type
REMARK                         _______ _______ _______ _____ _____    ______ ____
ROOT
ATOM      1  C   UNL     1       0.822  12.748  19.157  0.00  0.00    +0.000 C 
ATOM      2  C   UNL     1      -0.337  13.429  19.093  0.00  0.00    +0.000 C 
ATOM      3  C   UNL     1       0.005  14.865  18.970  0.00  0.00    +0.000 C 
ATOM      4  O   UNL     1      -0.774  15.796  18.893  0.00  0.00    +0.000 OA
ATOM      5  N   UNL     1       1.350  14.958  18.962  0.00  0.00    +0.000 N 
ATOM      6  C   UNL     1       1.918  13.740  19.099  0.00  0.00    +0.000 C 
ATOM      7  O   UNL     1       3.111  13.519  19.195  0.00  0.00    +0.000 OA
ATOM      8  H   UNL     1       1.862  15.822  18.934  0.00  0.00    +0.000 HD
ENDROOT
BRANCH   2   9
ATOM      9  C   UNL     1      -1.658  12.946  19.261  0.00  0.00    +0.000 A 
ATOM     10  C   UNL     1      -2.493  13.185  20.336  0.00  0.00    +0.000 A 
ATOM     11  N   UNL     1      -3.684  12.567  20.053  0.00  0.00    +0.000 N 
ATOM     12  C   UNL     1      -3.613  11.873  18.863  0.00  0.00    +0.000 A 
ATOM     13  C   UNL     1      -4.560  11.069  18.207  0.00  0.00    +0.000 A 
ATOM     14  C   UNL     1      -4.195  10.488  16.991  0.00  0.00    +0.000 A 
ATOM     15  C   UNL     1      -2.934  10.702  16.444  0.00  0.00    +0.000 A 
ATOM     16  C   UNL     1      -2.001  11.506  17.104  0.00  0.00    +0.000 A 
ATOM     17  C   UNL     1      -2.341  12.102  18.338  0.00  0.00    +0.000 A 
ATOM     18  C   UNL     1      -4.851  12.631  20.894  0.00  0.00    +0.000 C 
ATOM     19  C   UNL     1      -4.687  13.481  22.153  0.00  0.00    +0.000 C 
ATOM     20  N   UNL     1      -3.449  14.205  22.406  0.00  0.00    +0.000 NA
ATOM     21  C   UNL     1      -2.267  13.897  21.618  0.00  0.00    +0.000 C 
ATOM     22  H   UNL     1      -3.214  14.155  23.396  0.00  0.00    +0.000 HD
ENDBRANCH   2   9
BRANCH   1  26
ATOM     23  C   UNL     1       2.208   8.112  18.284  0.00  0.00    +0.000 C 
ATOM     24  N   UNL     1       1.656   9.271  18.947  0.00  0.00    +0.000 N 
ATOM     25  C   UNL     1       1.637  10.536  18.422  0.00  0.00    +0.000 A 
ATOM     26  C   UNL     1       1.039  11.364  19.345  0.00  0.00    +0.000 A 
ATOM     27  C   UNL     1       0.685  10.575  20.480  0.00  0.00    +0.000 A 
ATOM     28  C   UNL     1       0.067  10.846  21.720  0.00  0.00    +0.000 A 
ATOM     29  C   UNL     1      -0.141   9.806  22.633  0.00  0.00    +0.000 A 
ATOM     30  C   UNL     1       0.246   8.506  22.324  0.00  0.00    +0.000 A 
ATOM     31  C   UNL     1       0.860   8.209  21.105  0.00  0.00    +0.000 A 
ATOM     32  C   UNL     1       1.075   9.261  20.199  0.00  0.00    +0.000 A 
ENDBRANCH   1  26
TORSDOF 2
ENDMDL
MODEL 5
REMARK VINA RESULT:      -7.1      2.669      4.586
REMARK  Name = 
REMARK  3 active torsions:
REMARK  status: ('A' for Active; 'I' for Inactive)
REMARK    1  A    between atoms: C_1  and  N_2
REMARK    2  A    between atoms: C_4  and  C_5
REMARK    3  A    between atoms: C_6  and  C_7
REMARK                            x       y       z     vdW  Elec       q    Type
REMARK                         _______ _______ _______ _____ _____    ______ ____
ROOT
ATOM      1  C   UNL     1      -1.354  14.195  21.611  0.00  0.00    +0.000 C 
ATOM      2  C   UNL     1      -2.300  13.242  21.527  0.00  0.00    +0.000 C 
ATOM      3  C   UNL     1      -2.606  12.806  22.908  0.00  0.00    +0.000 C 
ATOM      4  O   UNL     1      -3.407  11.953  23.244  0.00  0.00    +0.000 OA
ATOM      5  N   UNL     1      -1.827  13.526  23.740  0.00  0.00    +0.000 N 
ATOM      6  C   UNL     1      -1.024  14.362  23.044  0.00  0.00    +0.000 C 
ATOM      7  O   UNL     1      -0.168  15.084  23.519  0.00  0.00    +0.000 OA
ATOM      8  H   UNL     1      -1.791  13.406  24.736  0.00  0.00    +0.000 HD
ENDROOT
BRANCH   2   9
ATOM      9  C   UNL     1      -2.832  12.623  20.370  0.00  0.00    +0.000 A 
ATOM     10  C   UNL     1      -4.118  12.756  19.880  0.00  0.00    +0.000 A 
ATOM     11  N   UNL     1      -4.175  12.024  18.722  0.00  0.00    +0.000 N 
ATOM     12  C   UNL     1      -2.987  11.362  18.493  0.00  0.00    +0.000 A 
ATOM     13  C   UNL     1      -2.606  10.477  17.472  0.00  0.00    +0.000 A 
ATOM     14  C   UNL     1      -1.310   9.958  17.503  0.00  0.00    +0.000 A 
ATOM     15  C   UNL     1      -0.422  10.309  18.515  0.00  0.00    +0.000 A 
ATOM     16  C   UNL     1      -0.811  11.193  19.525  0.00  0.00    +0.000 A 
ATOM     17  C   UNL     1      -2.117  11.729  19.520  0.00  0.00    +0.000 A 
ATOM     18  C   UNL     1      -5.328  11.953  17.863  0.00  0.00    +0.000 C 
ATOM     19  C   UNL     1      -6.520  12.793  18.321  0.00  0.00    +0.000 C 
ATOM     20  N   UNL     1      -6.425  13.636  19.504  0.00  0.00    +0.000 NA
ATOM     21  C   UNL     1      -5.306  13.466  20.416  0.00  0.00    +0.000 C 
ATOM     22  H   UNL     1      -7.296  13.593  20.031  0.00  0.00    +0.000 HD
ENDBRANCH   2   9
BRANCH   1  26
ATOM     23  C   UNL     1      -0.459  17.374  17.968  0.00  0.00    +0.000 C 
ATOM     24  N   UNL     1      -0.277  16.307  18.927  0.00  0.00    +0.000 N 
ATOM     25  C   UNL     1      -1.216  15.912  19.841  0.00  0.00    +0.000 A 
ATOM     26  C   UNL     1      -0.676  14.880  20.576  0.00  0.00    +0.000 A 
ATOM     27  C   UNL     1       0.645  14.641  20.094  0.00  0.00    +0.000 A 
ATOM     28  C   UNL     1       1.676  13.741  20.439  0.00  0.00    +0.000 A 
ATOM     29  C   UNL     1       2.887  13.772  19.738  0.00  0.00    +0.000 A 
ATOM     30  C   UNL     1       3.078  14.674  18.696  0.00  0.00    +0.000 A 
ATOM     31  C   UNL     1       2.075  15.575  18.333  0.00  0.00    +0.000 A 
ATOM     32  C   UNL     1       0.867  15.546  19.050  0.00  0.00    +0.000 A 
ENDBRANCH   1  26
TORSDOF 2
ENDMDL
MODEL 6
REMARK VINA RESULT:      -7.1      2.682      5.205
REMARK  Name = 
REMARK  3 active torsions:
REMARK  status: ('A' for Active; 'I' for Inactive)
REMARK    1  A    between atoms: C_1  and  N_2
REMARK    2  A    between atoms: C_4  and  C_5
REMARK    3  A    between atoms: C_6  and  C_7
REMARK                            x       y       z     vdW  Elec       q    Type
REMARK                         _______ _______ _______ _____ _____    ______ ____
ROOT
ATOM      1  C   UNL     1      -0.992  14.208  21.545  0.00  0.00    +0.000 C 
ATOM      2  C   UNL     1      -1.847  13.172  21.454  0.00  0.00    +0.000 C 
ATOM      3  C   UNL     1      -2.199  12.772  22.835  0.00  0.00    +0.000 C 
ATOM      4  O   UNL     1      -2.942  11.867  23.165  0.00  0.00    +0.000 OA
ATOM      5  N   UNL     1      -1.537  13.595  23.673  0.00  0.00    +0.000 N 
ATOM      6  C   UNL     1      -0.768  14.466  22.984  0.00  0.00    +0.000 C 
ATOM      7  O   UNL     1      -0.008  15.282  23.472  0.00  0.00    +0.000 OA
ATOM      8  H   UNL     1      -1.553  13.523  24.675  0.00  0.00    +0.000 HD
ENDROOT
BRANCH   2   9
ATOM      9  C   UNL     1      -2.251  12.458  20.299  0.00  0.00    +0.000 A 
ATOM     10  C   UNL     1      -3.488  12.515  19.685  0.00  0.00    +0.000 A 
ATOM     11  N   UNL     1      -3.416  11.703  18.582  0.00  0.00    +0.000 N 
ATOM     12  C   UNL     1      -2.195  11.066  18.512  0.00  0.00    +0.000 A 
ATOM     13  C   UNL     1      -1.697  10.126  17.596  0.00  0.00    +0.000 A 
ATOM     14  C   UNL     1      -0.396   9.653  17.784  0.00  0.00    +0.000 A 
ATOM     15  C   UNL     1       0.383  10.102  18.845  0.00  0.00    +0.000 A 
ATOM     16  C   UNL     1      -0.122  11.040  19.749  0.00  0.00    +0.000 A 
ATOM     17  C   UNL     1      -1.436  11.531  19.586  0.00  0.00    +0.000 A 
ATOM     18  C   UNL     1      -4.482  11.536  17.628  0.00  0.00    +0.000 C 
ATOM     19  C   UNL     1      -5.732  12.366  17.913  0.00  0.00    +0.000 C 
ATOM     20  N   UNL     1      -5.771  13.291  19.036  0.00  0.00    +0.000 NA
ATOM     21  C   UNL     1      -4.739  13.220  20.057  0.00  0.00    +0.000 C 
ATOM     22  H   UNL     1      -6.686  13.256  19.483  0.00  0.00    +0.000 HD
ENDBRANCH   2   9
BRANCH   1  26
ATOM     23  C   UNL     1       2.522  15.493  18.355  0.00  0.00    +0.000 C 
ATOM     24  N   UNL     1       1.275  15.489  19.087  0.00  0.00    +0.000 N 
ATOM     25  C   UNL     1       0.948  14.589  20.065  0.00  0.00    +0.000 A 
ATOM     26  C   UNL     1      -0.314  14.904  20.518  0.00  0.00    +0.000 A 
ATOM     27  C   UNL     1      -0.776  16.036  19.783  0.00  0.00    +0.000 A 
ATOM     28  C   UNL     1      -1.963  16.800  19.784  0.00  0.00    +0.000 A 
ATOM     29  C   UNL     1      -2.091  17.883  18.909  0.00  0.00    +0.000 A 
ATOM     30  C   UNL     1      -1.055  18.222  18.045  0.00  0.00    +0.000 A 
ATOM     31  C   UNL     1       0.131  17.484  18.022  0.00  0.00    +0.000 A 
ATOM     32  C   UNL     1       0.247  16.390  18.896  0.00  0.00    +0.000 A 
ENDBRANCH   1  26
TORSDOF 2
ENDMDL
MODEL 7
REMARK VINA RESULT:      -7.1      2.790      6.239
REMARK  Name = 
REMARK  3 active torsions:
REMARK  status: ('A' for Active; 'I' for Inactive)
REMARK    1  A    between atoms: C_1  and  N_2
REMARK    2  A    between atoms: C_4  and  C_5
REMARK    3  A    between atoms: C_6  and  C_7
REMARK                            x       y       z     vdW  Elec       q    Type
REMARK                         _______ _______ _______ _____ _____    ______ ____
ROOT
ATOM      1  C   UNL     1      -2.240  13.125  21.585  0.00  0.00    +0.000 C 
ATOM      2  C   UNL     1      -1.272  14.050  21.708  0.00  0.00    +0.000 C 
ATOM      3  C   UNL     1      -1.086  14.302  23.155  0.00  0.00    +0.000 C 
ATOM      4  O   UNL     1      -0.304  15.082  23.666  0.00  0.00    +0.000 OA
ATOM      5  N   UNL     1      -1.953  13.508  23.815  0.00  0.00    +0.000 N 
ATOM      6  C   UNL     1      -2.704  12.791  22.950  0.00  0.00    +0.000 C 
ATOM      7  O   UNL     1      -3.615  12.042  23.251  0.00  0.00    +0.000 OA
ATOM      8  H   UNL     1      -2.079  13.504  24.812  0.00  0.00    +0.000 HD
ENDROOT
BRANCH   2   9
ATOM      9  C   UNL     1      -0.623  14.792  20.690  0.00  0.00    +0.000 A 
ATOM     10  C   UNL     1       0.634  14.554  20.169  0.00  0.00    +0.000 A 
ATOM     11  N   UNL     1       0.833  15.481  19.179  0.00  0.00    +0.000 N 
ATOM     12  C   UNL     1      -0.229  16.358  19.100  0.00  0.00    +0.000 A 
ATOM     13  C   UNL     1      -0.442  17.477  18.279  0.00  0.00    +0.000 A 
ATOM     14  C   UNL     1      -1.638  18.181  18.427  0.00  0.00    +0.000 A 
ATOM     15  C   UNL     1      -2.592  17.785  19.358  0.00  0.00    +0.000 A 
ATOM     16  C   UNL     1      -2.371  16.668  20.169  0.00  0.00    +0.000 A 
ATOM     17  C   UNL     1      -1.168  15.940  20.043  0.00  0.00    +0.000 A 
ATOM     18  C   UNL     1       2.000  15.533  18.339  0.00  0.00    +0.000 C 
ATOM     19  C   UNL     1       3.032  14.439  18.607  0.00  0.00    +0.000 C 
ATOM     20  N   UNL     1       2.778  13.405  19.600  0.00  0.00    +0.000 NA
ATOM     21  C   UNL     1       1.682  13.570  20.541  0.00  0.00    +0.000 C 
ATOM     22  H   UNL     1       3.633  13.202  20.116  0.00  0.00    +0.000 HD
ENDBRANCH   2   9
BRANCH   1  26
ATOM     23  C   UNL     1      -5.584  12.153  18.114  0.00  0.00    +0.000 C 
ATOM     24  N   UNL     1      -4.344  12.149  18.856  0.00  0.00    +0.000 N 
ATOM     25  C   UNL     1      -4.126  12.843  20.015  0.00  0.00    +0.000 A 
ATOM     26  C   UNL     1      -2.832  12.595  20.415  0.00  0.00    +0.000 A 
ATOM     27  C   UNL     1      -2.235  11.721  19.459  0.00  0.00    +0.000 A 
ATOM     28  C   UNL     1      -0.962  11.129  19.318  0.00  0.00    +0.000 A 
ATOM     29  C   UNL     1      -0.703  10.291  18.228  0.00  0.00    +0.000 A 
ATOM     30  C   UNL     1      -1.694  10.026  17.288  0.00  0.00    +0.000 A 
ATOM     31  C   UNL     1      -2.964  10.598  17.403  0.00  0.00    +0.000 A 
ATOM     32  C   UNL     1      -3.211  11.448  18.494  0.00  0.00    +0.000 A 
ENDBRANCH   1  26
TORSDOF 2
ENDMDL
MODEL 8
REMARK VINA RESULT:      -7.0      2.710      5.991
REMARK  Name = 
REMARK  3 active torsions:
REMARK  status: ('A' for Active; 'I' for Inactive)
REMARK    1  A    between atoms: C_1  and  N_2
REMARK    2  A    between atoms: C_4  and  C_5
REMARK    3  A    between atoms: C_6  and  C_7
REMARK                            x       y       z     vdW  Elec       q    Type
REMARK                         _______ _______ _______ _____ _____    ______ ____
ROOT
ATOM      1  C   UNL     1      -2.073  13.107  21.566  0.00  0.00    +0.000 C 
ATOM      2  C   UNL     1      -1.144  14.076  21.649  0.00  0.00    +0.000 C 
ATOM      3  C   UNL     1      -0.899  14.326  23.088  0.00  0.00    +0.000 C 
ATOM      4  O   UNL     1      -0.129  15.138  23.567  0.00  0.00    +0.000 OA
ATOM      5  N   UNL     1      -1.694  13.488  23.783  0.00  0.00    +0.000 N 
ATOM      6  C   UNL     1      -2.452  12.742  22.949  0.00  0.00    +0.000 C 
ATOM      7  O   UNL     1      -3.311  11.949  23.287  0.00  0.00    +0.000 OA
ATOM      8  H   UNL     1      -1.770  13.471  24.784  0.00  0.00    +0.000 HD
ENDROOT
BRANCH   2   9
ATOM      9  C   UNL     1      -0.581  14.855  20.608  0.00  0.00    +0.000 A 
ATOM     10  C   UNL     1      -1.158  15.949  19.992  0.00  0.00    +0.000 A 
ATOM     11  N   UNL     1      -0.244  16.417  19.084  0.00  0.00    +0.000 N 
ATOM     12  C   UNL     1       0.873  15.609  19.042  0.00  0.00    +0.000 A 
ATOM     13  C   UNL     1       2.027  15.671  18.245  0.00  0.00    +0.000 A 
ATOM     14  C   UNL     1       3.009  14.697  18.435  0.00  0.00    +0.000 A 
ATOM     15  C   UNL     1       2.850  13.696  19.388  0.00  0.00    +0.000 A 
ATOM     16  C   UNL     1       1.698  13.644  20.178  0.00  0.00    +0.000 A 
ATOM     17  C   UNL     1       0.687  14.614  20.003  0.00  0.00    +0.000 A 
ATOM     18  C   UNL     1      -0.432  17.593  18.276  0.00  0.00    +0.000 C 
ATOM     19  C   UNL     1      -1.747  18.333  18.518  0.00  0.00    +0.000 C 
ATOM     20  N   UNL     1      -2.676  17.882  19.545  0.00  0.00    +0.000 NA
ATOM     21  C   UNL     1      -2.499  16.569  20.143  0.00  0.00    +0.000 C 
ATOM     22  H   UNL     1      -3.634  17.969  19.208  0.00  0.00    +0.000 HD
ENDBRANCH   2   9
BRANCH   1  26
ATOM     23  C   UNL     1      -5.515  12.064  18.213  0.00  0.00    +0.000 C 
ATOM     24  N   UNL     1      -4.252  12.080  18.916  0.00  0.00    +0.000 N 
ATOM     25  C   UNL     1      -4.004  12.790  20.060  0.00  0.00    +0.000 A 
ATOM     26  C   UNL     1      -2.696  12.557  20.422  0.00  0.00    +0.000 A 
ATOM     27  C   UNL     1      -2.122  11.677  19.458  0.00  0.00    +0.000 A 
ATOM     28  C   UNL     1      -0.849  11.094  19.283  0.00  0.00    +0.000 A 
ATOM     29  C   UNL     1      -0.617  10.245  18.196  0.00  0.00    +0.000 A 
ATOM     30  C   UNL     1      -1.635   9.961  17.291  0.00  0.00    +0.000 A 
ATOM     31  C   UNL     1      -2.905  10.523  17.439  0.00  0.00    +0.000 A 
ATOM     32  C   UNL     1      -3.125  11.384  18.527  0.00  0.00    +0.000 A 
ENDBRANCH   1  26
TORSDOF 2
ENDMDL
MODEL 9
REMARK VINA RESULT:      -6.9      1.949      2.906
REMARK  Name = 
REMARK  3 active torsions:
REMARK  status: ('A' for Active; 'I' for Inactive)
REMARK    1  A    between atoms: C_1  and  N_2
REMARK    2  A    between atoms: C_4  and  C_5
REMARK    3  A    between atoms: C_6  and  C_7
REMARK                            x       y       z     vdW  Elec       q    Type
REMARK                         _______ _______ _______ _____ _____    ______ ____
ROOT
ATOM      1  C   UNL     1       0.048  12.693  20.466  0.00  0.00    +0.000 C 
ATOM      2  C   UNL     1      -1.071  13.349  20.113  0.00  0.00    +0.000 C 
ATOM      3  C   UNL     1      -0.791  14.797  20.246  0.00  0.00    +0.000 C 
ATOM      4  O   UNL     1      -1.560  15.713  20.023  0.00  0.00    +0.000 OA
ATOM      5  N   UNL     1       0.483  14.922  20.668  0.00  0.00    +0.000 N 
ATOM      6  C   UNL     1       1.050  13.710  20.854  0.00  0.00    +0.000 C 
ATOM      7  O   UNL     1       2.166  13.507  21.295  0.00  0.00    +0.000 OA
ATOM      8  H   UNL     1       0.929  15.795  20.888  0.00  0.00    +0.000 HD
ENDROOT
BRANCH   2   9
ATOM      9  C   UNL     1      -2.350  12.820  19.810  0.00  0.00    +0.000 A 
ATOM     10  C   UNL     1      -3.480  12.889  20.602  0.00  0.00    +0.000 A 
ATOM     11  N   UNL     1      -4.492  12.291  19.897  0.00  0.00    +0.000 N 
ATOM     12  C   UNL     1      -4.028  11.771  18.706  0.00  0.00    +0.000 A 
ATOM     13  C   UNL     1      -4.685  11.047  17.698  0.00  0.00    +0.000 A 
ATOM     14  C   UNL     1      -3.940  10.649  16.586  0.00  0.00    +0.000 A 
ATOM     15  C   UNL     1      -2.590  10.963  16.478  0.00  0.00    +0.000 A 
ATOM     16  C   UNL     1      -1.947  11.687  17.487  0.00  0.00    +0.000 A 
ATOM     17  C   UNL     1      -2.674  12.097  18.625  0.00  0.00    +0.000 A 
ATOM     18  C   UNL     1      -5.858  12.213  20.346  0.00  0.00    +0.000 C 
ATOM     19  C   UNL     1      -6.128  12.882  21.692  0.00  0.00    +0.000 C 
ATOM     20  N   UNL     1      -5.069  13.591  22.397  0.00  0.00    +0.000 NA
ATOM     21  C   UNL     1      -3.689  13.420  21.972  0.00  0.00    +0.000 C 
ATOM     22  H   UNL     1      -5.136  13.408  23.397  0.00  0.00    +0.000 HD
ENDBRANCH   2   9
BRANCH   1  26
ATOM     23  C   UNL     1       0.043   8.121  22.278  0.00  0.00    +0.000 C 
ATOM     24  N   UNL     1       0.282   9.242  21.397  0.00  0.00    +0.000 N 
ATOM     25  C   UNL     1      -0.130  10.525  21.637  0.00  0.00    +0.000 A 
ATOM     26  C   UNL     1       0.276  11.301  20.575  0.00  0.00    +0.000 A 
ATOM     27  C   UNL     1       0.957  10.457  19.648  0.00  0.00    +0.000 A 
ATOM     28  C   UNL     1       1.580  10.659  18.398  0.00  0.00    +0.000 A 
ATOM     29  C   UNL     1       2.177   9.580  17.737  0.00  0.00    +0.000 A 
ATOM     30  C   UNL     1       2.171   8.311  18.307  0.00  0.00    +0.000 A 
ATOM     31  C   UNL     1       1.562   8.082  19.544  0.00  0.00    +0.000 A 
ATOM     32  C   UNL     1       0.955   9.169  20.194  0.00  0.00    +0.000 A 
ENDBRANCH   1  26
TORSDOF 2
ENDMDL
