MODEL 1
REMARK VINA RESULT:      -8.4      0.000      0.000
REMARK  Name = 
REMARK  7 active torsions:
REMARK  status: ('A' for Active; 'I' for Inactive)
REMARK    1  A    between atoms: C_1  and  C_2
REMARK    2  A    between atoms: C_4  and  C_5
REMARK    3  A    between atoms: C_7  and  S_8
REMARK    4  A    between atoms: S_8  and  C_11
REMARK    5  A    between atoms: C_12  and  C_13
REMARK    6  A    between atoms: N_15  and  N_16
REMARK    7  A    between atoms: N_19  and  N_20
REMARK                            x       y       z     vdW  Elec       q    Type
REMARK                         _______ _______ _______ _____ _____    ______ ____
ROOT
ATOM      1  C   UNL     1      -1.070  11.756  21.028  0.00  0.00    +0.000 A 
ATOM      2  C   UNL     1      -1.332  11.687  22.398  0.00  0.00    +0.000 A 
ATOM      3  N   UNL     1      -0.621  10.595  22.859  0.00  0.00    +0.000 N 
ATOM      4  C   UNL     1       0.068   9.969  21.854  0.00  0.00    +0.000 A 
ATOM      5  C   UNL     1       0.889   8.835  21.905  0.00  0.00    +0.000 A 
ATOM      6  C   UNL     1       1.446   8.388  20.705  0.00  0.00    +0.000 A 
ATOM      7  C   UNL     1       1.183   9.049  19.510  0.00  0.00    +0.000 A 
ATOM      8 CL   UNL     1       1.876   8.464  18.045  0.00  0.00    +0.000 Cl
ATOM      9  C   UNL     1       0.362  10.180  19.478  0.00  0.00    +0.000 A 
ATOM     10  C   UNL     1      -0.207  10.662  20.679  0.00  0.00    +0.000 A 
ATOM     11  H   UNL     1      -0.654  10.248  23.810  0.00  0.00    +0.000 HD
ENDROOT
BRANCH   2  12
ATOM     12  C   UNL     1      -2.190  12.472  23.264  0.00  0.00    +0.000 C 
ATOM     13  O   UNL     1      -1.880  13.551  23.754  0.00  0.00    +0.000 OA
ATOM     14  N   UNL     1      -3.430  11.901  23.485  0.00  0.00    +0.000 N 
ATOM     15  H   UNL     1      -3.691  10.966  23.180  0.00  0.00    +0.000 HD
BRANCH  14  16
ATOM     16  N   UNL     1      -4.380  12.526  24.305  0.00  0.00    +0.000 N 
ATOM     17  C   UNL     1      -5.662  12.614  23.806  0.00  0.00    +0.000 C 
ATOM     18  O   UNL     1      -5.954  12.222  22.675  0.00  0.00    +0.000 OA
ATOM     19  N   UNL     1      -6.559  13.236  24.658  0.00  0.00    +0.000 N 
ATOM     20  H   UNL     1      -4.118  12.724  25.267  0.00  0.00    +0.000 HD
ATOM     21  H   UNL     1      -6.374  13.204  25.656  0.00  0.00    +0.000 HD
BRANCH  19  22
ATOM     22  N   UNL     1      -7.917  13.348  24.251  0.00  0.00    +0.000 NA
ATOM     23  H   UNL     1      -8.256  12.391  24.072  0.00  0.00    +0.000 HD
ATOM     24  H   UNL     1      -7.932  13.790  23.329  0.00  0.00    +0.000 HD
ENDBRANCH  19  22
ENDBRANCH  14  16
ENDBRANCH   2  12
BRANCH   1  25
ATOM     25  S   UNL     1      -1.667  12.859  19.832  0.00  0.00    +0.000 S 
ATOM     26  O   UNL     1      -0.474  13.231  19.097  0.00  0.00    +0.000 OA
ATOM     27  O   UNL     1      -2.432  13.839  20.583  0.00  0.00    +0.000 OA
BRANCH  25  34
ATOM     28  C   UNL     1      -6.492  11.183  18.664  0.00  0.00    +0.000 C 
ATOM     29  C   UNL     1      -5.051  11.314  18.268  0.00  0.00    +0.000 A 
ATOM     30  C   UNL     1      -4.585  10.789  17.051  0.00  0.00    +0.000 A 
ATOM     31  C   UNL     1      -3.241  10.917  16.676  0.00  0.00    +0.000 A 
ATOM     32  C   UNL     1      -2.724  10.357  15.384  0.00  0.00    +0.000 C 
ATOM     33  C   UNL     1      -2.354  11.570  17.533  0.00  0.00    +0.000 A 
ATOM     34  C   UNL     1      -2.805  12.060  18.759  0.00  0.00    +0.000 A 
ATOM     35  C   UNL     1      -4.152  11.965  19.121  0.00  0.00    +0.000 A 
ENDBRANCH  25  34
ENDBRANCH   1  25
TORSDOF 5
ENDMDL
MODEL 2
REMARK VINA RESULT:      -8.4      0.046      1.609
REMARK  Name = 
REMARK  7 active torsions:
REMARK  status: ('A' for Active; 'I' for Inactive)
REMARK    1  A    between atoms: C_1  and  C_2
REMARK    2  A    between atoms: C_4  and  C_5
REMARK    3  A    between atoms: C_7  and  S_8
REMARK    4  A    between atoms: S_8  and  C_11
REMARK    5  A    between atoms: C_12  and  C_13
REMARK    6  A    between atoms: N_15  and  N_16
REMARK    7  A    between atoms: N_19  and  N_20
REMARK                            x       y       z     vdW  Elec       q    Type
REMARK                         _______ _______ _______ _____ _____    ______ ____
ROOT
ATOM      1  C   UNL     1      -1.056  11.768  20.994  0.00  0.00    +0.000 A 
ATOM      2  C   UNL     1      -1.319  11.696  22.363  0.00  0.00    +0.000 A 
ATOM      3  N   UNL     1      -0.615  10.599  22.822  0.00  0.00    +0.000 N 
ATOM      4  C   UNL     1       0.071   9.972  21.815  0.00  0.00    +0.000 A 
ATOM      5  C   UNL     1       0.885   8.833  21.863  0.00  0.00    +0.000 A 
ATOM      6  C   UNL     1       1.440   8.386  20.661  0.00  0.00    +0.000 A 
ATOM      7  C   UNL     1       1.182   9.052  19.468  0.00  0.00    +0.000 A 
ATOM      8 CL   UNL     1       1.872   8.468  18.002  0.00  0.00    +0.000 Cl
ATOM      9  C   UNL     1       0.368  10.188  19.440  0.00  0.00    +0.000 A 
ATOM     10  C   UNL     1      -0.199  10.670  20.642  0.00  0.00    +0.000 A 
ATOM     11  H   UNL     1      -0.650  10.249  23.771  0.00  0.00    +0.000 HD
ENDROOT
BRANCH   2  12
ATOM     12  C   UNL     1      -2.173  12.484  23.231  0.00  0.00    +0.000 C 
ATOM     13  O   UNL     1      -1.855  13.557  23.729  0.00  0.00    +0.000 OA
ATOM     14  N   UNL     1      -3.419  11.922  23.445  0.00  0.00    +0.000 N 
ATOM     15  H   UNL     1      -3.688  10.992  23.133  0.00  0.00    +0.000 HD
BRANCH  14  16
ATOM     16  N   UNL     1      -4.366  12.552  24.266  0.00  0.00    +0.000 N 
ATOM     17  C   UNL     1      -5.657  12.605  23.786  0.00  0.00    +0.000 C 
ATOM     18  O   UNL     1      -5.961  12.181  22.670  0.00  0.00    +0.000 OA
ATOM     19  N   UNL     1      -6.551  13.233  24.637  0.00  0.00    +0.000 N 
ATOM     20  H   UNL     1      -4.092  12.777  25.218  0.00  0.00    +0.000 HD
ATOM     21  H   UNL     1      -6.349  13.228  25.633  0.00  0.00    +0.000 HD
BRANCH  19  22
ATOM     22  N   UNL     1      -7.916  13.312  24.251  0.00  0.00    +0.000 NA
ATOM     23  H   UNL     1      -8.286  14.196  24.633  0.00  0.00    +0.000 HD
ATOM     24  H   UNL     1      -8.429  12.591  24.764  0.00  0.00    +0.000 HD
ENDBRANCH  19  22
ENDBRANCH  14  16
ENDBRANCH   2  12
BRANCH   1  25
ATOM     25  S   UNL     1      -1.646  12.879  19.801  0.00  0.00    +0.000 S 
ATOM     26  O   UNL     1      -0.448  13.256  19.076  0.00  0.00    +0.000 OA
ATOM     27  O   UNL     1      -2.417  13.852  20.552  0.00  0.00    +0.000 OA
BRANCH  25  34
ATOM     28  C   UNL     1      -2.749  10.386  15.326  0.00  0.00    +0.000 C 
ATOM     29  C   UNL     1      -3.227  10.933  16.638  0.00  0.00    +0.000 A 
ATOM     30  C   UNL     1      -4.578  10.839  17.012  0.00  0.00    +0.000 A 
ATOM     31  C   UNL     1      -5.026  11.344  18.241  0.00  0.00    +0.000 A 
ATOM     32  C   UNL     1      -6.464  11.258  18.654  0.00  0.00    +0.000 C 
ATOM     33  C   UNL     1      -4.111  11.956  19.099  0.00  0.00    +0.000 A 
ATOM     34  C   UNL     1      -2.776  12.085  18.715  0.00  0.00    +0.000 A 
ATOM     35  C   UNL     1      -2.320  11.552  17.505  0.00  0.00    +0.000 A 
ENDBRANCH  25  34
ENDBRANCH   1  25
TORSDOF 5
ENDMDL
MODEL 3
REMARK VINA RESULT:      -8.1      9.606     11.806
REMARK  Name = 
REMARK  7 active torsions:
REMARK  status: ('A' for Active; 'I' for Inactive)
REMARK    1  A    between atoms: C_1  and  C_2
REMARK    2  A    between atoms: C_4  and  C_5
REMARK    3  A    between atoms: C_7  and  S_8
REMARK    4  A    between atoms: S_8  and  C_11
REMARK    5  A    between atoms: C_12  and  C_13
REMARK    6  A    between atoms: N_15  and  N_16
REMARK    7  A    between atoms: N_19  and  N_20
REMARK                            x       y       z     vdW  Elec       q    Type
REMARK                         _______ _______ _______ _____ _____    ______ ____
ROOT
ATOM      1  C   UNL     1       6.072   4.857  16.476  0.00  0.00    +0.000 A 
ATOM      2  C   UNL     1       7.077   5.766  16.814  0.00  0.00    +0.000 A 
ATOM      3  N   UNL     1       7.776   6.000  15.645  0.00  0.00    +0.000 N 
ATOM      4  C   UNL     1       7.271   5.283  14.592  0.00  0.00    +0.000 A 
ATOM      5  C   UNL     1       7.698   5.232  13.259  0.00  0.00    +0.000 A 
ATOM      6  C   UNL     1       7.011   4.376  12.394  0.00  0.00    +0.000 A 
ATOM      7  C   UNL     1       5.950   3.604  12.853  0.00  0.00    +0.000 A 
ATOM      8 CL   UNL     1       5.133   2.549  11.764  0.00  0.00    +0.000 Cl
ATOM      9  C   UNL     1       5.538   3.668  14.187  0.00  0.00    +0.000 A 
ATOM     10  C   UNL     1       6.206   4.533  15.083  0.00  0.00    +0.000 A 
ATOM     11  H   UNL     1       8.606   6.575  15.577  0.00  0.00    +0.000 HD
ENDROOT
BRANCH   2  12
ATOM     12  C   UNL     1       7.462   6.363  18.078  0.00  0.00    +0.000 C 
ATOM     13  O   UNL     1       7.236   5.868  19.176  0.00  0.00    +0.000 OA
ATOM     14  N   UNL     1       8.140   7.560  17.944  0.00  0.00    +0.000 N 
ATOM     15  H   UNL     1       8.262   8.052  17.062  0.00  0.00    +0.000 HD
BRANCH  14  16
ATOM     16  N   UNL     1       8.579   8.274  19.068  0.00  0.00    +0.000 N 
ATOM     17  C   UNL     1       8.892   9.602  18.871  0.00  0.00    +0.000 C 
ATOM     18  O   UNL     1       8.850  10.128  17.757  0.00  0.00    +0.000 OA
ATOM     19  N   UNL     1       9.316  10.259  20.014  0.00  0.00    +0.000 N 
ATOM     20  H   UNL     1       8.484   7.831  19.977  0.00  0.00    +0.000 HD
ATOM     21  H   UNL     1       8.995   9.912  20.913  0.00  0.00    +0.000 HD
BRANCH  19  22
ATOM     22  N   UNL     1       9.631  11.642  19.925  0.00  0.00    +0.000 NA
ATOM     23  H   UNL     1      10.311  11.747  19.157  0.00  0.00    +0.000 HD
ATOM     24  H   UNL     1      10.165  11.896  20.761  0.00  0.00    +0.000 HD
ENDBRANCH  19  22
ENDBRANCH  14  16
ENDBRANCH   2  12
BRANCH   1  25
ATOM     25  S   UNL     1       4.861   4.112  17.469  0.00  0.00    +0.000 S 
ATOM     26  O   UNL     1       5.636   3.462  18.507  0.00  0.00    +0.000 OA
ATOM     27  O   UNL     1       4.042   3.352  16.543  0.00  0.00    +0.000 OA
BRANCH  25  34
ATOM     28  C   UNL     1       2.768   8.916  17.553  0.00  0.00    +0.000 C 
ATOM     29  C   UNL     1       2.867   7.551  18.168  0.00  0.00    +0.000 A 
ATOM     30  C   UNL     1       2.140   7.225  19.325  0.00  0.00    +0.000 A 
ATOM     31  C   UNL     1       2.225   5.948  19.897  0.00  0.00    +0.000 A 
ATOM     32  C   UNL     1       1.461   5.583  21.135  0.00  0.00    +0.000 C 
ATOM     33  C   UNL     1       3.054   4.992  19.308  0.00  0.00    +0.000 A 
ATOM     34  C   UNL     1       3.807   5.324  18.181  0.00  0.00    +0.000 A 
ATOM     35  C   UNL     1       3.697   6.586  17.588  0.00  0.00    +0.000 A 
ENDBRANCH  25  34
ENDBRANCH   1  25
TORSDOF 5
ENDMDL
MODEL 4
REMARK VINA RESULT:      -8.0      9.613     11.750
REMARK  Name = 
REMARK  7 active torsions:
REMARK  status: ('A' for Active; 'I' for Inactive)
REMARK    1  A    between atoms: C_1  and  C_2
REMARK    2  A    between atoms: C_4  and  C_5
REMARK    3  A    between atoms: C_7  and  S_8
REMARK    4  A    between atoms: S_8  and  C_11
REMARK    5  A    between atoms: C_12  and  C_13
REMARK    6  A    between atoms: N_15  and  N_16
REMARK    7  A    between atoms: N_19  and  N_20
REMARK                            x       y       z     vdW  Elec       q    Type
REMARK                         _______ _______ _______ _____ _____    ______ ____
ROOT
ATOM      1  C   UNL     1       6.054   4.840  16.456  0.00  0.00    +0.000 A 
ATOM      2  C   UNL     1       7.061   5.743  16.799  0.00  0.00    +0.000 A 
ATOM      3  N   UNL     1       7.767   5.976  15.634  0.00  0.00    +0.000 N 
ATOM      4  C   UNL     1       7.263   5.263  14.578  0.00  0.00    +0.000 A 
ATOM      5  C   UNL     1       7.695   5.213  13.246  0.00  0.00    +0.000 A 
ATOM      6  C   UNL     1       7.009   4.362  12.377  0.00  0.00    +0.000 A 
ATOM      7  C   UNL     1       5.942   3.593  12.830  0.00  0.00    +0.000 A 
ATOM      8 CL   UNL     1       5.125   2.544  11.735  0.00  0.00    +0.000 Cl
ATOM      9  C   UNL     1       5.525   3.656  14.162  0.00  0.00    +0.000 A 
ATOM     10  C   UNL     1       6.193   4.517  15.063  0.00  0.00    +0.000 A 
ATOM     11  H   UNL     1       8.599   6.548  15.571  0.00  0.00    +0.000 HD
ENDROOT
BRANCH   2  12
ATOM     12  C   UNL     1       7.444   6.336  18.066  0.00  0.00    +0.000 C 
ATOM     13  O   UNL     1       7.203   5.845  19.162  0.00  0.00    +0.000 OA
ATOM     14  N   UNL     1       8.137   7.526  17.937  0.00  0.00    +0.000 N 
ATOM     15  H   UNL     1       8.272   8.016  17.055  0.00  0.00    +0.000 HD
BRANCH  14  16
ATOM     16  N   UNL     1       8.576   8.235  19.064  0.00  0.00    +0.000 N 
ATOM     17  C   UNL     1       8.881   9.565  18.874  0.00  0.00    +0.000 C 
ATOM     18  O   UNL     1       8.833  10.098  17.764  0.00  0.00    +0.000 OA
ATOM     19  N   UNL     1       9.305  10.218  20.020  0.00  0.00    +0.000 N 
ATOM     20  H   UNL     1       8.485   7.785  19.971  0.00  0.00    +0.000 HD
ATOM     21  H   UNL     1       8.988   9.864  20.918  0.00  0.00    +0.000 HD
BRANCH  19  22
ATOM     22  N   UNL     1       9.613  11.603  19.939  0.00  0.00    +0.000 NA
ATOM     23  H   UNL     1       9.757  11.936  20.904  0.00  0.00    +0.000 HD
ATOM     24  H   UNL     1       8.768  12.094  19.634  0.00  0.00    +0.000 HD
ENDBRANCH  19  22
ENDBRANCH  14  16
ENDBRANCH   2  12
BRANCH   1  25
ATOM     25  S   UNL     1       4.836   4.098  17.442  0.00  0.00    +0.000 S 
ATOM     26  O   UNL     1       5.604   3.428  18.472  0.00  0.00    +0.000 OA
ATOM     27  O   UNL     1       4.007   3.356  16.509  0.00  0.00    +0.000 OA
BRANCH  25  34
ATOM     28  C   UNL     1       1.455   5.655  21.130  0.00  0.00    +0.000 C 
ATOM     29  C   UNL     1       2.245   5.982  19.897  0.00  0.00    +0.000 A 
ATOM     30  C   UNL     1       2.156   7.248  19.295  0.00  0.00    +0.000 A 
ATOM     31  C   UNL     1       2.899   7.557  18.147  0.00  0.00    +0.000 A 
ATOM     32  C   UNL     1       2.812   8.900  17.487  0.00  0.00    +0.000 C 
ATOM     33  C   UNL     1       3.733   6.585  17.594  0.00  0.00    +0.000 A 
ATOM     34  C   UNL     1       3.796   5.315  18.168  0.00  0.00    +0.000 A 
ATOM     35  C   UNL     1       3.083   5.014  19.332  0.00  0.00    +0.000 A 
ENDBRANCH  25  34
ENDBRANCH   1  25
TORSDOF 5
ENDMDL
MODEL 5
REMARK VINA RESULT:      -7.7      2.847      4.359
REMARK  Name = 
REMARK  7 active torsions:
REMARK  status: ('A' for Active; 'I' for Inactive)
REMARK    1  A    between atoms: C_1  and  C_2
REMARK    2  A    between atoms: C_4  and  C_5
REMARK    3  A    between atoms: C_7  and  S_8
REMARK    4  A    between atoms: S_8  and  C_11
REMARK    5  A    between atoms: C_12  and  C_13
REMARK    6  A    between atoms: N_15  and  N_16
REMARK    7  A    between atoms: N_19  and  N_20
REMARK                            x       y       z     vdW  Elec       q    Type
REMARK                         _______ _______ _______ _____ _____    ______ ____
ROOT
ATOM      1  C   UNL     1       1.512   8.898  19.534  0.00  0.00    +0.000 A 
ATOM      2  C   UNL     1       0.967   8.420  20.727  0.00  0.00    +0.000 A 
ATOM      3  N   UNL     1       1.517   7.166  20.912  0.00  0.00    +0.000 N 
ATOM      4  C   UNL     1       2.372   6.825  19.898  0.00  0.00    +0.000 A 
ATOM      5  C   UNL     1       3.112   5.651  19.710  0.00  0.00    +0.000 A 
ATOM      6  C   UNL     1       3.887   5.555  18.551  0.00  0.00    +0.000 A 
ATOM      7  C   UNL     1       3.909   6.591  17.624  0.00  0.00    +0.000 A 
ATOM      8 CL   UNL     1       4.865   6.436  16.200  0.00  0.00    +0.000 Cl
ATOM      9  C   UNL     1       3.164   7.756  17.828  0.00  0.00    +0.000 A 
ATOM     10  C   UNL     1       2.379   7.886  18.997  0.00  0.00    +0.000 A 
ATOM     11  H   UNL     1       1.271   6.537  21.666  0.00  0.00    +0.000 HD
ENDROOT
BRANCH   2  12
ATOM     12  C   UNL     1      -0.017   8.976  21.636  0.00  0.00    +0.000 C 
ATOM     13  O   UNL     1      -0.960   8.349  22.104  0.00  0.00    +0.000 OA
ATOM     14  N   UNL     1       0.209  10.302  21.957  0.00  0.00    +0.000 N 
ATOM     15  H   UNL     1       0.919  10.883  21.518  0.00  0.00    +0.000 HD
BRANCH  14  16
ATOM     16  N   UNL     1      -0.652  10.995  22.820  0.00  0.00    +0.000 N 
ATOM     17  C   UNL     1      -0.660  12.369  22.709  0.00  0.00    +0.000 C 
ATOM     18  O   UNL     1       0.092  12.970  21.940  0.00  0.00    +0.000 OA
ATOM     19  N   UNL     1      -1.530  13.002  23.581  0.00  0.00    +0.000 N 
ATOM     20  H   UNL     1      -1.331  10.453  23.348  0.00  0.00    +0.000 HD
ATOM     21  H   UNL     1      -2.343  12.486  23.906  0.00  0.00    +0.000 HD
BRANCH  19  22
ATOM     22  N   UNL     1      -1.638  14.418  23.525  0.00  0.00    +0.000 NA
ATOM     23  H   UNL     1      -1.821  14.744  24.486  0.00  0.00    +0.000 HD
ATOM     24  H   UNL     1      -2.499  14.646  23.021  0.00  0.00    +0.000 HD
ENDBRANCH  19  22
ENDBRANCH  14  16
ENDBRANCH   2  12
BRANCH   1  25
ATOM     25  S   UNL     1       1.228  10.388  18.694  0.00  0.00    +0.000 S 
ATOM     26  O   UNL     1       1.975  10.224  17.462  0.00  0.00    +0.000 OA
ATOM     27  O   UNL     1       1.566  11.423  19.655  0.00  0.00    +0.000 OA
BRANCH  25  34
ATOM     28  C   UNL     1      -2.996   9.430  15.745  0.00  0.00    +0.000 C 
ATOM     29  C   UNL     1      -2.397  10.104  16.944  0.00  0.00    +0.000 A 
ATOM     30  C   UNL     1      -3.180  10.915  17.783  0.00  0.00    +0.000 A 
ATOM     31  C   UNL     1      -2.624  11.540  18.908  0.00  0.00    +0.000 A 
ATOM     32  C   UNL     1      -3.442  12.413  19.812  0.00  0.00    +0.000 C 
ATOM     33  C   UNL     1      -1.269  11.359  19.188  0.00  0.00    +0.000 A 
ATOM     34  C   UNL     1      -0.481  10.585  18.335  0.00  0.00    +0.000 A 
ATOM     35  C   UNL     1      -1.039   9.932  17.233  0.00  0.00    +0.000 A 
ENDBRANCH  25  34
ENDBRANCH   1  25
TORSDOF 5
ENDMDL
MODEL 6
REMARK VINA RESULT:      -7.7      1.854      2.502
REMARK  Name = 
REMARK  7 active torsions:
REMARK  status: ('A' for Active; 'I' for Inactive)
REMARK    1  A    between atoms: C_1  and  C_2
REMARK    2  A    between atoms: C_4  and  C_5
REMARK    3  A    between atoms: C_7  and  S_8
REMARK    4  A    between atoms: S_8  and  C_11
REMARK    5  A    between atoms: C_12  and  C_13
REMARK    6  A    between atoms: N_15  and  N_16
REMARK    7  A    between atoms: N_19  and  N_20
REMARK                            x       y       z     vdW  Elec       q    Type
REMARK                         _______ _______ _______ _____ _____    ______ ____
ROOT
ATOM      1  C   UNL     1      -0.819  11.504  20.809  0.00  0.00    +0.000 A 
ATOM      2  C   UNL     1      -1.108  11.391  22.170  0.00  0.00    +0.000 A 
ATOM      3  N   UNL     1      -0.420  10.275  22.605  0.00  0.00    +0.000 N 
ATOM      4  C   UNL     1       0.281   9.675  21.592  0.00  0.00    +0.000 A 
ATOM      5  C   UNL     1       1.086   8.529  21.618  0.00  0.00    +0.000 A 
ATOM      6  C   UNL     1       1.660   8.117  20.413  0.00  0.00    +0.000 A 
ATOM      7  C   UNL     1       1.428   8.822  19.237  0.00  0.00    +0.000 A 
ATOM      8 CL   UNL     1       2.141   8.279  17.766  0.00  0.00    +0.000 Cl
ATOM      9  C   UNL     1       0.622   9.964  19.230  0.00  0.00    +0.000 A 
ATOM     10  C   UNL     1       0.036  10.412  20.437  0.00  0.00    +0.000 A 
ATOM     11  H   UNL     1      -0.474   9.895  23.542  0.00  0.00    +0.000 HD
ENDROOT
BRANCH   2  12
ATOM     12  C   UNL     1      -1.973  12.157  23.046  0.00  0.00    +0.000 C 
ATOM     13  O   UNL     1      -3.055  11.767  23.467  0.00  0.00    +0.000 OA
ATOM     14  N   UNL     1      -1.457  13.393  23.394  0.00  0.00    +0.000 N 
ATOM     15  H   UNL     1      -0.614  13.794  22.991  0.00  0.00    +0.000 HD
BRANCH  14  16
ATOM     16  N   UNL     1      -2.169  14.265  24.231  0.00  0.00    +0.000 N 
ATOM     17  C   UNL     1      -1.467  15.335  24.743  0.00  0.00    +0.000 C 
ATOM     18  O   UNL     1      -0.263  15.492  24.533  0.00  0.00    +0.000 OA
ATOM     19  N   UNL     1      -2.218  16.165  25.559  0.00  0.00    +0.000 N 
ATOM     20  H   UNL     1      -3.178  14.158  24.277  0.00  0.00    +0.000 HD
ATOM     21  H   UNL     1      -3.222  16.205  25.408  0.00  0.00    +0.000 HD
BRANCH  19  22
ATOM     22  N   UNL     1      -1.597  17.318  26.112  0.00  0.00    +0.000 NA
ATOM     23  H   UNL     1      -0.716  17.005  26.546  0.00  0.00    +0.000 HD
ATOM     24  H   UNL     1      -2.164  17.629  26.905  0.00  0.00    +0.000 HD
ENDBRANCH  19  22
ENDBRANCH  14  16
ENDBRANCH   2  12
BRANCH   1  25
ATOM     25  S   UNL     1      -1.380  12.657  19.641  0.00  0.00    +0.000 S 
ATOM     26  O   UNL     1      -0.190  12.951  18.866  0.00  0.00    +0.000 OA
ATOM     27  O   UNL     1      -2.048  13.680  20.424  0.00  0.00    +0.000 OA
BRANCH  25  34
ATOM     28  C   UNL     1      -6.334  11.255  18.668  0.00  0.00    +0.000 C 
ATOM     29  C   UNL     1      -4.909  11.328  18.204  0.00  0.00    +0.000 A 
ATOM     30  C   UNL     1      -4.530  10.817  16.952  0.00  0.00    +0.000 A 
ATOM     31  C   UNL     1      -3.200  10.890  16.514  0.00  0.00    +0.000 A 
ATOM     32  C   UNL     1      -2.775  10.345  15.183  0.00  0.00    +0.000 C 
ATOM     33  C   UNL     1      -2.241  11.473  17.343  0.00  0.00    +0.000 A 
ATOM     34  C   UNL     1      -2.607  11.947  18.603  0.00  0.00    +0.000 A 
ATOM     35  C   UNL     1      -3.939  11.907  19.029  0.00  0.00    +0.000 A 
ENDBRANCH  25  34
ENDBRANCH   1  25
TORSDOF 5
ENDMDL
MODEL 7
REMARK VINA RESULT:      -7.7      2.839      4.134
REMARK  Name = 
REMARK  7 active torsions:
REMARK  status: ('A' for Active; 'I' for Inactive)
REMARK    1  A    between atoms: C_1  and  C_2
REMARK    2  A    between atoms: C_4  and  C_5
REMARK    3  A    between atoms: C_7  and  S_8
REMARK    4  A    between atoms: S_8  and  C_11
REMARK    5  A    between atoms: C_12  and  C_13
REMARK    6  A    between atoms: N_15  and  N_16
REMARK    7  A    between atoms: N_19  and  N_20
REMARK                            x       y       z     vdW  Elec       q    Type
REMARK                         _______ _______ _______ _____ _____    ______ ____
ROOT
ATOM      1  C   UNL     1       1.472   8.896  19.536  0.00  0.00    +0.000 A 
ATOM      2  C   UNL     1       0.923   8.426  20.731  0.00  0.00    +0.000 A 
ATOM      3  N   UNL     1       1.468   7.172  20.925  0.00  0.00    +0.000 N 
ATOM      4  C   UNL     1       2.326   6.823  19.914  0.00  0.00    +0.000 A 
ATOM      5  C   UNL     1       3.064   5.646  19.735  0.00  0.00    +0.000 A 
ATOM      6  C   UNL     1       3.841   5.542  18.579  0.00  0.00    +0.000 A 
ATOM      7  C   UNL     1       3.869   6.573  17.646  0.00  0.00    +0.000 A 
ATOM      8 CL   UNL     1       4.828   6.408  16.225  0.00  0.00    +0.000 Cl
ATOM      9  C   UNL     1       3.126   7.741  17.842  0.00  0.00    +0.000 A 
ATOM     10  C   UNL     1       2.338   7.879  19.008  0.00  0.00    +0.000 A 
ATOM     11  H   UNL     1       1.219   6.547  21.681  0.00  0.00    +0.000 HD
ENDROOT
BRANCH   2  12
ATOM     12  C   UNL     1      -0.062   8.989  21.634  0.00  0.00    +0.000 C 
ATOM     13  O   UNL     1      -1.020   8.374  22.086  0.00  0.00    +0.000 OA
ATOM     14  N   UNL     1       0.181  10.309  21.970  0.00  0.00    +0.000 N 
ATOM     15  H   UNL     1       0.904  10.883  21.543  0.00  0.00    +0.000 HD
BRANCH  14  16
ATOM     16  N   UNL     1      -0.679  11.008  22.829  0.00  0.00    +0.000 N 
ATOM     17  C   UNL     1      -0.669  12.382  22.725  0.00  0.00    +0.000 C 
ATOM     18  O   UNL     1       0.095  12.978  21.965  0.00  0.00    +0.000 OA
ATOM     19  N   UNL     1      -1.539  13.021  23.594  0.00  0.00    +0.000 N 
ATOM     20  H   UNL     1      -1.368  10.471  23.349  0.00  0.00    +0.000 HD
ATOM     21  H   UNL     1      -2.361  12.513  23.909  0.00  0.00    +0.000 HD
BRANCH  19  22
ATOM     22  N   UNL     1      -1.630  14.438  23.544  0.00  0.00    +0.000 NA
ATOM     23  H   UNL     1      -2.510  14.700  24.014  0.00  0.00    +0.000 HD
ATOM     24  H   UNL     1      -1.783  14.708  22.569  0.00  0.00    +0.000 HD
ENDBRANCH  19  22
ENDBRANCH  14  16
ENDBRANCH   2  12
BRANCH   1  25
ATOM     25  S   UNL     1       1.194  10.382  18.688  0.00  0.00    +0.000 S 
ATOM     26  O   UNL     1       1.896  10.187  17.435  0.00  0.00    +0.000 OA
ATOM     27  O   UNL     1       1.586  11.420  19.625  0.00  0.00    +0.000 OA
BRANCH  25  34
ATOM     28  C   UNL     1      -3.451  12.491  19.887  0.00  0.00    +0.000 C 
ATOM     29  C   UNL     1      -2.636  11.619  18.977  0.00  0.00    +0.000 A 
ATOM     30  C   UNL     1      -3.228  10.964  17.884  0.00  0.00    +0.000 A 
ATOM     31  C   UNL     1      -2.467  10.155  17.028  0.00  0.00    +0.000 A 
ATOM     32  C   UNL     1      -3.081   9.442  15.861  0.00  0.00    +0.000 C 
ATOM     33  C   UNL     1      -1.103   9.995  17.276  0.00  0.00    +0.000 A 
ATOM     34  C   UNL     1      -0.520  10.614  18.382  0.00  0.00    +0.000 A 
ATOM     35  C   UNL     1      -1.268  11.450  19.217  0.00  0.00    +0.000 A 
ENDBRANCH  25  34
ENDBRANCH   1  25
TORSDOF 5
ENDMDL
MODEL 8
REMARK VINA RESULT:      -7.7      1.859      2.983
REMARK  Name = 
REMARK  7 active torsions:
REMARK  status: ('A' for Active; 'I' for Inactive)
REMARK    1  A    between atoms: C_1  and  C_2
REMARK    2  A    between atoms: C_4  and  C_5
REMARK    3  A    between atoms: C_7  and  S_8
REMARK    4  A    between atoms: S_8  and  C_11
REMARK    5  A    between atoms: C_12  and  C_13
REMARK    6  A    between atoms: N_15  and  N_16
REMARK    7  A    between atoms: N_19  and  N_20
REMARK                            x       y       z     vdW  Elec       q    Type
REMARK                         _______ _______ _______ _____ _____    ______ ____
ROOT
ATOM      1  C   UNL     1      -0.806  11.526  20.809  0.00  0.00    +0.000 A 
ATOM      2  C   UNL     1      -1.107  11.413  22.167  0.00  0.00    +0.000 A 
ATOM      3  N   UNL     1      -0.432  10.290  22.607  0.00  0.00    +0.000 N 
ATOM      4  C   UNL     1       0.271   9.686  21.598  0.00  0.00    +0.000 A 
ATOM      5  C   UNL     1       1.066   8.533  21.629  0.00  0.00    +0.000 A 
ATOM      6  C   UNL     1       1.646   8.118  20.428  0.00  0.00    +0.000 A 
ATOM      7  C   UNL     1       1.430   8.827  19.252  0.00  0.00    +0.000 A 
ATOM      8 CL   UNL     1       2.150   8.280  17.785  0.00  0.00    +0.000 Cl
ATOM      9  C   UNL     1       0.634   9.976  19.240  0.00  0.00    +0.000 A 
ATOM     10  C   UNL     1       0.043  10.427  20.442  0.00  0.00    +0.000 A 
ATOM     11  H   UNL     1      -0.498   9.910  23.543  0.00  0.00    +0.000 HD
ENDROOT
BRANCH   2  12
ATOM     12  C   UNL     1      -1.972  12.186  23.038  0.00  0.00    +0.000 C 
ATOM     13  O   UNL     1      -3.064  11.808  23.444  0.00  0.00    +0.000 OA
ATOM     14  N   UNL     1      -1.445  13.412  23.399  0.00  0.00    +0.000 N 
ATOM     15  H   UNL     1      -0.591  13.805  23.009  0.00  0.00    +0.000 HD
BRANCH  14  16
ATOM     16  N   UNL     1      -2.154  14.289  24.233  0.00  0.00    +0.000 N 
ATOM     17  C   UNL     1      -1.446  15.347  24.759  0.00  0.00    +0.000 C 
ATOM     18  O   UNL     1      -0.238  15.491  24.563  0.00  0.00    +0.000 OA
ATOM     19  N   UNL     1      -2.195  16.182  25.570  0.00  0.00    +0.000 N 
ATOM     20  H   UNL     1      -3.166  14.195  24.266  0.00  0.00    +0.000 HD
ATOM     21  H   UNL     1      -3.197  16.236  25.408  0.00  0.00    +0.000 HD
BRANCH  19  22
ATOM     22  N   UNL     1      -1.567  17.324  26.136  0.00  0.00    +0.000 NA
ATOM     23  H   UNL     1      -0.671  17.450  25.642  0.00  0.00    +0.000 HD
ATOM     24  H   UNL     1      -1.287  17.087  27.092  0.00  0.00    +0.000 HD
ENDBRANCH  19  22
ENDBRANCH  14  16
ENDBRANCH   2  12
BRANCH   1  25
ATOM     25  S   UNL     1      -1.347  12.685  19.638  0.00  0.00    +0.000 S 
ATOM     26  O   UNL     1      -0.148  12.971  18.874  0.00  0.00    +0.000 OA
ATOM     27  O   UNL     1      -2.013  13.713  20.417  0.00  0.00    +0.000 OA
BRANCH  25  34
ATOM     28  C   UNL     1      -2.810  10.409  15.151  0.00  0.00    +0.000 C 
ATOM     29  C   UNL     1      -3.190  10.934  16.504  0.00  0.00    +0.000 A 
ATOM     30  C   UNL     1      -4.523  10.894  16.947  0.00  0.00    +0.000 A 
ATOM     31  C   UNL     1      -4.879  11.377  18.214  0.00  0.00    +0.000 A 
ATOM     32  C   UNL     1      -6.296  11.349  18.701  0.00  0.00    +0.000 C 
ATOM     33  C   UNL     1      -3.890  11.912  19.041  0.00  0.00    +0.000 A 
ATOM     34  C   UNL     1      -2.572  11.987  18.589  0.00  0.00    +0.000 A 
ATOM     35  C   UNL     1      -2.208  11.475  17.341  0.00  0.00    +0.000 A 
ENDBRANCH  25  34
ENDBRANCH   1  25
TORSDOF 5
ENDMDL
MODEL 9
REMARK VINA RESULT:      -7.7      1.725      2.513
REMARK  Name = 
REMARK  7 active torsions:
REMARK  status: ('A' for Active; 'I' for Inactive)
REMARK    1  A    between atoms: C_1  and  C_2
REMARK    2  A    between atoms: C_4  and  C_5
REMARK    3  A    between atoms: C_7  and  S_8
REMARK    4  A    between atoms: S_8  and  C_11
REMARK    5  A    between atoms: C_12  and  C_13
REMARK    6  A    between atoms: N_15  and  N_16
REMARK    7  A    between atoms: N_19  and  N_20
REMARK                            x       y       z     vdW  Elec       q    Type
REMARK                         _______ _______ _______ _____ _____    ______ ____
ROOT
ATOM      1  C   UNL     1      -1.674  11.900  21.526  0.00  0.00    +0.000 A 
ATOM      2  C   UNL     1      -2.054  11.738  22.860  0.00  0.00    +0.000 A 
ATOM      3  N   UNL     1      -1.301  10.682  23.337  0.00  0.00    +0.000 N 
ATOM      4  C   UNL     1      -0.474  10.165  22.374  0.00  0.00    +0.000 A 
ATOM      5  C   UNL     1       0.428   9.096  22.452  0.00  0.00    +0.000 A 
ATOM      6  C   UNL     1       1.127   8.757  21.290  0.00  0.00    +0.000 A 
ATOM      7  C   UNL     1       0.921   9.458  20.107  0.00  0.00    +0.000 A 
ATOM      8 CL   UNL     1       1.789   9.006  18.689  0.00  0.00    +0.000 Cl
ATOM      9  C   UNL     1       0.016  10.522  20.049  0.00  0.00    +0.000 A 
ATOM     10  C   UNL     1      -0.697  10.895  21.211  0.00  0.00    +0.000 A 
ATOM     11  H   UNL     1      -1.392  10.284  24.263  0.00  0.00    +0.000 HD
ENDROOT
BRANCH   2  12
ATOM     12  C   UNL     1      -3.048  12.409  23.675  0.00  0.00    +0.000 C 
ATOM     13  O   UNL     1      -4.086  11.891  24.068  0.00  0.00    +0.000 OA
ATOM     14  N   UNL     1      -2.716  13.712  23.998  0.00  0.00    +0.000 N 
ATOM     15  H   UNL     1      -1.916  14.210  23.613  0.00  0.00    +0.000 HD
BRANCH  14  16
ATOM     16  N   UNL     1      -3.571  14.507  24.775  0.00  0.00    +0.000 N 
ATOM     17  C   UNL     1      -3.801  15.788  24.322  0.00  0.00    +0.000 C 
ATOM     18  O   UNL     1      -3.242  16.242  23.323  0.00  0.00    +0.000 OA
ATOM     19  N   UNL     1      -4.655  16.526  25.125  0.00  0.00    +0.000 N 
ATOM     20  H   UNL     1      -4.095  14.052  25.518  0.00  0.00    +0.000 HD
ATOM     21  H   UNL     1      -5.338  16.026  25.687  0.00  0.00    +0.000 HD
BRANCH  19  22
ATOM     22  N   UNL     1      -4.985  17.851  24.729  0.00  0.00    +0.000 NA
ATOM     23  H   UNL     1      -4.397  18.075  23.911  0.00  0.00    +0.000 HD
ATOM     24  H   UNL     1      -4.648  18.488  25.455  0.00  0.00    +0.000 HD
ENDBRANCH  19  22
ENDBRANCH  14  16
ENDBRANCH   2  12
BRANCH   1  25
ATOM     25  S   UNL     1      -2.248  13.016  20.330  0.00  0.00    +0.000 S 
ATOM     26  O   UNL     1      -1.027  13.532  19.744  0.00  0.00    +0.000 OA
ATOM     27  O   UNL     1      -3.172  13.879  21.043  0.00  0.00    +0.000 OA
BRANCH  25  34
ATOM     28  C   UNL     1      -2.644  10.445  15.781  0.00  0.00    +0.000 C 
ATOM     29  C   UNL     1      -3.317  10.998  17.002  0.00  0.00    +0.000 A 
ATOM     30  C   UNL     1      -4.706  10.880  17.178  0.00  0.00    +0.000 A 
ATOM     31  C   UNL     1      -5.336  11.390  18.321  0.00  0.00    +0.000 A 
ATOM     32  C   UNL     1      -6.817  11.279  18.524  0.00  0.00    +0.000 C 
ATOM     33  C   UNL     1      -4.567  12.032  19.294  0.00  0.00    +0.000 A 
ATOM     34  C   UNL     1      -3.193  12.185  19.104  0.00  0.00    +0.000 A 
ATOM     35  C   UNL     1      -2.557  11.646  17.982  0.00  0.00    +0.000 A 
ENDBRANCH  25  34
ENDBRANCH   1  25
TORSDOF 5
ENDMDL
