MODEL 1
REMARK VINA RESULT:      -6.9      0.000      0.000
REMARK  Name = 
REMARK  5 active torsions:
REMARK  status: ('A' for Active; 'I' for Inactive)
REMARK    1  A    between atoms: C_1  and  C_2
REMARK    2  A    between atoms: C_2  and  C_3
REMARK    3  A    between atoms: C_2  and  C_4
REMARK    4  A    between atoms: C_4  and  C_5
REMARK    5  A    between atoms: C_5  and  N_6
REMARK                            x       y       z     vdW  Elec       q    Type
REMARK                         _______ _______ _______ _____ _____    ______ ____
ROOT
ATOM      1  N   UNL     1       6.187   4.151  14.988  0.00  0.00    +0.000 NA
ATOM      2  C   UNL     1       5.019   5.074  15.066  0.00  0.00    +0.000 C 
ATOM      3  C   UNL     1       5.394   6.518  15.458  0.00  0.00    +0.000 C 
ATOM      4  N   UNL     1       5.804   6.518  16.877  0.00  0.00    +0.000 N 
ATOM      5  C   UNL     1       4.638   6.543  17.678  0.00  0.00    +0.000 A 
ATOM      6  C   UNL     1       3.587   7.467  17.519  0.00  0.00    +0.000 A 
ATOM      7  C   UNL     1       2.341   7.299  18.138  0.00  0.00    +0.000 A 
ATOM      8  C   UNL     1       2.113   6.245  19.030  0.00  0.00    +0.000 A 
ATOM      9  C   UNL     1       3.185   5.396  19.279  0.00  0.00    +0.000 A 
ATOM     10  N   UNL     1       3.330   4.296  20.086  0.00  0.00    +0.000 N 
ATOM     11  C   UNL     1       4.568   3.718  19.897  0.00  0.00    +0.000 A 
ATOM     12  C   UNL     1       5.225   4.452  18.937  0.00  0.00    +0.000 A 
ATOM     13  C   UNL     1       4.399   5.541  18.618  0.00  0.00    +0.000 A 
ATOM     14  C   UNL     1       6.517   4.290  18.221  0.00  0.00    +0.000 C 
ATOM     15  C   UNL     1       6.849   5.406  17.153  0.00  0.00    +0.000 C 
ATOM     16  C   UNL     1       7.314   4.727  15.766  0.00  0.00    +0.000 C 
ATOM     17  H   UNL     1       2.615   3.940  20.706  0.00  0.00    +0.000 HD
ENDROOT
BRANCH   1  18
ATOM     18  C   UNL     1       6.372   3.819  13.572  0.00  0.00    +0.000 C 
BRANCH  18  19
ATOM     19  C   UNL     1       5.347   4.092  12.469  0.00  0.00    +0.000 C 
BRANCH  19  21
ATOM     20  C   UNL     1       3.697   3.299  10.674  0.00  0.00    +0.000 C 
ATOM     21  C   UNL     1       4.621   2.905  11.823  0.00  0.00    +0.000 C 
ATOM     22  C   UNL     1       5.670   1.907  11.306  0.00  0.00    +0.000 C 
ENDBRANCH  19  21
ENDBRANCH  18  19
ENDBRANCH   1  18
TORSDOF 3
ENDMDL
MODEL 2
REMARK VINA RESULT:      -6.8      1.400      1.489
REMARK  Name = 
REMARK  5 active torsions:
REMARK  status: ('A' for Active; 'I' for Inactive)
REMARK    1  A    between atoms: C_1  and  C_2
REMARK    2  A    between atoms: C_2  and  C_3
REMARK    3  A    between atoms: C_2  and  C_4
REMARK    4  A    between atoms: C_4  and  C_5
REMARK    5  A    between atoms: C_5  and  N_6
REMARK                            x       y       z     vdW  Elec       q    Type
REMARK                         _______ _______ _______ _____ _____    ______ ____
ROOT
ATOM      1  N   UNL     1       6.195   4.494  14.747  0.00  0.00    +0.000 NA
ATOM      2  C   UNL     1       5.480   5.772  15.033  0.00  0.00    +0.000 C 
ATOM      3  C   UNL     1       6.015   6.519  16.271  0.00  0.00    +0.000 C 
ATOM      4  N   UNL     1       5.635   5.749  17.473  0.00  0.00    +0.000 N 
ATOM      5  C   UNL     1       4.292   6.060  17.795  0.00  0.00    +0.000 A 
ATOM      6  C   UNL     1       3.793   7.369  17.930  0.00  0.00    +0.000 A 
ATOM      7  C   UNL     1       2.420   7.646  17.978  0.00  0.00    +0.000 A 
ATOM      8  C   UNL     1       1.475   6.614  17.994  0.00  0.00    +0.000 A 
ATOM      9  C   UNL     1       1.968   5.315  17.978  0.00  0.00    +0.000 A 
ATOM     10  N   UNL     1       1.355   4.089  18.000  0.00  0.00    +0.000 N 
ATOM     11  C   UNL     1       2.284   3.081  17.847  0.00  0.00    +0.000 A 
ATOM     12  C   UNL     1       3.518   3.673  17.708  0.00  0.00    +0.000 A 
ATOM     13  C   UNL     1       3.329   5.054  17.875  0.00  0.00    +0.000 A 
ATOM     14  C   UNL     1       4.880   3.160  17.405  0.00  0.00    +0.000 C 
ATOM     15  C   UNL     1       6.016   4.254  17.318  0.00  0.00    +0.000 C 
ATOM     16  C   UNL     1       6.890   4.041  15.979  0.00  0.00    +0.000 C 
ATOM     17  H   UNL     1       0.357   3.946  18.082  0.00  0.00    +0.000 HD
ENDROOT
BRANCH   1  18
ATOM     18  C   UNL     1       6.959   4.702  13.512  0.00  0.00    +0.000 C 
BRANCH  18  19
ATOM     19  C   UNL     1       6.744   3.926  12.211  0.00  0.00    +0.000 C 
BRANCH  19  21
ATOM     20  C   UNL     1       4.332   3.396  11.522  0.00  0.00    +0.000 C 
ATOM     21  C   UNL     1       5.624   2.879  12.150  0.00  0.00    +0.000 C 
ATOM     22  C   UNL     1       6.124   1.667  11.348  0.00  0.00    +0.000 C 
ENDBRANCH  19  21
ENDBRANCH  18  19
ENDBRANCH   1  18
TORSDOF 3
ENDMDL
MODEL 3
REMARK VINA RESULT:      -6.7      2.225      6.070
REMARK  Name = 
REMARK  5 active torsions:
REMARK  status: ('A' for Active; 'I' for Inactive)
REMARK    1  A    between atoms: C_1  and  C_2
REMARK    2  A    between atoms: C_2  and  C_3
REMARK    3  A    between atoms: C_2  and  C_4
REMARK    4  A    between atoms: C_4  and  C_5
REMARK    5  A    between atoms: C_5  and  N_6
REMARK                            x       y       z     vdW  Elec       q    Type
REMARK                         _______ _______ _______ _____ _____    ______ ____
ROOT
ATOM      1  N   UNL     1       2.984   5.193  19.024  0.00  0.00    +0.000 NA
ATOM      2  C   UNL     1       3.121   4.779  17.598  0.00  0.00    +0.000 C 
ATOM      3  C   UNL     1       3.735   3.376  17.414  0.00  0.00    +0.000 C 
ATOM      4  N   UNL     1       5.162   3.447  17.790  0.00  0.00    +0.000 N 
ATOM      5  C   UNL     1       5.887   3.970  16.692  0.00  0.00    +0.000 A 
ATOM      6  C   UNL     1       5.797   3.476  15.376  0.00  0.00    +0.000 A 
ATOM      7  C   UNL     1       6.309   4.177  14.276  0.00  0.00    +0.000 A 
ATOM      8  C   UNL     1       7.027   5.366  14.447  0.00  0.00    +0.000 A 
ATOM      9  C   UNL     1       7.218   5.797  15.755  0.00  0.00    +0.000 A 
ATOM     10  N   UNL     1       7.868   6.880  16.290  0.00  0.00    +0.000 N 
ATOM     11  C   UNL     1       7.673   6.934  17.654  0.00  0.00    +0.000 A 
ATOM     12  C   UNL     1       6.870   5.873  18.001  0.00  0.00    +0.000 A 
ATOM     13  C   UNL     1       6.659   5.122  16.833  0.00  0.00    +0.000 A 
ATOM     14  C   UNL     1       6.217   5.444  19.265  0.00  0.00    +0.000 C 
ATOM     15  C   UNL     1       5.341   4.133  19.169  0.00  0.00    +0.000 C 
ATOM     16  C   UNL     1       3.902   4.376  19.857  0.00  0.00    +0.000 C 
ATOM     17  H   UNL     1       8.386   7.562  15.753  0.00  0.00    +0.000 HD
ENDROOT
BRANCH   1  18
ATOM     18  C   UNL     1       1.548   5.213  19.324  0.00  0.00    +0.000 C 
BRANCH  18  19
ATOM     19  C   UNL     1       0.906   4.585  20.563  0.00  0.00    +0.000 C 
BRANCH  19  21
ATOM     20  C   UNL     1       0.794   2.405  19.216  0.00  0.00    +0.000 C 
ATOM     21  C   UNL     1       0.669   3.069  20.586  0.00  0.00    +0.000 C 
ATOM     22  C   UNL     1       1.679   2.426  21.550  0.00  0.00    +0.000 C 
ENDBRANCH  19  21
ENDBRANCH  18  19
ENDBRANCH   1  18
TORSDOF 3
ENDMDL
MODEL 4
REMARK VINA RESULT:      -6.7      1.311      1.559
REMARK  Name = 
REMARK  5 active torsions:
REMARK  status: ('A' for Active; 'I' for Inactive)
REMARK    1  A    between atoms: C_1  and  C_2
REMARK    2  A    between atoms: C_2  and  C_3
REMARK    3  A    between atoms: C_2  and  C_4
REMARK    4  A    between atoms: C_4  and  C_5
REMARK    5  A    between atoms: C_5  and  N_6
REMARK                            x       y       z     vdW  Elec       q    Type
REMARK                         _______ _______ _______ _____ _____    ______ ____
ROOT
ATOM      1  N   UNL     1       6.734   4.634  15.764  0.00  0.00    +0.000 NA
ATOM      2  C   UNL     1       5.283   4.929  15.590  0.00  0.00    +0.000 C 
ATOM      3  C   UNL     1       4.844   6.275  16.203  0.00  0.00    +0.000 C 
ATOM      4  N   UNL     1       4.896   6.148  17.674  0.00  0.00    +0.000 N 
ATOM      5  C   UNL     1       3.714   5.500  18.107  0.00  0.00    +0.000 A 
ATOM      6  C   UNL     1       2.414   5.897  17.741  0.00  0.00    +0.000 A 
ATOM      7  C   UNL     1       1.293   5.085  17.959  0.00  0.00    +0.000 A 
ATOM      8  C   UNL     1       1.403   3.872  18.648  0.00  0.00    +0.000 A 
ATOM      9  C   UNL     1       2.667   3.531  19.114  0.00  0.00    +0.000 A 
ATOM     10  N   UNL     1       3.136   2.455  19.824  0.00  0.00    +0.000 N 
ATOM     11  C   UNL     1       4.509   2.517  19.943  0.00  0.00    +0.000 A 
ATOM     12  C   UNL     1       4.932   3.647  19.284  0.00  0.00    +0.000 A 
ATOM     13  C   UNL     1       3.780   4.318  18.844  0.00  0.00    +0.000 A 
ATOM     14  C   UNL     1       6.268   4.209  18.954  0.00  0.00    +0.000 C 
ATOM     15  C   UNL     1       6.255   5.559  18.134  0.00  0.00    +0.000 C 
ATOM     16  C   UNL     1       7.266   5.456  16.881  0.00  0.00    +0.000 C 
ATOM     17  H   UNL     1       2.558   1.705  20.178  0.00  0.00    +0.000 HD
ENDROOT
BRANCH   1  18
ATOM     18  C   UNL     1       7.348   4.722  14.435  0.00  0.00    +0.000 C 
BRANCH  18  19
ATOM     19  C   UNL     1       6.579   4.681  13.113  0.00  0.00    +0.000 C 
BRANCH  19  21
ATOM     20  C   UNL     1       4.745   3.360  11.900  0.00  0.00    +0.000 C 
ATOM     21  C   UNL     1       6.118   3.323  12.566  0.00  0.00    +0.000 C 
ATOM     22  C   UNL     1       7.157   2.822  11.550  0.00  0.00    +0.000 C 
ENDBRANCH  19  21
ENDBRANCH  18  19
ENDBRANCH   1  18
TORSDOF 3
ENDMDL
MODEL 5
REMARK VINA RESULT:      -6.5      8.242     10.180
REMARK  Name = 
REMARK  5 active torsions:
REMARK  status: ('A' for Active; 'I' for Inactive)
REMARK    1  A    between atoms: C_1  and  C_2
REMARK    2  A    between atoms: C_2  and  C_3
REMARK    3  A    between atoms: C_2  and  C_4
REMARK    4  A    between atoms: C_4  and  C_5
REMARK    5  A    between atoms: C_5  and  N_6
REMARK                            x       y       z     vdW  Elec       q    Type
REMARK                         _______ _______ _______ _____ _____    ______ ____
ROOT
ATOM      1  N   UNL     1       9.071  10.708  19.102  0.00  0.00    +0.000 NA
ATOM      2  C   UNL     1      10.099  11.280  18.186  0.00  0.00    +0.000 C 
ATOM      3  C   UNL     1      11.435  11.612  18.882  0.00  0.00    +0.000 C 
ATOM      4  N   UNL     1      11.217  12.776  19.765  0.00  0.00    +0.000 N 
ATOM      5  C   UNL     1      11.270  13.950  18.977  0.00  0.00    +0.000 A 
ATOM      6  C   UNL     1      12.315  14.259  18.086  0.00  0.00    +0.000 A 
ATOM      7  C   UNL     1      12.208  15.280  17.131  0.00  0.00    +0.000 A 
ATOM      8  C   UNL     1      11.084  16.112  17.085  0.00  0.00    +0.000 A 
ATOM      9  C   UNL     1      10.100  15.884  18.039  0.00  0.00    +0.000 A 
ATOM     10  N   UNL     1       8.900  16.496  18.299  0.00  0.00    +0.000 N 
ATOM     11  C   UNL     1       8.219  15.821  19.290  0.00  0.00    +0.000 A 
ATOM     12  C   UNL     1       8.989  14.744  19.663  0.00  0.00    +0.000 A 
ATOM     13  C   UNL     1      10.192  14.835  18.945  0.00  0.00    +0.000 A 
ATOM     14  C   UNL     1       8.777  13.591  20.577  0.00  0.00    +0.000 C 
ATOM     15  C   UNL     1       9.973  12.563  20.667  0.00  0.00    +0.000 C 
ATOM     16  C   UNL     1       9.422  11.056  20.503  0.00  0.00    +0.000 C 
ATOM     17  H   UNL     1       8.551  17.308  17.808  0.00  0.00    +0.000 HD
ENDROOT
BRANCH   1  18
ATOM     18  C   UNL     1       8.897   9.303  18.720  0.00  0.00    +0.000 C 
BRANCH  18  19
ATOM     19  C   UNL     1       7.857   8.791  17.721  0.00  0.00    +0.000 C 
BRANCH  19  21
ATOM     20  C   UNL     1       7.949   6.488  18.845  0.00  0.00    +0.000 C 
ATOM     21  C   UNL     1       7.657   7.277  17.571  0.00  0.00    +0.000 C 
ATOM     22  C   UNL     1       6.206   7.012  17.137  0.00  0.00    +0.000 C 
ENDBRANCH  19  21
ENDBRANCH  18  19
ENDBRANCH   1  18
TORSDOF 3
ENDMDL
MODEL 6
REMARK VINA RESULT:      -6.5      2.954      5.525
REMARK  Name = 
REMARK  5 active torsions:
REMARK  status: ('A' for Active; 'I' for Inactive)
REMARK    1  A    between atoms: C_1  and  C_2
REMARK    2  A    between atoms: C_2  and  C_3
REMARK    3  A    between atoms: C_2  and  C_4
REMARK    4  A    between atoms: C_4  and  C_5
REMARK    5  A    between atoms: C_5  and  N_6
REMARK                            x       y       z     vdW  Elec       q    Type
REMARK                         _______ _______ _______ _____ _____    ______ ____
ROOT
ATOM      1  N   UNL     1       6.278   6.558  18.058  0.00  0.00    +0.000 NA
ATOM      2  C   UNL     1       6.177   5.072  18.119  0.00  0.00    +0.000 C 
ATOM      3  C   UNL     1       5.493   4.444  16.888  0.00  0.00    +0.000 C 
ATOM      4  N   UNL     1       4.058   4.791  16.932  0.00  0.00    +0.000 N 
ATOM      5  C   UNL     1       3.410   3.898  17.819  0.00  0.00    +0.000 A 
ATOM      6  C   UNL     1       3.526   2.496  17.755  0.00  0.00    +0.000 A 
ATOM      7  C   UNL     1       3.100   1.661  18.797  0.00  0.00    +0.000 A 
ATOM      8  C   UNL     1       2.444   2.181  19.918  0.00  0.00    +0.000 A 
ATOM      9  C   UNL     1       2.223   3.554  19.931  0.00  0.00    +0.000 A 
ATOM     10  N   UNL     1       1.614   4.387  20.833  0.00  0.00    +0.000 N 
ATOM     11  C   UNL     1       1.754   5.704  20.446  0.00  0.00    +0.000 A 
ATOM     12  C   UNL     1       2.482   5.717  19.279  0.00  0.00    +0.000 A 
ATOM     13  C   UNL     1       2.698   4.378  18.918  0.00  0.00    +0.000 A 
ATOM     14  C   UNL     1       3.057   6.796  18.434  0.00  0.00    +0.000 C 
ATOM     15  C   UNL     1       3.861   6.312  17.164  0.00  0.00    +0.000 C 
ATOM     16  C   UNL     1       5.282   7.073  17.084  0.00  0.00    +0.000 C 
ATOM     17  H   UNL     1       1.157   4.081  21.681  0.00  0.00    +0.000 HD
ENDROOT
BRANCH   1  18
ATOM     18  C   UNL     1       7.699   6.880  17.888  0.00  0.00    +0.000 C 
BRANCH  18  19
ATOM     19  C   UNL     1       8.489   7.843  18.778  0.00  0.00    +0.000 C 
BRANCH  19  21
ATOM     20  C   UNL     1       7.604   9.930  17.581  0.00  0.00    +0.000 C 
ATOM     21  C   UNL     1       8.794   9.253  18.255  0.00  0.00    +0.000 C 
ATOM     22  C   UNL     1       9.268  10.122  19.430  0.00  0.00    +0.000 C 
ENDBRANCH  19  21
ENDBRANCH  18  19
ENDBRANCH   1  18
TORSDOF 3
ENDMDL
MODEL 7
REMARK VINA RESULT:      -6.4      3.573      6.451
REMARK  Name = 
REMARK  5 active torsions:
REMARK  status: ('A' for Active; 'I' for Inactive)
REMARK    1  A    between atoms: C_1  and  C_2
REMARK    2  A    between atoms: C_2  and  C_3
REMARK    3  A    between atoms: C_2  and  C_4
REMARK    4  A    between atoms: C_4  and  C_5
REMARK    5  A    between atoms: C_5  and  N_6
REMARK                            x       y       z     vdW  Elec       q    Type
REMARK                         _______ _______ _______ _____ _____    ______ ____
ROOT
ATOM      1  N   UNL     1       2.179   7.674  17.693  0.00  0.00    +0.000 NA
ATOM      2  C   UNL     1       1.599   7.095  18.939  0.00  0.00    +0.000 C 
ATOM      3  C   UNL     1       2.617   6.948  20.089  0.00  0.00    +0.000 C 
ATOM      4  N   UNL     1       3.561   5.870  19.731  0.00  0.00    +0.000 N 
ATOM      5  C   UNL     1       2.954   4.627  20.034  0.00  0.00    +0.000 A 
ATOM      6  C   UNL     1       2.370   4.313  21.275  0.00  0.00    +0.000 A 
ATOM      7  C   UNL     1       1.547   3.193  21.454  0.00  0.00    +0.000 A 
ATOM      8  C   UNL     1       1.345   2.272  20.421  0.00  0.00    +0.000 A 
ATOM      9  C   UNL     1       2.014   2.517  19.227  0.00  0.00    +0.000 A 
ATOM     10  N   UNL     1       2.065   1.840  18.035  0.00  0.00    +0.000 N 
ATOM     11  C   UNL     1       2.784   2.557  17.103  0.00  0.00    +0.000 A 
ATOM     12  C   UNL     1       3.190   3.726  17.702  0.00  0.00    +0.000 A 
ATOM     13  C   UNL     1       2.783   3.659  19.045  0.00  0.00    +0.000 A 
ATOM     14  C   UNL     1       3.885   4.947  17.217  0.00  0.00    +0.000 C 
ATOM     15  C   UNL     1       4.121   6.073  18.299  0.00  0.00    +0.000 C 
ATOM     16  C   UNL     1       3.655   7.505  17.721  0.00  0.00    +0.000 C 
ATOM     17  H   UNL     1       1.608   0.955  17.857  0.00  0.00    +0.000 HD
ENDROOT
BRANCH   1  18
ATOM     18  C   UNL     1       1.601   9.013  17.538  0.00  0.00    +0.000 C 
BRANCH  18  19
ATOM     19  C   UNL     1       1.444  10.034  18.668  0.00  0.00    +0.000 C 
BRANCH  19  21
ATOM     20  C   UNL     1      -1.023  10.185  17.987  0.00  0.00    +0.000 C 
ATOM     21  C   UNL     1       0.036  10.522  19.033  0.00  0.00    +0.000 C 
ATOM     22  C   UNL     1      -0.368   9.900  20.379  0.00  0.00    +0.000 C 
ENDBRANCH  19  21
ENDBRANCH  18  19
ENDBRANCH   1  18
TORSDOF 3
ENDMDL
MODEL 8
REMARK VINA RESULT:      -6.3      1.606      2.460
REMARK  Name = 
REMARK  5 active torsions:
REMARK  status: ('A' for Active; 'I' for Inactive)
REMARK    1  A    between atoms: C_1  and  C_2
REMARK    2  A    between atoms: C_2  and  C_3
REMARK    3  A    between atoms: C_2  and  C_4
REMARK    4  A    between atoms: C_4  and  C_5
REMARK    5  A    between atoms: C_5  and  N_6
REMARK                            x       y       z     vdW  Elec       q    Type
REMARK                         _______ _______ _______ _____ _____    ______ ____
ROOT
ATOM      1  N   UNL     1       4.891   4.323  16.323  0.00  0.00    +0.000 NA
ATOM      2  C   UNL     1       4.107   5.496  16.808  0.00  0.00    +0.000 C 
ATOM      3  C   UNL     1       4.796   6.276  17.946  0.00  0.00    +0.000 C 
ATOM      4  N   UNL     1       4.764   5.439  19.162  0.00  0.00    +0.000 N 
ATOM      5  C   UNL     1       3.490   5.574  19.764  0.00  0.00    +0.000 A 
ATOM      6  C   UNL     1       2.880   6.808  20.058  0.00  0.00    +0.000 A 
ATOM      7  C   UNL     1       1.524   6.912  20.396  0.00  0.00    +0.000 A 
ATOM      8  C   UNL     1       0.729   5.772  20.554  0.00  0.00    +0.000 A 
ATOM      9  C   UNL     1       1.357   4.545  20.378  0.00  0.00    +0.000 A 
ATOM     10  N   UNL     1       0.908   3.251  20.466  0.00  0.00    +0.000 N 
ATOM     11  C   UNL     1       1.896   2.370  20.081  0.00  0.00    +0.000 A 
ATOM     12  C   UNL     1       2.997   3.113  19.723  0.00  0.00    +0.000 A 
ATOM     13  C   UNL     1       2.688   4.456  19.989  0.00  0.00    +0.000 A 
ATOM     14  C   UNL     1       4.317   2.778  19.127  0.00  0.00    +0.000 C 
ATOM     15  C   UNL     1       5.276   4.006  18.864  0.00  0.00    +0.000 C 
ATOM     16  C   UNL     1       5.873   3.932  17.367  0.00  0.00    +0.000 C 
ATOM     17  H   UNL     1      -0.028   2.985  20.741  0.00  0.00    +0.000 HD
ENDROOT
BRANCH   1  18
ATOM     18  C   UNL     1       5.354   4.651  14.971  0.00  0.00    +0.000 C 
BRANCH  18  19
ATOM     19  C   UNL     1       6.511   3.954  14.251  0.00  0.00    +0.000 C 
BRANCH  19  21
ATOM     20  C   UNL     1       4.884   3.622  12.297  0.00  0.00    +0.000 C 
ATOM     21  C   UNL     1       6.328   3.543  12.784  0.00  0.00    +0.000 C 
ATOM     22  C   UNL     1       7.206   4.449  11.905  0.00  0.00    +0.000 C 
ENDBRANCH  19  21
ENDBRANCH  18  19
ENDBRANCH   1  18
TORSDOF 3
ENDMDL
MODEL 9
REMARK VINA RESULT:      -6.2      3.016      5.337
REMARK  Name = 
REMARK  5 active torsions:
REMARK  status: ('A' for Active; 'I' for Inactive)
REMARK    1  A    between atoms: C_1  and  C_2
REMARK    2  A    between atoms: C_2  and  C_3
REMARK    3  A    between atoms: C_2  and  C_4
REMARK    4  A    between atoms: C_4  and  C_5
REMARK    5  A    between atoms: C_5  and  N_6
REMARK                            x       y       z     vdW  Elec       q    Type
REMARK                         _______ _______ _______ _____ _____    ______ ____
ROOT
ATOM      1  N   UNL     1       4.591   5.837  17.439  0.00  0.00    +0.000 NA
ATOM      2  C   UNL     1       4.720   5.418  18.865  0.00  0.00    +0.000 C 
ATOM      3  C   UNL     1       5.438   4.066  19.053  0.00  0.00    +0.000 C 
ATOM      4  N   UNL     1       4.543   2.998  18.562  0.00  0.00    +0.000 N 
ATOM      5  C   UNL     1       3.602   2.704  19.577  0.00  0.00    +0.000 A 
ATOM      6  C   UNL     1       3.941   2.420  20.914  0.00  0.00    +0.000 A 
ATOM      7  C   UNL     1       2.989   2.403  21.941  0.00  0.00    +0.000 A 
ATOM      8  C   UNL     1       1.627   2.572  21.667  0.00  0.00    +0.000 A 
ATOM      9  C   UNL     1       1.275   2.737  20.333  0.00  0.00    +0.000 A 
ATOM     10  N   UNL     1       0.067   2.909  19.706  0.00  0.00    +0.000 N 
ATOM     11  C   UNL     1       0.251   3.150  18.361  0.00  0.00    +0.000 A 
ATOM     12  C   UNL     1       1.606   3.147  18.121  0.00  0.00    +0.000 A 
ATOM     13  C   UNL     1       2.234   2.807  19.330  0.00  0.00    +0.000 A 
ATOM     14  C   UNL     1       2.443   3.449  16.931  0.00  0.00    +0.000 C 
ATOM     15  C   UNL     1       4.003   3.332  17.147  0.00  0.00    +0.000 C 
ATOM     16  C   UNL     1       4.743   4.644  16.568  0.00  0.00    +0.000 C 
ATOM     17  H   UNL     1      -0.830   2.897  20.173  0.00  0.00    +0.000 HD
ENDROOT
BRANCH   1  18
ATOM     18  C   UNL     1       5.474   6.993  17.254  0.00  0.00    +0.000 C 
BRANCH  18  19
ATOM     19  C   UNL     1       6.908   6.921  16.726  0.00  0.00    +0.000 C 
BRANCH  19  21
ATOM     20  C   UNL     1       7.918   8.959  17.911  0.00  0.00    +0.000 C 
ATOM     21  C   UNL     1       8.046   7.471  17.597  0.00  0.00    +0.000 C 
ATOM     22  C   UNL     1       8.084   6.680  18.915  0.00  0.00    +0.000 C 
ENDBRANCH  19  21
ENDBRANCH  18  19
ENDBRANCH   1  18
TORSDOF 3
ENDMDL
