MODEL 1
REMARK VINA RESULT:      -8.5      0.000      0.000
REMARK  Name = 
REMARK  4 active torsions:
REMARK  status: ('A' for Active; 'I' for Inactive)
REMARK    1  A    between atoms: C_2  and  C_3
REMARK    2  A    between atoms: C_13  and  C_14
REMARK    3  A    between atoms: N_16  and  N_17
REMARK    4  A    between atoms: C_18  and  C_19
REMARK                            x       y       z     vdW  Elec       q    Type
REMARK                         _______ _______ _______ _____ _____    ______ ____
ROOT
ATOM      1  C   UNL     1       2.220   3.264  20.323  0.00  0.00    +0.000 A 
ATOM      2  C   UNL     1       1.431   3.484  19.187  0.00  0.00    +0.000 A 
ATOM      3  C   UNL     1       1.986   4.048  18.029  0.00  0.00    +0.000 A 
ATOM      4  C   UNL     1       3.345   4.364  17.985  0.00  0.00    +0.000 A 
ATOM      5  C   UNL     1       4.135   4.097  19.125  0.00  0.00    +0.000 A 
ATOM      6  C   UNL     1       3.583   3.568  20.291  0.00  0.00    +0.000 A 
ATOM      7  N   UNL     1       5.525   4.273  19.039  0.00  0.00    +0.000 N 
ATOM      8  C   UNL     1       6.133   4.694  17.881  0.00  0.00    +0.000 C 
ATOM      9  O   UNL     1       7.275   4.361  17.586  0.00  0.00    +0.000 OA
ATOM     10  C   UNL     1       5.234   5.484  16.952  0.00  0.00    +0.000 C 
ATOM     11  C   UNL     1       5.721   6.572  16.322  0.00  0.00    +0.000 C 
ATOM     12  N   UNL     1       3.911   5.057  16.900  0.00  0.00    +0.000 N 
ATOM     13  H   UNL     1       6.139   3.861  19.727  0.00  0.00    +0.000 HD
ATOM     14  H   UNL     1       3.455   5.026  15.999  0.00  0.00    +0.000 HD
ENDROOT
BRANCH  11  15
ATOM     15  C   UNL     1       7.009   7.217  16.723  0.00  0.00    +0.000 C 
ATOM     16  O   UNL     1       8.089   6.813  16.301  0.00  0.00    +0.000 OA
ATOM     17  N   UNL     1       6.873   8.192  17.701  0.00  0.00    +0.000 N 
ATOM     18  H   UNL     1       5.982   8.435  18.112  0.00  0.00    +0.000 HD
BRANCH  17  19
ATOM     19  N   UNL     1       8.015   8.774  18.165  0.00  0.00    +0.000 NA
ATOM     20  C   UNL     1       8.119  10.062  18.128  0.00  0.00    +0.000 C 
BRANCH  20  21
ATOM     21  C   UNL     1       9.349  10.717  18.625  0.00  0.00    +0.000 A 
ATOM     22  C   UNL     1      10.362  11.096  17.735  0.00  0.00    +0.000 A 
ATOM     23  C   UNL     1      11.532  11.689  18.209  0.00  0.00    +0.000 A 
ATOM     24  C   UNL     1      11.690  11.903  19.578  0.00  0.00    +0.000 A 
ATOM     25  C   UNL     1      10.681  11.536  20.467  0.00  0.00    +0.000 A 
ATOM     26  C   UNL     1       9.507  10.942  19.997  0.00  0.00    +0.000 A 
ENDBRANCH  20  21
ENDBRANCH  17  19
ENDBRANCH  11  15
BRANCH   1  28
ATOM     27  N   UNL     1       1.160   2.268  22.479  0.00  0.00    +0.000 NA
ATOM     28  C   UNL     1       1.635   2.719  21.514  0.00  0.00    +0.000 C 
ENDBRANCH   1  28
TORSDOF 4
ENDMDL
MODEL 2
REMARK VINA RESULT:      -8.3      0.377      1.038
REMARK  Name = 
REMARK  4 active torsions:
REMARK  status: ('A' for Active; 'I' for Inactive)
REMARK    1  A    between atoms: C_2  and  C_3
REMARK    2  A    between atoms: C_13  and  C_14
REMARK    3  A    between atoms: N_16  and  N_17
REMARK    4  A    between atoms: C_18  and  C_19
REMARK                            x       y       z     vdW  Elec       q    Type
REMARK                         _______ _______ _______ _____ _____    ______ ____
ROOT
ATOM      1  C   UNL     1       2.337   2.995  20.236  0.00  0.00    +0.000 A 
ATOM      2  C   UNL     1       1.629   3.035  19.028  0.00  0.00    +0.000 A 
ATOM      3  C   UNL     1       2.234   3.522  17.860  0.00  0.00    +0.000 A 
ATOM      4  C   UNL     1       3.566   3.940  17.881  0.00  0.00    +0.000 A 
ATOM      5  C   UNL     1       4.279   3.853  19.098  0.00  0.00    +0.000 A 
ATOM      6  C   UNL     1       3.673   3.403  20.270  0.00  0.00    +0.000 A 
ATOM      7  N   UNL     1       5.655   4.131  19.095  0.00  0.00    +0.000 N 
ATOM      8  C   UNL     1       6.322   4.480  17.947  0.00  0.00    +0.000 C 
ATOM      9  O   UNL     1       7.506   4.211  17.773  0.00  0.00    +0.000 OA
ATOM     10  C   UNL     1       5.447   5.097  16.875  0.00  0.00    +0.000 C 
ATOM     11  C   UNL     1       5.904   6.151  16.170  0.00  0.00    +0.000 C 
ATOM     12  N   UNL     1       4.167   4.562  16.772  0.00  0.00    +0.000 N 
ATOM     13  H   UNL     1       6.239   3.841  19.866  0.00  0.00    +0.000 HD
ATOM     14  H   UNL     1       3.789   4.403  15.849  0.00  0.00    +0.000 HD
ENDROOT
BRANCH  11  15
ATOM     15  C   UNL     1       7.105   6.934  16.592  0.00  0.00    +0.000 C 
ATOM     16  O   UNL     1       8.188   6.804  16.029  0.00  0.00    +0.000 OA
ATOM     17  N   UNL     1       6.913   7.690  17.740  0.00  0.00    +0.000 N 
ATOM     18  H   UNL     1       6.040   7.698  18.251  0.00  0.00    +0.000 HD
BRANCH  17  19
ATOM     19  N   UNL     1       7.987   8.375  18.224  0.00  0.00    +0.000 NA
ATOM     20  C   UNL     1       8.044   9.654  18.045  0.00  0.00    +0.000 C 
BRANCH  20  21
ATOM     21  C   UNL     1       9.201  10.420  18.560  0.00  0.00    +0.000 A 
ATOM     22  C   UNL     1       9.351  10.641  19.935  0.00  0.00    +0.000 A 
ATOM     23  C   UNL     1      10.427  11.386  20.416  0.00  0.00    +0.000 A 
ATOM     24  C   UNL     1      11.357  11.912  19.520  0.00  0.00    +0.000 A 
ATOM     25  C   UNL     1      11.217  11.687  18.151  0.00  0.00    +0.000 A 
ATOM     26  C   UNL     1      10.140  10.941  17.664  0.00  0.00    +0.000 A 
ENDBRANCH  20  21
ENDBRANCH  17  19
ENDBRANCH  11  15
BRANCH   1  28
ATOM     27  N   UNL     1       1.174   2.144  22.400  0.00  0.00    +0.000 NA
ATOM     28  C   UNL     1       1.699   2.528  21.432  0.00  0.00    +0.000 C 
ENDBRANCH   1  28
TORSDOF 4
ENDMDL
MODEL 3
REMARK VINA RESULT:      -8.0      1.241      1.448
REMARK  Name = 
REMARK  4 active torsions:
REMARK  status: ('A' for Active; 'I' for Inactive)
REMARK    1  A    between atoms: C_2  and  C_3
REMARK    2  A    between atoms: C_13  and  C_14
REMARK    3  A    between atoms: N_16  and  N_17
REMARK    4  A    between atoms: C_18  and  C_19
REMARK                            x       y       z     vdW  Elec       q    Type
REMARK                         _______ _______ _______ _____ _____    ______ ____
ROOT
ATOM      1  C   UNL     1       2.460   2.654  20.346  0.00  0.00    +0.000 A 
ATOM      2  C   UNL     1       2.160   1.917  19.192  0.00  0.00    +0.000 A 
ATOM      3  C   UNL     1       2.931   2.062  18.030  0.00  0.00    +0.000 A 
ATOM      4  C   UNL     1       4.033   2.919  18.022  0.00  0.00    +0.000 A 
ATOM      5  C   UNL     1       4.347   3.623  19.205  0.00  0.00    +0.000 A 
ATOM      6  C   UNL     1       3.564   3.510  20.354  0.00  0.00    +0.000 A 
ATOM      7  N   UNL     1       5.534   4.370  19.251  0.00  0.00    +0.000 N 
ATOM      8  C   UNL     1       6.394   4.433  18.182  0.00  0.00    +0.000 C 
ATOM      9  O   UNL     1       7.603   4.585  18.325  0.00  0.00    +0.000 OA
ATOM     10  C   UNL     1       5.746   4.167  16.839  0.00  0.00    +0.000 C 
ATOM     11  C   UNL     1       6.092   4.917  15.774  0.00  0.00    +0.000 C 
ATOM     12  N   UNL     1       4.747   3.199  16.843  0.00  0.00    +0.000 N 
ATOM     13  H   UNL     1       5.918   4.672  20.135  0.00  0.00    +0.000 HD
ATOM     14  H   UNL     1       4.718   2.540  16.077  0.00  0.00    +0.000 HD
ENDROOT
BRANCH  11  15
ATOM     15  C   UNL     1       6.857   6.194  15.912  0.00  0.00    +0.000 C 
ATOM     16  O   UNL     1       7.957   6.344  15.388  0.00  0.00    +0.000 OA
ATOM     17  N   UNL     1       6.280   7.108  16.782  0.00  0.00    +0.000 N 
ATOM     18  H   UNL     1       5.425   6.919  17.287  0.00  0.00    +0.000 HD
BRANCH  17  19
ATOM     19  N   UNL     1       6.959   8.268  17.011  0.00  0.00    +0.000 NA
ATOM     20  C   UNL     1       7.735   8.345  18.042  0.00  0.00    +0.000 C 
BRANCH  20  21
ATOM     21  C   UNL     1       8.481   9.593  18.312  0.00  0.00    +0.000 A 
ATOM     22  C   UNL     1       8.352  10.697  17.458  0.00  0.00    +0.000 A 
ATOM     23  C   UNL     1       9.077  11.863  17.699  0.00  0.00    +0.000 A 
ATOM     24  C   UNL     1       9.935  11.928  18.797  0.00  0.00    +0.000 A 
ATOM     25  C   UNL     1      10.059  10.836  19.655  0.00  0.00    +0.000 A 
ATOM     26  C   UNL     1       9.335   9.664  19.418  0.00  0.00    +0.000 A 
ENDBRANCH  20  21
ENDBRANCH  17  19
ENDBRANCH  11  15
BRANCH   1  28
ATOM     27  N   UNL     1       0.976   2.415  22.467  0.00  0.00    +0.000 NA
ATOM     28  C   UNL     1       1.644   2.525  21.518  0.00  0.00    +0.000 C 
ENDBRANCH   1  28
TORSDOF 4
ENDMDL
MODEL 4
REMARK VINA RESULT:      -7.8      5.105      7.539
REMARK  Name = 
REMARK  4 active torsions:
REMARK  status: ('A' for Active; 'I' for Inactive)
REMARK    1  A    between atoms: C_2  and  C_3
REMARK    2  A    between atoms: C_13  and  C_14
REMARK    3  A    between atoms: N_16  and  N_17
REMARK    4  A    between atoms: C_18  and  C_19
REMARK                            x       y       z     vdW  Elec       q    Type
REMARK                         _______ _______ _______ _____ _____    ______ ____
ROOT
ATOM      1  C   UNL     1      -0.597  10.618  20.290  0.00  0.00    +0.000 A 
ATOM      2  C   UNL     1      -0.446   9.981  21.529  0.00  0.00    +0.000 A 
ATOM      3  C   UNL     1       0.424   8.890  21.672  0.00  0.00    +0.000 A 
ATOM      4  C   UNL     1       1.179   8.448  20.584  0.00  0.00    +0.000 A 
ATOM      5  C   UNL     1       1.046   9.127  19.352  0.00  0.00    +0.000 A 
ATOM      6  C   UNL     1       0.158  10.190  19.195  0.00  0.00    +0.000 A 
ATOM      7  N   UNL     1       1.906   8.785  18.297  0.00  0.00    +0.000 N 
ATOM      8  C   UNL     1       2.869   7.815  18.431  0.00  0.00    +0.000 C 
ATOM      9  O   UNL     1       3.923   7.851  17.805  0.00  0.00    +0.000 OA
ATOM     10  C   UNL     1       2.577   6.785  19.503  0.00  0.00    +0.000 C 
ATOM     11  C   UNL     1       2.841   5.485  19.264  0.00  0.00    +0.000 C 
ATOM     12  N   UNL     1       1.955   7.277  20.645  0.00  0.00    +0.000 N 
ATOM     13  H   UNL     1       2.017   9.402  17.505  0.00  0.00    +0.000 HD
ATOM     14  H   UNL     1       2.268   6.936  21.543  0.00  0.00    +0.000 HD
ENDROOT
BRANCH  11  15
ATOM     15  C   UNL     1       3.122   4.966  17.890  0.00  0.00    +0.000 C 
ATOM     16  O   UNL     1       2.271   4.362  17.244  0.00  0.00    +0.000 OA
ATOM     17  N   UNL     1       4.444   5.107  17.492  0.00  0.00    +0.000 N 
ATOM     18  H   UNL     1       5.155   5.513  18.086  0.00  0.00    +0.000 HD
BRANCH  17  19
ATOM     19  N   UNL     1       4.789   4.592  16.278  0.00  0.00    +0.000 NA
ATOM     20  C   UNL     1       5.725   5.170  15.598  0.00  0.00    +0.000 C 
BRANCH  20  21
ATOM     21  C   UNL     1       6.116   4.631  14.276  0.00  0.00    +0.000 A 
ATOM     22  C   UNL     1       7.290   5.069  13.650  0.00  0.00    +0.000 A 
ATOM     23  C   UNL     1       7.643   4.579  12.393  0.00  0.00    +0.000 A 
ATOM     24  C   UNL     1       6.819   3.649  11.759  0.00  0.00    +0.000 A 
ATOM     25  C   UNL     1       5.655   3.203  12.383  0.00  0.00    +0.000 A 
ATOM     26  C   UNL     1       5.297   3.691  13.643  0.00  0.00    +0.000 A 
ENDBRANCH  20  21
ENDBRANCH  17  19
ENDBRANCH  11  15
BRANCH   1  28
ATOM     27  N   UNL     1      -2.259  12.600  20.037  0.00  0.00    +0.000 NA
ATOM     28  C   UNL     1      -1.515  11.709  20.146  0.00  0.00    +0.000 C 
ENDBRANCH   1  28
TORSDOF 4
ENDMDL
MODEL 5
REMARK VINA RESULT:      -7.8      4.983      7.499
REMARK  Name = 
REMARK  4 active torsions:
REMARK  status: ('A' for Active; 'I' for Inactive)
REMARK    1  A    between atoms: C_2  and  C_3
REMARK    2  A    between atoms: C_13  and  C_14
REMARK    3  A    between atoms: N_16  and  N_17
REMARK    4  A    between atoms: C_18  and  C_19
REMARK                            x       y       z     vdW  Elec       q    Type
REMARK                         _______ _______ _______ _____ _____    ______ ____
ROOT
ATOM      1  C   UNL     1      -0.299  10.314  20.012  0.00  0.00    +0.000 A 
ATOM      2  C   UNL     1      -0.184   9.699  21.266  0.00  0.00    +0.000 A 
ATOM      3  C   UNL     1       0.682   8.612  21.453  0.00  0.00    +0.000 A 
ATOM      4  C   UNL     1       1.469   8.152  20.396  0.00  0.00    +0.000 A 
ATOM      5  C   UNL     1       1.372   8.810  19.149  0.00  0.00    +0.000 A 
ATOM      6  C   UNL     1       0.488   9.869  18.947  0.00  0.00    +0.000 A 
ATOM      7  N   UNL     1       2.264   8.450  18.126  0.00  0.00    +0.000 N 
ATOM      8  C   UNL     1       3.223   7.484  18.306  0.00  0.00    +0.000 C 
ATOM      9  O   UNL     1       4.295   7.510  17.710  0.00  0.00    +0.000 OA
ATOM     10  C   UNL     1       2.900   6.472  19.386  0.00  0.00    +0.000 C 
ATOM     11  C   UNL     1       3.171   5.169  19.178  0.00  0.00    +0.000 C 
ATOM     12  N   UNL     1       2.244   6.983  20.501  0.00  0.00    +0.000 N 
ATOM     13  H   UNL     1       2.398   9.053  17.327  0.00  0.00    +0.000 HD
ATOM     14  H   UNL     1       2.530   6.658  21.413  0.00  0.00    +0.000 HD
ENDROOT
BRANCH  11  15
ATOM     15  C   UNL     1       3.494   4.626  17.822  0.00  0.00    +0.000 C 
ATOM     16  O   UNL     1       2.664   4.007  17.164  0.00  0.00    +0.000 OA
ATOM     17  N   UNL     1       4.826   4.766  17.459  0.00  0.00    +0.000 N 
ATOM     18  H   UNL     1       5.518   5.186  18.065  0.00  0.00    +0.000 HD
BRANCH  17  19
ATOM     19  N   UNL     1       5.207   4.231  16.265  0.00  0.00    +0.000 NA
ATOM     20  C   UNL     1       5.527   5.027  15.297  0.00  0.00    +0.000 C 
BRANCH  20  21
ATOM     21  C   UNL     1       5.943   4.470  13.991  0.00  0.00    +0.000 A 
ATOM     22  C   UNL     1       5.131   3.544  13.323  0.00  0.00    +0.000 A 
ATOM     23  C   UNL     1       5.537   3.000  12.105  0.00  0.00    +0.000 A 
ATOM     24  C   UNL     1       6.759   3.384  11.552  0.00  0.00    +0.000 A 
ATOM     25  C   UNL     1       7.565   4.312  12.208  0.00  0.00    +0.000 A 
ATOM     26  C   UNL     1       7.163   4.860  13.429  0.00  0.00    +0.000 A 
ENDBRANCH  20  21
ENDBRANCH  17  19
ENDBRANCH  11  15
BRANCH   1  28
ATOM     27  N   UNL     1      -1.952  12.292  19.673  0.00  0.00    +0.000 NA
ATOM     28  C   UNL     1      -1.213  11.402  19.822  0.00  0.00    +0.000 C 
ENDBRANCH   1  28
TORSDOF 4
ENDMDL
MODEL 6
REMARK VINA RESULT:      -7.5      7.662      9.432
REMARK  Name = 
REMARK  4 active torsions:
REMARK  status: ('A' for Active; 'I' for Inactive)
REMARK    1  A    between atoms: C_2  and  C_3
REMARK    2  A    between atoms: C_13  and  C_14
REMARK    3  A    between atoms: N_16  and  N_17
REMARK    4  A    between atoms: C_18  and  C_19
REMARK                            x       y       z     vdW  Elec       q    Type
REMARK                         _______ _______ _______ _____ _____    ______ ____
ROOT
ATOM      1  C   UNL     1       3.659   4.662  19.097  0.00  0.00    +0.000 A 
ATOM      2  C   UNL     1       4.236   5.287  17.984  0.00  0.00    +0.000 A 
ATOM      3  C   UNL     1       3.890   6.603  17.642  0.00  0.00    +0.000 A 
ATOM      4  C   UNL     1       2.988   7.318  18.432  0.00  0.00    +0.000 A 
ATOM      5  C   UNL     1       2.447   6.688  19.574  0.00  0.00    +0.000 A 
ATOM      6  C   UNL     1       2.761   5.369  19.900  0.00  0.00    +0.000 A 
ATOM      7  N   UNL     1       1.657   7.446  20.452  0.00  0.00    +0.000 N 
ATOM      8  C   UNL     1       1.401   8.777  20.233  0.00  0.00    +0.000 C 
ATOM      9  O   UNL     1       1.212   9.566  21.153  0.00  0.00    +0.000 OA
ATOM     10  C   UNL     1       1.503   9.205  18.783  0.00  0.00    +0.000 C 
ATOM     11  C   UNL     1       0.592  10.060  18.277  0.00  0.00    +0.000 C 
ATOM     12  N   UNL     1       2.508   8.584  18.050  0.00  0.00    +0.000 N 
ATOM     13  H   UNL     1       1.467   7.115  21.388  0.00  0.00    +0.000 HD
ATOM     14  H   UNL     1       3.051   9.148  17.412  0.00  0.00    +0.000 HD
ENDROOT
BRANCH  11  15
ATOM     15  C   UNL     1      -0.688  10.373  18.983  0.00  0.00    +0.000 C 
ATOM     16  O   UNL     1      -1.716   9.739  18.764  0.00  0.00    +0.000 OA
ATOM     17  N   UNL     1      -0.633  11.510  19.778  0.00  0.00    +0.000 N 
ATOM     18  H   UNL     1       0.198  12.081  19.860  0.00  0.00    +0.000 HD
BRANCH  17  19
ATOM     19  N   UNL     1      -1.784  11.896  20.397  0.00  0.00    +0.000 NA
ATOM     20  C   UNL     1      -1.791  12.013  21.684  0.00  0.00    +0.000 C 
BRANCH  20  21
ATOM     21  C   UNL     1      -3.029  12.430  22.379  0.00  0.00    +0.000 A 
ATOM     22  C   UNL     1      -4.080  13.022  21.665  0.00  0.00    +0.000 A 
ATOM     23  C   UNL     1      -5.235  13.438  22.326  0.00  0.00    +0.000 A 
ATOM     24  C   UNL     1      -5.341  13.263  23.706  0.00  0.00    +0.000 A 
ATOM     25  C   UNL     1      -4.302  12.666  24.419  0.00  0.00    +0.000 A 
ATOM     26  C   UNL     1      -3.143  12.247  23.761  0.00  0.00    +0.000 A 
ENDBRANCH  20  21
ENDBRANCH  17  19
ENDBRANCH  11  15
BRANCH   1  28
ATOM     27  N   UNL     1       4.260   2.202  19.685  0.00  0.00    +0.000 NA
ATOM     28  C   UNL     1       3.993   3.305  19.417  0.00  0.00    +0.000 C 
ENDBRANCH   1  28
TORSDOF 4
ENDMDL
MODEL 7
REMARK VINA RESULT:      -7.5      7.572      8.842
REMARK  Name = 
REMARK  4 active torsions:
REMARK  status: ('A' for Active; 'I' for Inactive)
REMARK    1  A    between atoms: C_2  and  C_3
REMARK    2  A    between atoms: C_13  and  C_14
REMARK    3  A    between atoms: N_16  and  N_17
REMARK    4  A    between atoms: C_18  and  C_19
REMARK                            x       y       z     vdW  Elec       q    Type
REMARK                         _______ _______ _______ _____ _____    ______ ____
ROOT
ATOM      1  C   UNL     1       3.283   3.922  18.487  0.00  0.00    +0.000 A 
ATOM      2  C   UNL     1       3.918   4.642  17.466  0.00  0.00    +0.000 A 
ATOM      3  C   UNL     1       3.780   6.035  17.380  0.00  0.00    +0.000 A 
ATOM      4  C   UNL     1       3.035   6.726  18.337  0.00  0.00    +0.000 A 
ATOM      5  C   UNL     1       2.436   5.991  19.384  0.00  0.00    +0.000 A 
ATOM      6  C   UNL     1       2.540   4.602  19.456  0.00  0.00    +0.000 A 
ATOM      7  N   UNL     1       1.811   6.690  20.428  0.00  0.00    +0.000 N 
ATOM      8  C   UNL     1       1.769   8.062  20.459  0.00  0.00    +0.000 C 
ATOM      9  O   UNL     1       1.743   8.691  21.512  0.00  0.00    +0.000 OA
ATOM     10  C   UNL     1       1.891   8.725  19.102  0.00  0.00    +0.000 C 
ATOM     11  C   UNL     1       1.116   9.788  18.810  0.00  0.00    +0.000 C 
ATOM     12  N   UNL     1       2.756   8.099  18.211  0.00  0.00    +0.000 N 
ATOM     13  H   UNL     1       1.601   6.229  21.302  0.00  0.00    +0.000 HD
ATOM     14  H   UNL     1       3.362   8.679  17.648  0.00  0.00    +0.000 HD
ENDROOT
BRANCH  11  15
ATOM     15  C   UNL     1      -0.071  10.163  19.639  0.00  0.00    +0.000 C 
ATOM     16  O   UNL     1      -1.211   9.856  19.304  0.00  0.00    +0.000 OA
ATOM     17  N   UNL     1       0.227  10.991  20.712  0.00  0.00    +0.000 N 
ATOM     18  H   UNL     1       1.163  11.320  20.907  0.00  0.00    +0.000 HD
BRANCH  17  19
ATOM     19  N   UNL     1      -0.817  11.430  21.471  0.00  0.00    +0.000 NA
ATOM     20  C   UNL     1      -0.629  12.425  22.275  0.00  0.00    +0.000 C 
BRANCH  20  21
ATOM     21  C   UNL     1      -1.747  12.919  23.110  0.00  0.00    +0.000 A 
ATOM     22  C   UNL     1      -1.666  14.168  23.738  0.00  0.00    +0.000 A 
ATOM     23  C   UNL     1      -2.709  14.620  24.546  0.00  0.00    +0.000 A 
ATOM     24  C   UNL     1      -3.838  13.821  24.726  0.00  0.00    +0.000 A 
ATOM     25  C   UNL     1      -3.927  12.581  24.094  0.00  0.00    +0.000 A 
ATOM     26  C   UNL     1      -2.885  12.124  23.284  0.00  0.00    +0.000 A 
ENDBRANCH  20  21
ENDBRANCH  17  19
ENDBRANCH  11  15
BRANCH   1  28
ATOM     27  N   UNL     1       3.506   1.334  18.593  0.00  0.00    +0.000 NA
ATOM     28  C   UNL     1       3.401   2.494  18.546  0.00  0.00    +0.000 C 
ENDBRANCH   1  28
TORSDOF 4
ENDMDL
MODEL 8
REMARK VINA RESULT:      -7.4      6.883      8.525
REMARK  Name = 
REMARK  4 active torsions:
REMARK  status: ('A' for Active; 'I' for Inactive)
REMARK    1  A    between atoms: C_2  and  C_3
REMARK    2  A    between atoms: C_13  and  C_14
REMARK    3  A    between atoms: N_16  and  N_17
REMARK    4  A    between atoms: C_18  and  C_19
REMARK                            x       y       z     vdW  Elec       q    Type
REMARK                         _______ _______ _______ _____ _____    ______ ____
ROOT
ATOM      1  C   UNL     1       3.557   3.625  18.199  0.00  0.00    +0.000 A 
ATOM      2  C   UNL     1       4.415   4.247  17.283  0.00  0.00    +0.000 A 
ATOM      3  C   UNL     1       4.394   5.640  17.115  0.00  0.00    +0.000 A 
ATOM      4  C   UNL     1       3.538   6.426  17.887  0.00  0.00    +0.000 A 
ATOM      5  C   UNL     1       2.709   5.787  18.835  0.00  0.00    +0.000 A 
ATOM      6  C   UNL     1       2.701   4.401  18.984  0.00  0.00    +0.000 A 
ATOM      7  N   UNL     1       1.955   6.580  19.716  0.00  0.00    +0.000 N 
ATOM      8  C   UNL     1       2.005   7.952  19.681  0.00  0.00    +0.000 C 
ATOM      9  O   UNL     1       1.833   8.637  20.683  0.00  0.00    +0.000 OA
ATOM     10  C   UNL     1       2.417   8.530  18.343  0.00  0.00    +0.000 C 
ATOM     11  C   UNL     1       1.785   9.622  17.868  0.00  0.00    +0.000 C 
ATOM     12  N   UNL     1       3.384   7.805  17.654  0.00  0.00    +0.000 N 
ATOM     13  H   UNL     1       1.558   6.180  20.554  0.00  0.00    +0.000 HD
ATOM     14  H   UNL     1       4.121   8.315  17.189  0.00  0.00    +0.000 HD
ENDROOT
BRANCH  11  15
ATOM     15  C   UNL     1       0.497  10.114  18.446  0.00  0.00    +0.000 C 
ATOM     16  O   UNL     1      -0.588   9.751  18.000  0.00  0.00    +0.000 OA
ATOM     17  N   UNL     1       0.649  11.099  19.411  0.00  0.00    +0.000 N 
ATOM     18  H   UNL     1       1.553  11.460  19.688  0.00  0.00    +0.000 HD
BRANCH  17  19
ATOM     19  N   UNL     1      -0.486  11.644  19.933  0.00  0.00    +0.000 NA
ATOM     20  C   UNL     1      -0.776  11.417  21.172  0.00  0.00    +0.000 C 
BRANCH  20  21
ATOM     21  C   UNL     1      -2.004  11.997  21.760  0.00  0.00    +0.000 A 
ATOM     22  C   UNL     1      -2.928  12.673  20.951  0.00  0.00    +0.000 A 
ATOM     23  C   UNL     1      -4.071  13.242  21.511  0.00  0.00    +0.000 A 
ATOM     24  C   UNL     1      -4.292  13.135  22.884  0.00  0.00    +0.000 A 
ATOM     25  C   UNL     1      -3.381  12.456  23.691  0.00  0.00    +0.000 A 
ATOM     26  C   UNL     1      -2.233  11.884  23.135  0.00  0.00    +0.000 A 
ENDBRANCH  20  21
ENDBRANCH  17  19
ENDBRANCH  11  15
BRANCH   1  28
ATOM     27  N   UNL     1       3.572   1.038  18.458  0.00  0.00    +0.000 NA
ATOM     28  C   UNL     1       3.562   2.198  18.338  0.00  0.00    +0.000 C 
ENDBRANCH   1  28
TORSDOF 4
ENDMDL
MODEL 9
REMARK VINA RESULT:      -7.3      7.248      8.991
REMARK  Name = 
REMARK  4 active torsions:
REMARK  status: ('A' for Active; 'I' for Inactive)
REMARK    1  A    between atoms: C_2  and  C_3
REMARK    2  A    between atoms: C_13  and  C_14
REMARK    3  A    between atoms: N_16  and  N_17
REMARK    4  A    between atoms: C_18  and  C_19
REMARK                            x       y       z     vdW  Elec       q    Type
REMARK                         _______ _______ _______ _____ _____    ______ ____
ROOT
ATOM      1  C   UNL     1       3.425   4.022  18.459  0.00  0.00    +0.000 A 
ATOM      2  C   UNL     1       4.191   4.683  17.491  0.00  0.00    +0.000 A 
ATOM      3  C   UNL     1       4.069   6.068  17.305  0.00  0.00    +0.000 A 
ATOM      4  C   UNL     1       3.205   6.811  18.112  0.00  0.00    +0.000 A 
ATOM      5  C   UNL     1       2.471   6.135  19.112  0.00  0.00    +0.000 A 
ATOM      6  C   UNL     1       2.562   4.754  19.279  0.00  0.00    +0.000 A 
ATOM      7  N   UNL     1       1.715   6.891  20.021  0.00  0.00    +0.000 N 
ATOM      8  C   UNL     1       1.672   8.263  19.965  0.00  0.00    +0.000 C 
ATOM      9  O   UNL     1       1.509   8.952  20.967  0.00  0.00    +0.000 OA
ATOM     10  C   UNL     1       1.974   8.845  18.600  0.00  0.00    +0.000 C 
ATOM     11  C   UNL     1       1.247   9.885  18.145  0.00  0.00    +0.000 C 
ATOM     12  N   UNL     1       2.949   8.172  17.870  0.00  0.00    +0.000 N 
ATOM     13  H   UNL     1       1.389   6.481  20.885  0.00  0.00    +0.000 HD
ATOM     14  H   UNL     1       3.625   8.721  17.359  0.00  0.00    +0.000 HD
ENDROOT
BRANCH  11  15
ATOM     15  C   UNL     1      -0.038  10.302  18.786  0.00  0.00    +0.000 C 
ATOM     16  O   UNL     1      -1.113   9.820  18.441  0.00  0.00    +0.000 OA
ATOM     17  N   UNL     1       0.090  11.357  19.677  0.00  0.00    +0.000 N 
ATOM     18  H   UNL     1       0.974  11.811  19.866  0.00  0.00    +0.000 HD
BRANCH  17  19
ATOM     19  N   UNL     1      -1.052  11.836  20.246  0.00  0.00    +0.000 NA
ATOM     20  C   UNL     1      -1.232  11.674  21.516  0.00  0.00    +0.000 C 
BRANCH  20  21
ATOM     21  C   UNL     1      -2.465  12.185  22.157  0.00  0.00    +0.000 A 
ATOM     22  C   UNL     1      -2.666  12.031  23.535  0.00  0.00    +0.000 A 
ATOM     23  C   UNL     1      -3.840  12.489  24.132  0.00  0.00    +0.000 A 
ATOM     24  C   UNL     1      -4.817  13.103  23.349  0.00  0.00    +0.000 A 
ATOM     25  C   UNL     1      -4.618  13.266  21.979  0.00  0.00    +0.000 A 
ATOM     26  C   UNL     1      -3.443  12.809  21.375  0.00  0.00    +0.000 A 
ENDBRANCH  20  21
ENDBRANCH  17  19
ENDBRANCH  11  15
BRANCH   1  28
ATOM     27  N   UNL     1       3.609   1.444  18.744  0.00  0.00    +0.000 NA
ATOM     28  C   UNL     1       3.531   2.601  18.617  0.00  0.00    +0.000 C 
ENDBRANCH   1  28
TORSDOF 4
ENDMDL
