MODEL 1
REMARK VINA RESULT:      -6.2      0.000      0.000
REMARK  Name = 
REMARK  5 active torsions:
REMARK  status: ('A' for Active; 'I' for Inactive)
REMARK    1  A    between atoms: N_1  and  C_2
REMARK    2  A    between atoms: C_2  and  N_4
REMARK    3  A    between atoms: N_4  and  N_5
REMARK    4  A    between atoms: C_6  and  C_7
REMARK    5  A    between atoms: C_12  and  O_13
REMARK                            x       y       z     vdW  Elec       q    Type
REMARK                         _______ _______ _______ _____ _____    ______ ____
ROOT
ATOM      1  N   UNL     1       5.611   4.033  19.044  0.00  0.00    +0.000 NA
ATOM      2  C   UNL     1       4.590   3.956  18.249  0.00  0.00    +0.000 C 
ENDROOT
BRANCH   2   3
ATOM      3  C   UNL     1       3.241   3.687  18.789  0.00  0.00    +0.000 A 
ATOM      4  C   UNL     1       2.527   2.573  18.326  0.00  0.00    +0.000 A 
ATOM      5  C   UNL     1       1.266   2.284  18.846  0.00  0.00    +0.000 A 
ATOM      6  C   UNL     1       0.712   3.107  19.824  0.00  0.00    +0.000 A 
ATOM      7  C   UNL     1       1.414   4.225  20.283  0.00  0.00    +0.000 A 
ATOM      8  C   UNL     1       2.679   4.514  19.765  0.00  0.00    +0.000 A 
BRANCH   8   9
ATOM      9  O   UNL     1       3.365   5.603  20.223  0.00  0.00    +0.000 OA
ATOM     10  H   UNL     1       2.899   6.410  19.946  0.00  0.00    +0.000 HD
ENDBRANCH   8   9
ENDBRANCH   2   3
BRANCH   1  11
ATOM     11  N   UNL     1       6.808   4.313  18.455  0.00  0.00    +0.000 N 
ATOM     12  H   UNL     1       7.226   3.666  17.794  0.00  0.00    +0.000 HD
BRANCH  11  13
ATOM     13  C   UNL     1       7.442   5.498  18.714  0.00  0.00    +0.000 C 
ATOM     14  S   UNL     1       7.370   6.800  17.691  0.00  0.00    +0.000 S 
BRANCH  13  15
ATOM     15  N   UNL     1       8.138   5.534  19.878  0.00  0.00    +0.000 N 
ATOM     16  H   UNL     1       8.354   6.400  20.348  0.00  0.00    +0.000 HD
ATOM     17  H   UNL     1       8.419   4.641  20.263  0.00  0.00    +0.000 HD
ENDBRANCH  13  15
ENDBRANCH  11  13
ENDBRANCH   1  11
TORSDOF 5
ENDMDL
MODEL 2
REMARK VINA RESULT:      -6.2      1.584      1.810
REMARK  Name = 
REMARK  5 active torsions:
REMARK  status: ('A' for Active; 'I' for Inactive)
REMARK    1  A    between atoms: N_1  and  C_2
REMARK    2  A    between atoms: C_2  and  N_4
REMARK    3  A    between atoms: N_4  and  N_5
REMARK    4  A    between atoms: C_6  and  C_7
REMARK    5  A    between atoms: C_12  and  O_13
REMARK                            x       y       z     vdW  Elec       q    Type
REMARK                         _______ _______ _______ _____ _____    ______ ____
ROOT
ATOM      1  N   UNL     1       5.967   4.012  18.733  0.00  0.00    +0.000 NA
ATOM      2  C   UNL     1       5.067   3.971  17.802  0.00  0.00    +0.000 C 
ENDROOT
BRANCH   2   3
ATOM      3  C   UNL     1       3.683   3.556  18.118  0.00  0.00    +0.000 A 
ATOM      4  C   UNL     1       2.616   4.370  17.719  0.00  0.00    +0.000 A 
ATOM      5  C   UNL     1       1.302   3.980  17.979  0.00  0.00    +0.000 A 
ATOM      6  C   UNL     1       1.051   2.781  18.642  0.00  0.00    +0.000 A 
ATOM      7  C   UNL     1       2.112   1.968  19.051  0.00  0.00    +0.000 A 
ATOM      8  C   UNL     1       3.428   2.356  18.788  0.00  0.00    +0.000 A 
BRANCH   8   9
ATOM      9  O   UNL     1       4.462   1.555  19.182  0.00  0.00    +0.000 OA
ATOM     10  H   UNL     1       4.774   1.042  18.417  0.00  0.00    +0.000 HD
ENDBRANCH   8   9
ENDBRANCH   2   3
BRANCH   1  11
ATOM     11  N   UNL     1       7.205   4.435  18.349  0.00  0.00    +0.000 N 
ATOM     12  H   UNL     1       7.763   3.889  17.700  0.00  0.00    +0.000 HD
BRANCH  11  13
ATOM     13  C   UNL     1       7.696   5.630  18.803  0.00  0.00    +0.000 C 
ATOM     14  S   UNL     1       7.615   7.029  17.918  0.00  0.00    +0.000 S 
BRANCH  13  15
ATOM     15  N   UNL     1       8.254   5.590  20.038  0.00  0.00    +0.000 N 
ATOM     16  H   UNL     1       9.090   5.060  20.234  0.00  0.00    +0.000 HD
ATOM     17  H   UNL     1       7.796   6.135  20.757  0.00  0.00    +0.000 HD
ENDBRANCH  13  15
ENDBRANCH  11  13
ENDBRANCH   1  11
TORSDOF 5
ENDMDL
MODEL 3
REMARK VINA RESULT:      -6.1      1.366      1.994
REMARK  Name = 
REMARK  5 active torsions:
REMARK  status: ('A' for Active; 'I' for Inactive)
REMARK    1  A    between atoms: N_1  and  C_2
REMARK    2  A    between atoms: C_2  and  N_4
REMARK    3  A    between atoms: N_4  and  N_5
REMARK    4  A    between atoms: C_6  and  C_7
REMARK    5  A    between atoms: C_12  and  O_13
REMARK                            x       y       z     vdW  Elec       q    Type
REMARK                         _______ _______ _______ _____ _____    ______ ____
ROOT
ATOM      1  N   UNL     1       5.731   4.189  19.306  0.00  0.00    +0.000 NA
ATOM      2  C   UNL     1       4.616   4.849  19.302  0.00  0.00    +0.000 C 
ENDROOT
BRANCH   2   3
ATOM      3  C   UNL     1       3.325   4.136  19.409  0.00  0.00    +0.000 A 
ATOM      4  C   UNL     1       2.320   4.659  20.233  0.00  0.00    +0.000 A 
ATOM      5  C   UNL     1       1.084   4.019  20.324  0.00  0.00    +0.000 A 
ATOM      6  C   UNL     1       0.851   2.854  19.598  0.00  0.00    +0.000 A 
ATOM      7  C   UNL     1       1.852   2.321  18.781  0.00  0.00    +0.000 A 
ATOM      8  C   UNL     1       3.089   2.964  18.687  0.00  0.00    +0.000 A 
BRANCH   8   9
ATOM      9  O   UNL     1       4.063   2.444  17.881  0.00  0.00    +0.000 OA
ATOM     10  H   UNL     1       4.494   3.169  17.399  0.00  0.00    +0.000 HD
ENDBRANCH   8   9
ENDBRANCH   2   3
BRANCH   1  11
ATOM     11  N   UNL     1       6.869   4.937  19.232  0.00  0.00    +0.000 N 
ATOM     12  H   UNL     1       7.385   5.183  20.071  0.00  0.00    +0.000 HD
BRANCH  11  13
ATOM     13  C   UNL     1       7.357   5.329  18.015  0.00  0.00    +0.000 C 
ATOM     14  S   UNL     1       7.321   6.902  17.495  0.00  0.00    +0.000 S 
BRANCH  13  15
ATOM     15  N   UNL     1       7.881   4.332  17.258  0.00  0.00    +0.000 N 
ATOM     16  H   UNL     1       8.288   4.502  16.351  0.00  0.00    +0.000 HD
ATOM     17  H   UNL     1       7.856   3.402  17.658  0.00  0.00    +0.000 HD
ENDBRANCH  13  15
ENDBRANCH  11  13
ENDBRANCH   1  11
TORSDOF 5
ENDMDL
MODEL 4
REMARK VINA RESULT:      -6.1      1.348      1.844
REMARK  Name = 
REMARK  5 active torsions:
REMARK  status: ('A' for Active; 'I' for Inactive)
REMARK    1  A    between atoms: N_1  and  C_2
REMARK    2  A    between atoms: C_2  and  N_4
REMARK    3  A    between atoms: N_4  and  N_5
REMARK    4  A    between atoms: C_6  and  C_7
REMARK    5  A    between atoms: C_12  and  O_13
REMARK                            x       y       z     vdW  Elec       q    Type
REMARK                         _______ _______ _______ _____ _____    ______ ____
ROOT
ATOM      1  N   UNL     1       5.911   3.931  19.035  0.00  0.00    +0.000 NA
ATOM      2  C   UNL     1       4.800   4.546  18.778  0.00  0.00    +0.000 C 
ENDROOT
BRANCH   2   3
ATOM      3  C   UNL     1       3.545   4.129  19.440  0.00  0.00    +0.000 A 
ATOM      4  C   UNL     1       2.707   5.105  19.996  0.00  0.00    +0.000 A 
ATOM      5  C   UNL     1       1.504   4.735  20.597  0.00  0.00    +0.000 A 
ATOM      6  C   UNL     1       1.138   3.392  20.650  0.00  0.00    +0.000 A 
ATOM      7  C   UNL     1       1.974   2.413  20.106  0.00  0.00    +0.000 A 
ATOM      8  C   UNL     1       3.177   2.782  19.500  0.00  0.00    +0.000 A 
BRANCH   8   9
ATOM      9  O   UNL     1       3.987   1.823  18.962  0.00  0.00    +0.000 OA
ATOM     10  H   UNL     1       3.443   1.063  18.694  0.00  0.00    +0.000 HD
ENDBRANCH   8   9
ENDBRANCH   2   3
BRANCH   1  11
ATOM     11  N   UNL     1       7.019   4.407  18.396  0.00  0.00    +0.000 N 
ATOM     12  H   UNL     1       7.411   3.914  17.601  0.00  0.00    +0.000 HD
BRANCH  11  13
ATOM     13  C   UNL     1       7.591   5.585  18.795  0.00  0.00    +0.000 C 
ATOM     14  S   UNL     1       7.586   6.950  17.855  0.00  0.00    +0.000 S 
BRANCH  13  15
ATOM     15  N   UNL     1       8.163   5.558  20.024  0.00  0.00    +0.000 N 
ATOM     16  H   UNL     1       7.750   6.021  20.820  0.00  0.00    +0.000 HD
ATOM     17  H   UNL     1       9.026   5.035  20.108  0.00  0.00    +0.000 HD
ENDBRANCH  13  15
ENDBRANCH  11  13
ENDBRANCH   1  11
TORSDOF 5
ENDMDL
MODEL 5
REMARK VINA RESULT:      -6.0      1.010      1.338
REMARK  Name = 
REMARK  5 active torsions:
REMARK  status: ('A' for Active; 'I' for Inactive)
REMARK    1  A    between atoms: N_1  and  C_2
REMARK    2  A    between atoms: C_2  and  N_4
REMARK    3  A    between atoms: N_4  and  N_5
REMARK    4  A    between atoms: C_6  and  C_7
REMARK    5  A    between atoms: C_12  and  O_13
REMARK                            x       y       z     vdW  Elec       q    Type
REMARK                         _______ _______ _______ _____ _____    ______ ____
ROOT
ATOM      1  N   UNL     1       5.859   4.255  19.083  0.00  0.00    +0.000 NA
ATOM      2  C   UNL     1       4.820   3.687  18.557  0.00  0.00    +0.000 C 
ENDROOT
BRANCH   2   3
ATOM      3  C   UNL     1       3.525   3.691  19.271  0.00  0.00    +0.000 A 
ATOM      4  C   UNL     1       2.774   2.511  19.336  0.00  0.00    +0.000 A 
ATOM      5  C   UNL     1       1.566   2.486  20.032  0.00  0.00    +0.000 A 
ATOM      6  C   UNL     1       1.101   3.639  20.659  0.00  0.00    +0.000 A 
ATOM      7  C   UNL     1       1.840   4.824  20.590  0.00  0.00    +0.000 A 
ATOM      8  C   UNL     1       3.053   4.849  19.896  0.00  0.00    +0.000 A 
BRANCH   8   9
ATOM      9  O   UNL     1       3.776   6.006  19.838  0.00  0.00    +0.000 OA
ATOM     10  H   UNL     1       3.230   6.738  20.172  0.00  0.00    +0.000 HD
ENDBRANCH   8   9
ENDBRANCH   2   3
BRANCH   1  11
ATOM     11  N   UNL     1       7.000   4.223  18.335  0.00  0.00    +0.000 N 
ATOM     12  H   UNL     1       7.692   3.494  18.474  0.00  0.00    +0.000 HD
BRANCH  11  13
ATOM     13  C   UNL     1       7.205   5.154  17.353  0.00  0.00    +0.000 C 
ATOM     14  S   UNL     1       7.152   6.787  17.635  0.00  0.00    +0.000 S 
BRANCH  13  15
ATOM     15  N   UNL     1       7.460   4.643  16.123  0.00  0.00    +0.000 N 
ATOM     16  H   UNL     1       6.774   4.653  15.383  0.00  0.00    +0.000 HD
ATOM     17  H   UNL     1       8.386   4.261  15.977  0.00  0.00    +0.000 HD
ENDBRANCH  13  15
ENDBRANCH  11  13
ENDBRANCH   1  11
TORSDOF 5
ENDMDL
MODEL 6
REMARK VINA RESULT:      -6.0      0.902      1.111
REMARK  Name = 
REMARK  5 active torsions:
REMARK  status: ('A' for Active; 'I' for Inactive)
REMARK    1  A    between atoms: N_1  and  C_2
REMARK    2  A    between atoms: C_2  and  N_4
REMARK    3  A    between atoms: N_4  and  N_5
REMARK    4  A    between atoms: C_6  and  C_7
REMARK    5  A    between atoms: C_12  and  O_13
REMARK                            x       y       z     vdW  Elec       q    Type
REMARK                         _______ _______ _______ _____ _____    ______ ____
ROOT
ATOM      1  N   UNL     1       5.597   4.147  19.140  0.00  0.00    +0.000 NA
ATOM      2  C   UNL     1       4.503   4.821  19.302  0.00  0.00    +0.000 C 
ENDROOT
BRANCH   2   3
ATOM      3  C   UNL     1       3.195   4.131  19.311  0.00  0.00    +0.000 A 
ATOM      4  C   UNL     1       2.940   3.135  18.359  0.00  0.00    +0.000 A 
ATOM      5  C   UNL     1       1.724   2.450  18.370  0.00  0.00    +0.000 A 
ATOM      6  C   UNL     1       0.760   2.762  19.326  0.00  0.00    +0.000 A 
ATOM      7  C   UNL     1       1.005   3.761  20.272  0.00  0.00    +0.000 A 
ATOM      8  C   UNL     1       2.223   4.445  20.264  0.00  0.00    +0.000 A 
BRANCH   8   9
ATOM      9  O   UNL     1       2.461   5.415  21.196  0.00  0.00    +0.000 OA
ATOM     10  H   UNL     1       2.722   4.993  22.033  0.00  0.00    +0.000 HD
ENDBRANCH   8   9
ENDBRANCH   2   3
BRANCH   1  11
ATOM     11  N   UNL     1       6.755   4.868  19.176  0.00  0.00    +0.000 N 
ATOM     12  H   UNL     1       7.217   5.064  20.058  0.00  0.00    +0.000 HD
BRANCH  11  13
ATOM     13  C   UNL     1       7.334   5.299  18.014  0.00  0.00    +0.000 C 
ATOM     14  S   UNL     1       7.335   6.889  17.545  0.00  0.00    +0.000 S 
BRANCH  13  15
ATOM     15  N   UNL     1       7.915   4.328  17.267  0.00  0.00    +0.000 N 
ATOM     16  H   UNL     1       7.519   3.403  17.184  0.00  0.00    +0.000 HD
ATOM     17  H   UNL     1       8.766   4.581  16.780  0.00  0.00    +0.000 HD
ENDBRANCH  13  15
ENDBRANCH  11  13
ENDBRANCH   1  11
TORSDOF 5
ENDMDL
MODEL 7
REMARK VINA RESULT:      -5.9      2.230      2.436
REMARK  Name = 
REMARK  5 active torsions:
REMARK  status: ('A' for Active; 'I' for Inactive)
REMARK    1  A    between atoms: N_1  and  C_2
REMARK    2  A    between atoms: C_2  and  N_4
REMARK    3  A    between atoms: N_4  and  N_5
REMARK    4  A    between atoms: C_6  and  C_7
REMARK    5  A    between atoms: C_12  and  O_13
REMARK                            x       y       z     vdW  Elec       q    Type
REMARK                         _______ _______ _______ _____ _____    ______ ____
ROOT
ATOM      1  N   UNL     1       4.910   3.650  17.507  0.00  0.00    +0.000 NA
ATOM      2  C   UNL     1       3.797   3.000  17.639  0.00  0.00    +0.000 C 
ENDROOT
BRANCH   2   3
ATOM      3  C   UNL     1       3.034   3.075  18.904  0.00  0.00    +0.000 A 
ATOM      4  C   UNL     1       1.731   3.590  18.888  0.00  0.00    +0.000 A 
ATOM      5  C   UNL     1       0.983   3.640  20.065  0.00  0.00    +0.000 A 
ATOM      6  C   UNL     1       1.535   3.181  21.258  0.00  0.00    +0.000 A 
ATOM      7  C   UNL     1       2.838   2.674  21.283  0.00  0.00    +0.000 A 
ATOM      8  C   UNL     1       3.586   2.621  20.104  0.00  0.00    +0.000 A 
BRANCH   8   9
ATOM      9  O   UNL     1       4.856   2.117  20.130  0.00  0.00    +0.000 OA
ATOM     10  H   UNL     1       5.480   2.819  19.881  0.00  0.00    +0.000 HD
ENDBRANCH   8   9
ENDBRANCH   2   3
BRANCH   1  11
ATOM     11  N   UNL     1       5.525   3.541  16.294  0.00  0.00    +0.000 N 
ATOM     12  H   UNL     1       5.133   2.956  15.564  0.00  0.00    +0.000 HD
BRANCH  11  13
ATOM     13  C   UNL     1       6.659   4.260  16.031  0.00  0.00    +0.000 C 
ATOM     14  S   UNL     1       6.975   4.932  14.548  0.00  0.00    +0.000 S 
BRANCH  13  15
ATOM     15  N   UNL     1       7.513   4.389  17.076  0.00  0.00    +0.000 N 
ATOM     16  H   UNL     1       8.294   5.028  17.057  0.00  0.00    +0.000 HD
ATOM     17  H   UNL     1       7.319   3.819  17.890  0.00  0.00    +0.000 HD
ENDBRANCH  13  15
ENDBRANCH  11  13
ENDBRANCH   1  11
TORSDOF 5
ENDMDL
MODEL 8
REMARK VINA RESULT:      -5.9      1.315      1.751
REMARK  Name = 
REMARK  5 active torsions:
REMARK  status: ('A' for Active; 'I' for Inactive)
REMARK    1  A    between atoms: N_1  and  C_2
REMARK    2  A    between atoms: C_2  and  N_4
REMARK    3  A    between atoms: N_4  and  N_5
REMARK    4  A    between atoms: C_6  and  C_7
REMARK    5  A    between atoms: C_12  and  O_13
REMARK                            x       y       z     vdW  Elec       q    Type
REMARK                         _______ _______ _______ _____ _____    ______ ____
ROOT
ATOM      1  N   UNL     1       5.600   4.008  19.147  0.00  0.00    +0.000 NA
ATOM      2  C   UNL     1       4.537   3.904  18.415  0.00  0.00    +0.000 C 
ENDROOT
BRANCH   2   3
ATOM      3  C   UNL     1       3.227   3.614  19.037  0.00  0.00    +0.000 A 
ATOM      4  C   UNL     1       3.076   3.772  20.420  0.00  0.00    +0.000 A 
ATOM      5  C   UNL     1       1.840   3.534  21.022  0.00  0.00    +0.000 A 
ATOM      6  C   UNL     1       0.755   3.133  20.245  0.00  0.00    +0.000 A 
ATOM      7  C   UNL     1       0.902   2.964  18.866  0.00  0.00    +0.000 A 
ATOM      8  C   UNL     1       2.138   3.206  18.262  0.00  0.00    +0.000 A 
BRANCH   8   9
ATOM      9  O   UNL     1       2.275   3.047  16.912  0.00  0.00    +0.000 OA
ATOM     10  H   UNL     1       1.392   3.003  16.507  0.00  0.00    +0.000 HD
ENDBRANCH   8   9
ENDBRANCH   2   3
BRANCH   1  11
ATOM     11  N   UNL     1       6.755   4.306  18.485  0.00  0.00    +0.000 N 
ATOM     12  H   UNL     1       7.131   3.674  17.786  0.00  0.00    +0.000 HD
BRANCH  11  13
ATOM     13  C   UNL     1       7.401   5.489  18.725  0.00  0.00    +0.000 C 
ATOM     14  S   UNL     1       7.346   6.772  17.676  0.00  0.00    +0.000 S 
BRANCH  13  15
ATOM     15  N   UNL     1       8.092   5.540  19.890  0.00  0.00    +0.000 N 
ATOM     16  H   UNL     1       7.654   5.370  20.783  0.00  0.00    +0.000 HD
ATOM     17  H   UNL     1       9.081   5.745  19.819  0.00  0.00    +0.000 HD
ENDBRANCH  13  15
ENDBRANCH  11  13
ENDBRANCH   1  11
TORSDOF 5
ENDMDL
MODEL 9
REMARK VINA RESULT:      -5.8      1.766      2.236
REMARK  Name = 
REMARK  5 active torsions:
REMARK  status: ('A' for Active; 'I' for Inactive)
REMARK    1  A    between atoms: N_1  and  C_2
REMARK    2  A    between atoms: C_2  and  N_4
REMARK    3  A    between atoms: N_4  and  N_5
REMARK    4  A    between atoms: C_6  and  C_7
REMARK    5  A    between atoms: C_12  and  O_13
REMARK                            x       y       z     vdW  Elec       q    Type
REMARK                         _______ _______ _______ _____ _____    ______ ____
ROOT
ATOM      1  N   UNL     1       4.773   3.804  17.223  0.00  0.00    +0.000 NA
ATOM      2  C   UNL     1       4.643   3.671  18.505  0.00  0.00    +0.000 C 
ENDROOT
BRANCH   2   3
ATOM      3  C   UNL     1       3.299   3.644  19.121  0.00  0.00    +0.000 A 
ATOM      4  C   UNL     1       2.950   4.637  20.046  0.00  0.00    +0.000 A 
ATOM      5  C   UNL     1       1.676   4.649  20.614  0.00  0.00    +0.000 A 
ATOM      6  C   UNL     1       0.752   3.667  20.266  0.00  0.00    +0.000 A 
ATOM      7  C   UNL     1       1.097   2.667  19.352  0.00  0.00    +0.000 A 
ATOM      8  C   UNL     1       2.371   2.658  18.779  0.00  0.00    +0.000 A 
BRANCH   8   9
ATOM      9  O   UNL     1       2.702   1.684  17.879  0.00  0.00    +0.000 OA
ATOM     10  H   UNL     1       2.272   0.852  18.142  0.00  0.00    +0.000 HD
ENDBRANCH   8   9
ENDBRANCH   2   3
BRANCH   1  11
ATOM     11  N   UNL     1       6.051   3.788  16.746  0.00  0.00    +0.000 N 
ATOM     12  H   UNL     1       6.335   3.112  16.044  0.00  0.00    +0.000 HD
BRANCH  11  13
ATOM     13  C   UNL     1       6.958   4.717  17.177  0.00  0.00    +0.000 C 
ATOM     14  S   UNL     1       6.674   6.349  17.114  0.00  0.00    +0.000 S 
BRANCH  13  15
ATOM     15  N   UNL     1       8.115   4.206  17.665  0.00  0.00    +0.000 N 
ATOM     16  H   UNL     1       8.967   4.745  17.704  0.00  0.00    +0.000 HD
ATOM     17  H   UNL     1       8.079   3.254  18.006  0.00  0.00    +0.000 HD
ENDBRANCH  13  15
ENDBRANCH  11  13
ENDBRANCH   1  11
TORSDOF 5
ENDMDL
