MODEL 1
REMARK VINA RESULT:      -8.6      0.000      0.000
REMARK  Name = 
REMARK  6 active torsions:
REMARK  status: ('A' for Active; 'I' for Inactive)
REMARK    1  A    between atoms: C_1  and  C_2
REMARK    2  A    between atoms: C_4  and  C_5
REMARK    3  A    between atoms: C_13  and  C_14
REMARK    4  A    between atoms: C_14  and  N_15
REMARK    5  A    between atoms: C_18  and  C_19
REMARK    6  A    between atoms: N_21  and  C_22
REMARK                            x       y       z     vdW  Elec       q    Type
REMARK                         _______ _______ _______ _____ _____    ______ ____
ROOT
ATOM      1  C   UNL     1       3.452   6.819  17.515  0.00  0.00    +0.000 C 
ENDROOT
BRANCH   1   7
ATOM      2  C   UNL     1       2.720   4.866  20.194  0.00  0.00    +0.000 C 
ATOM      3  C   UNL     1       2.417   6.260  19.836  0.00  0.00    +0.000 A 
ATOM      4  O   UNL     1       1.718   6.974  20.760  0.00  0.00    +0.000 OA
ATOM      5  C   UNL     1       1.559   8.214  20.205  0.00  0.00    +0.000 A 
ATOM      6  N   UNL     1       2.115   8.338  19.014  0.00  0.00    +0.000 NA
ATOM      7  C   UNL     1       2.665   7.086  18.759  0.00  0.00    +0.000 A 
BRANCH   5   8
ATOM      8  C   UNL     1       0.789   9.160  21.011  0.00  0.00    +0.000 A 
ATOM      9  C   UNL     1       0.113   8.745  22.167  0.00  0.00    +0.000 A 
ATOM     10  C   UNL     1      -0.584   9.670  22.956  0.00  0.00    +0.000 A 
ATOM     11  C   UNL     1      -0.614  11.018  22.593  0.00  0.00    +0.000 A 
ATOM     12  C   UNL     1       0.042  11.435  21.441  0.00  0.00    +0.000 A 
ATOM     13 CL   UNL     1       0.014  13.094  20.986  0.00  0.00    +0.000 Cl
ATOM     14  C   UNL     1       0.733  10.518  20.653  0.00  0.00    +0.000 A 
ENDBRANCH   5   8
ENDBRANCH   1   7
BRANCH   1  15
ATOM     15  N   UNL     1       4.608   5.903  17.728  0.00  0.00    +0.000 NA
ATOM     16  C   UNL     1       4.391   4.632  17.015  0.00  0.00    +0.000 C 
ATOM     17  C   UNL     1       5.624   3.716  16.961  0.00  0.00    +0.000 C 
ATOM     18  C   UNL     1       6.900   4.420  16.494  0.00  0.00    +0.000 C 
ATOM     19  C   UNL     1       7.072   5.721  17.280  0.00  0.00    +0.000 C 
ATOM     20  C   UNL     1       5.819   6.596  17.248  0.00  0.00    +0.000 C 
BRANCH  18  21
ATOM     21  C   UNL     1       6.980   4.649  14.978  0.00  0.00    +0.000 C 
ATOM     22  O   UNL     1       7.646   5.552  14.474  0.00  0.00    +0.000 OA
ATOM     23  N   UNL     1       6.287   3.720  14.220  0.00  0.00    +0.000 N 
ATOM     24  H   UNL     1       5.676   3.056  14.681  0.00  0.00    +0.000 HD
BRANCH  23  25
ATOM     25  C   UNL     1       6.306   3.742  12.787  0.00  0.00    +0.000 C 
ATOM     26  C   UNL     1       6.264   2.474  11.972  0.00  0.00    +0.000 C 
ATOM     27  C   UNL     1       5.076   3.392  11.990  0.00  0.00    +0.000 C 
ENDBRANCH  23  25
ENDBRANCH  18  21
ENDBRANCH   1  15
TORSDOF 5
ENDMDL
MODEL 2
REMARK VINA RESULT:      -8.0      2.513      4.306
REMARK  Name = 
REMARK  6 active torsions:
REMARK  status: ('A' for Active; 'I' for Inactive)
REMARK    1  A    between atoms: C_1  and  C_2
REMARK    2  A    between atoms: C_4  and  C_5
REMARK    3  A    between atoms: C_13  and  C_14
REMARK    4  A    between atoms: C_14  and  N_15
REMARK    5  A    between atoms: C_18  and  C_19
REMARK    6  A    between atoms: N_21  and  C_22
REMARK                            x       y       z     vdW  Elec       q    Type
REMARK                         _______ _______ _______ _____ _____    ______ ____
ROOT
ATOM      1  C   UNL     1       3.760   4.503  17.714  0.00  0.00    +0.000 C 
ENDROOT
BRANCH   1   7
ATOM      2  C   UNL     1       2.359   3.556  20.658  0.00  0.00    +0.000 C 
ATOM      3  C   UNL     1       2.444   4.834  19.935  0.00  0.00    +0.000 A 
ATOM      4  O   UNL     1       1.880   5.908  20.553  0.00  0.00    +0.000 OA
ATOM      5  C   UNL     1       2.081   6.955  19.698  0.00  0.00    +0.000 A 
ATOM      6  N   UNL     1       2.739   6.628  18.601  0.00  0.00    +0.000 NA
ATOM      7  C   UNL     1       2.974   5.263  18.735  0.00  0.00    +0.000 A 
BRANCH   5   8
ATOM      8  C   UNL     1       1.515   8.230  20.135  0.00  0.00    +0.000 A 
ATOM      9  C   UNL     1       1.416   9.319  19.258  0.00  0.00    +0.000 A 
ATOM     10  C   UNL     1       0.829  10.521  19.676  0.00  0.00    +0.000 A 
ATOM     11  C   UNL     1       0.337  10.645  20.976  0.00  0.00    +0.000 A 
ATOM     12  C   UNL     1       0.443   9.574  21.857  0.00  0.00    +0.000 A 
ATOM     13 CL   UNL     1      -0.163   9.715  23.461  0.00  0.00    +0.000 Cl
ATOM     14  C   UNL     1       1.029   8.380  21.445  0.00  0.00    +0.000 A 
ENDBRANCH   5   8
ENDBRANCH   1   7
BRANCH   1  15
ATOM     15  N   UNL     1       5.211   4.401  18.037  0.00  0.00    +0.000 NA
ATOM     16  C   UNL     1       6.022   4.697  16.843  0.00  0.00    +0.000 C 
ATOM     17  C   UNL     1       7.524   4.865  17.121  0.00  0.00    +0.000 C 
ATOM     18  C   UNL     1       7.838   5.821  18.273  0.00  0.00    +0.000 C 
ATOM     19  C   UNL     1       6.976   5.452  19.482  0.00  0.00    +0.000 C 
ATOM     20  C   UNL     1       5.491   5.348  19.133  0.00  0.00    +0.000 C 
BRANCH  18  21
ATOM     21  C   UNL     1       7.719   7.308  17.914  0.00  0.00    +0.000 C 
ATOM     22  O   UNL     1       6.943   7.728  17.055  0.00  0.00    +0.000 OA
ATOM     23  N   UNL     1       8.513   8.148  18.675  0.00  0.00    +0.000 N 
ATOM     24  H   UNL     1       9.205   7.750  19.300  0.00  0.00    +0.000 HD
BRANCH  23  25
ATOM     25  C   UNL     1       8.481   9.573  18.520  0.00  0.00    +0.000 C 
ATOM     26  C   UNL     1       9.224  10.492  19.457  0.00  0.00    +0.000 C 
ATOM     27  C   UNL     1       9.694  10.329  18.041  0.00  0.00    +0.000 C 
ENDBRANCH  23  25
ENDBRANCH  18  21
ENDBRANCH   1  15
TORSDOF 5
ENDMDL
MODEL 3
REMARK VINA RESULT:      -8.0      1.203      1.634
REMARK  Name = 
REMARK  6 active torsions:
REMARK  status: ('A' for Active; 'I' for Inactive)
REMARK    1  A    between atoms: C_1  and  C_2
REMARK    2  A    between atoms: C_4  and  C_5
REMARK    3  A    between atoms: C_13  and  C_14
REMARK    4  A    between atoms: C_14  and  N_15
REMARK    5  A    between atoms: C_18  and  C_19
REMARK    6  A    between atoms: N_21  and  C_22
REMARK                            x       y       z     vdW  Elec       q    Type
REMARK                         _______ _______ _______ _____ _____    ______ ____
ROOT
ATOM      1  C   UNL     1       3.824   5.022  19.198  0.00  0.00    +0.000 C 
ENDROOT
BRANCH   1   7
ATOM      2  C   UNL     1       1.141   3.762  20.854  0.00  0.00    +0.000 C 
ATOM      3  C   UNL     1       1.609   5.126  20.562  0.00  0.00    +0.000 A 
ATOM      4  O   UNL     1       0.854   6.138  21.068  0.00  0.00    +0.000 OA
ATOM      5  C   UNL     1       1.480   7.285  20.665  0.00  0.00    +0.000 A 
ATOM      6  N   UNL     1       2.575   7.072  19.959  0.00  0.00    +0.000 NA
ATOM      7  C   UNL     1       2.668   5.687  19.877  0.00  0.00    +0.000 A 
BRANCH   5   8
ATOM      8  C   UNL     1       0.817   8.526  21.062  0.00  0.00    +0.000 A 
ATOM      9  C   UNL     1       0.096   8.611  22.261  0.00  0.00    +0.000 A 
ATOM     10  C   UNL     1      -0.497   9.819  22.652  0.00  0.00    +0.000 A 
ATOM     11  C   UNL     1      -0.376  10.952  21.846  0.00  0.00    +0.000 A 
ATOM     12  C   UNL     1       0.326  10.873  20.649  0.00  0.00    +0.000 A 
ATOM     13 CL   UNL     1       0.484  12.264  19.649  0.00  0.00    +0.000 Cl
ATOM     14  C   UNL     1       0.913   9.672  20.255  0.00  0.00    +0.000 A 
ENDBRANCH   5   8
ENDBRANCH   1   7
BRANCH   1  15
ATOM     15  N   UNL     1       4.743   5.977  18.518  0.00  0.00    +0.000 NA
ATOM     16  C   UNL     1       6.145   5.572  18.726  0.00  0.00    +0.000 C 
ATOM     17  C   UNL     1       7.162   6.340  17.867  0.00  0.00    +0.000 C 
ATOM     18  C   UNL     1       6.800   6.396  16.381  0.00  0.00    +0.000 C 
ATOM     19  C   UNL     1       5.342   6.834  16.235  0.00  0.00    +0.000 C 
ATOM     20  C   UNL     1       4.389   5.994  17.086  0.00  0.00    +0.000 C 
BRANCH  18  21
ATOM     21  C   UNL     1       7.093   5.103  15.607  0.00  0.00    +0.000 C 
ATOM     22  O   UNL     1       7.810   4.207  16.052  0.00  0.00    +0.000 OA
ATOM     23  N   UNL     1       6.439   5.001  14.392  0.00  0.00    +0.000 N 
ATOM     24  H   UNL     1       5.939   5.803  14.025  0.00  0.00    +0.000 HD
BRANCH  23  25
ATOM     25  C   UNL     1       6.545   3.833  13.567  0.00  0.00    +0.000 C 
ATOM     26  C   UNL     1       5.536   3.528  12.488  0.00  0.00    +0.000 C 
ATOM     27  C   UNL     1       6.930   3.943  12.113  0.00  0.00    +0.000 C 
ENDBRANCH  23  25
ENDBRANCH  18  21
ENDBRANCH   1  15
TORSDOF 5
ENDMDL
MODEL 4
REMARK VINA RESULT:      -8.0      1.124      1.527
REMARK  Name = 
REMARK  6 active torsions:
REMARK  status: ('A' for Active; 'I' for Inactive)
REMARK    1  A    between atoms: C_1  and  C_2
REMARK    2  A    between atoms: C_4  and  C_5
REMARK    3  A    between atoms: C_13  and  C_14
REMARK    4  A    between atoms: C_14  and  N_15
REMARK    5  A    between atoms: C_18  and  C_19
REMARK    6  A    between atoms: N_21  and  C_22
REMARK                            x       y       z     vdW  Elec       q    Type
REMARK                         _______ _______ _______ _____ _____    ______ ____
ROOT
ATOM      1  C   UNL     1       3.687   7.326  16.885  0.00  0.00    +0.000 C 
ENDROOT
BRANCH   1   7
ATOM      2  C   UNL     1       2.927   5.712  19.773  0.00  0.00    +0.000 C 
ATOM      3  C   UNL     1       2.555   7.018  19.208  0.00  0.00    +0.000 A 
ATOM      4  O   UNL     1       1.758   7.800  19.986  0.00  0.00    +0.000 OA
ATOM      5  C   UNL     1       1.552   8.936  19.255  0.00  0.00    +0.000 A 
ATOM      6  N   UNL     1       2.168   8.936  18.087  0.00  0.00    +0.000 NA
ATOM      7  C   UNL     1       2.812   7.704  18.039  0.00  0.00    +0.000 A 
BRANCH   5   8
ATOM      8  C   UNL     1       0.675   9.925  19.879  0.00  0.00    +0.000 A 
ATOM      9  C   UNL     1       0.202  11.032  19.161  0.00  0.00    +0.000 A 
ATOM     10  C   UNL     1      -0.675  11.948  19.757  0.00  0.00    +0.000 A 
ATOM     11  C   UNL     1      -1.085  11.766  21.079  0.00  0.00    +0.000 A 
ATOM     12  C   UNL     1      -0.611  10.678  21.803  0.00  0.00    +0.000 A 
ATOM     13 CL   UNL     1      -1.112  10.443  23.432  0.00  0.00    +0.000 Cl
ATOM     14  C   UNL     1       0.264   9.768  21.214  0.00  0.00    +0.000 A 
ENDBRANCH   5   8
ENDBRANCH   1   7
BRANCH   1  15
ATOM     15  N   UNL     1       4.717   6.306  17.230  0.00  0.00    +0.000 NA
ATOM     16  C   UNL     1       4.380   5.011  16.611  0.00  0.00    +0.000 C 
ATOM     17  C   UNL     1       5.497   3.958  16.694  0.00  0.00    +0.000 C 
ATOM     18  C   UNL     1       6.864   4.469  16.236  0.00  0.00    +0.000 C 
ATOM     19  C   UNL     1       7.158   5.804  16.922  0.00  0.00    +0.000 C 
ATOM     20  C   UNL     1       6.020   6.811  16.757  0.00  0.00    +0.000 C 
BRANCH  18  21
ATOM     21  C   UNL     1       7.032   4.555  14.713  0.00  0.00    +0.000 C 
ATOM     22  O   UNL     1       7.840   5.311  14.173  0.00  0.00    +0.000 OA
ATOM     23  N   UNL     1       6.242   3.673  13.997  0.00  0.00    +0.000 N 
ATOM     24  H   UNL     1       5.525   3.142  14.478  0.00  0.00    +0.000 HD
BRANCH  23  25
ATOM     25  C   UNL     1       6.317   3.571  12.569  0.00  0.00    +0.000 C 
ATOM     26  C   UNL     1       6.222   2.243  11.860  0.00  0.00    +0.000 C 
ATOM     27  C   UNL     1       5.098   3.232  11.751  0.00  0.00    +0.000 C 
ENDBRANCH  23  25
ENDBRANCH  18  21
ENDBRANCH   1  15
TORSDOF 5
ENDMDL
MODEL 5
REMARK VINA RESULT:      -7.9      3.690      8.573
REMARK  Name = 
REMARK  6 active torsions:
REMARK  status: ('A' for Active; 'I' for Inactive)
REMARK    1  A    between atoms: C_1  and  C_2
REMARK    2  A    between atoms: C_4  and  C_5
REMARK    3  A    between atoms: C_13  and  C_14
REMARK    4  A    between atoms: C_14  and  N_15
REMARK    5  A    between atoms: C_18  and  C_19
REMARK    6  A    between atoms: N_21  and  C_22
REMARK                            x       y       z     vdW  Elec       q    Type
REMARK                         _______ _______ _______ _____ _____    ______ ____
ROOT
ATOM      1  C   UNL     1       1.267   7.148  20.655  0.00  0.00    +0.000 C 
ENDROOT
BRANCH   1   7
ATOM      2  C   UNL     1       1.182   3.755  20.567  0.00  0.00    +0.000 C 
ATOM      3  C   UNL     1       2.109   4.765  20.034  0.00  0.00    +0.000 A 
ATOM      4  O   UNL     1       3.163   4.288  19.317  0.00  0.00    +0.000 OA
ATOM      5  C   UNL     1       3.868   5.397  18.941  0.00  0.00    +0.000 A 
ATOM      6  N   UNL     1       3.333   6.532  19.352  0.00  0.00    +0.000 NA
ATOM      7  C   UNL     1       2.203   6.141  20.064  0.00  0.00    +0.000 A 
BRANCH   5   8
ATOM      8  C   UNL     1       5.088   5.128  18.182  0.00  0.00    +0.000 A 
ATOM      9  C   UNL     1       6.353   5.247  18.776  0.00  0.00    +0.000 A 
ATOM     10  C   UNL     1       7.513   4.942  18.051  0.00  0.00    +0.000 A 
ATOM     11  C   UNL     1       7.418   4.517  16.725  0.00  0.00    +0.000 A 
ATOM     12  C   UNL     1       6.170   4.409  16.125  0.00  0.00    +0.000 A 
ATOM     13 CL   UNL     1       6.041   3.884  14.491  0.00  0.00    +0.000 Cl
ATOM     14  C   UNL     1       5.015   4.715  16.841  0.00  0.00    +0.000 A 
ENDBRANCH   5   8
ENDBRANCH   1   7
BRANCH   1  15
ATOM     15  N   UNL     1       1.631   8.557  20.333  0.00  0.00    +0.000 NA
ATOM     16  C   UNL     1       1.477   8.807  18.889  0.00  0.00    +0.000 C 
ATOM     17  C   UNL     1       1.584  10.286  18.485  0.00  0.00    +0.000 C 
ATOM     18  C   UNL     1       0.708  11.221  19.321  0.00  0.00    +0.000 C 
ATOM     19  C   UNL     1       0.923  10.920  20.805  0.00  0.00    +0.000 C 
ATOM     20  C   UNL     1       0.756   9.436  21.132  0.00  0.00    +0.000 C 
BRANCH  18  21
ATOM     21  C   UNL     1      -0.779  11.205  18.941  0.00  0.00    +0.000 C 
ATOM     22  O   UNL     1      -1.673  11.504  19.733  0.00  0.00    +0.000 OA
ATOM     23  N   UNL     1      -1.031  10.883  17.619  0.00  0.00    +0.000 N 
ATOM     24  H   UNL     1      -0.273  10.550  17.034  0.00  0.00    +0.000 HD
BRANCH  23  25
ATOM     25  C   UNL     1      -2.357  10.884  17.074  0.00  0.00    +0.000 C 
ATOM     26  C   UNL     1      -2.728  10.036  15.884  0.00  0.00    +0.000 C 
ATOM     27  C   UNL     1      -3.265   9.693  17.243  0.00  0.00    +0.000 C 
ENDBRANCH  23  25
ENDBRANCH  18  21
ENDBRANCH   1  15
TORSDOF 5
ENDMDL
MODEL 6
REMARK VINA RESULT:      -7.8      1.107      1.237
REMARK  Name = 
REMARK  6 active torsions:
REMARK  status: ('A' for Active; 'I' for Inactive)
REMARK    1  A    between atoms: C_1  and  C_2
REMARK    2  A    between atoms: C_4  and  C_5
REMARK    3  A    between atoms: C_13  and  C_14
REMARK    4  A    between atoms: C_14  and  N_15
REMARK    5  A    between atoms: C_18  and  C_19
REMARK    6  A    between atoms: N_21  and  C_22
REMARK                            x       y       z     vdW  Elec       q    Type
REMARK                         _______ _______ _______ _____ _____    ______ ____
ROOT
ATOM      1  C   UNL     1       3.841   7.604  17.108  0.00  0.00    +0.000 C 
ENDROOT
BRANCH   1   7
ATOM      2  C   UNL     1       2.873   5.738  19.774  0.00  0.00    +0.000 C 
ATOM      3  C   UNL     1       2.521   7.082  19.290  0.00  0.00    +0.000 A 
ATOM      4  O   UNL     1       1.643   7.782  20.058  0.00  0.00    +0.000 OA
ATOM      5  C   UNL     1       1.475   8.974  19.409  0.00  0.00    +0.000 A 
ATOM      6  N   UNL     1       2.188   9.082  18.303  0.00  0.00    +0.000 NA
ATOM      7  C   UNL     1       2.862   7.869  18.208  0.00  0.00    +0.000 A 
BRANCH   5   8
ATOM      8  C   UNL     1       0.525   9.892  20.035  0.00  0.00    +0.000 A 
ATOM      9  C   UNL     1       0.613  10.207  21.398  0.00  0.00    +0.000 A 
ATOM     10  C   UNL     1      -0.275  11.125  21.976  0.00  0.00    +0.000 A 
ATOM     11  C   UNL     1      -1.260  11.733  21.197  0.00  0.00    +0.000 A 
ATOM     12  C   UNL     1      -1.362  11.417  19.847  0.00  0.00    +0.000 A 
ATOM     13 CL   UNL     1      -2.570  12.163  18.876  0.00  0.00    +0.000 Cl
ATOM     14  C   UNL     1      -0.483  10.502  19.270  0.00  0.00    +0.000 A 
ENDBRANCH   5   8
ENDBRANCH   1   7
BRANCH   1  15
ATOM     15  N   UNL     1       4.779   6.486  17.404  0.00  0.00    +0.000 NA
ATOM     16  C   UNL     1       4.310   5.243  16.767  0.00  0.00    +0.000 C 
ATOM     17  C   UNL     1       5.326   4.090  16.798  0.00  0.00    +0.000 C 
ATOM     18  C   UNL     1       6.724   4.483  16.317  0.00  0.00    +0.000 C 
ATOM     19  C   UNL     1       7.156   5.769  17.024  0.00  0.00    +0.000 C 
ATOM     20  C   UNL     1       6.112   6.880  16.910  0.00  0.00    +0.000 C 
BRANCH  18  21
ATOM     21  C   UNL     1       6.864   4.591  14.793  0.00  0.00    +0.000 C 
ATOM     22  O   UNL     1       7.625   5.390  14.247  0.00  0.00    +0.000 OA
ATOM     23  N   UNL     1       6.109   3.675  14.081  0.00  0.00    +0.000 N 
ATOM     24  H   UNL     1       5.427   3.105  14.568  0.00  0.00    +0.000 HD
BRANCH  23  25
ATOM     25  C   UNL     1       6.166   3.589  12.651  0.00  0.00    +0.000 C 
ATOM     26  C   UNL     1       5.901   2.296  11.921  0.00  0.00    +0.000 C 
ATOM     27  C   UNL     1       4.911   3.422  11.833  0.00  0.00    +0.000 C 
ENDBRANCH  23  25
ENDBRANCH  18  21
ENDBRANCH   1  15
TORSDOF 5
ENDMDL
MODEL 7
REMARK VINA RESULT:      -7.7      2.407      4.116
REMARK  Name = 
REMARK  6 active torsions:
REMARK  status: ('A' for Active; 'I' for Inactive)
REMARK    1  A    between atoms: C_1  and  C_2
REMARK    2  A    between atoms: C_4  and  C_5
REMARK    3  A    between atoms: C_13  and  C_14
REMARK    4  A    between atoms: C_14  and  N_15
REMARK    5  A    between atoms: C_18  and  C_19
REMARK    6  A    between atoms: N_21  and  C_22
REMARK                            x       y       z     vdW  Elec       q    Type
REMARK                         _______ _______ _______ _____ _____    ______ ____
ROOT
ATOM      1  C   UNL     1       3.647   4.813  17.613  0.00  0.00    +0.000 C 
ENDROOT
BRANCH   1   7
ATOM      2  C   UNL     1       2.310   3.722  20.537  0.00  0.00    +0.000 C 
ATOM      3  C   UNL     1       2.372   5.033  19.872  0.00  0.00    +0.000 A 
ATOM      4  O   UNL     1       1.813   6.073  20.548  0.00  0.00    +0.000 OA
ATOM      5  C   UNL     1       1.990   7.160  19.738  0.00  0.00    +0.000 A 
ATOM      6  N   UNL     1       2.629   6.888  18.615  0.00  0.00    +0.000 NA
ATOM      7  C   UNL     1       2.876   5.520  18.683  0.00  0.00    +0.000 A 
BRANCH   5   8
ATOM      8  C   UNL     1       1.424   8.409  20.244  0.00  0.00    +0.000 A 
ATOM      9  C   UNL     1       1.148   8.580  21.608  0.00  0.00    +0.000 A 
ATOM     10  C   UNL     1       0.648   9.798  22.087  0.00  0.00    +0.000 A 
ATOM     11  C   UNL     1       0.417  10.856  21.206  0.00  0.00    +0.000 A 
ATOM     12  C   UNL     1       0.675  10.690  19.850  0.00  0.00    +0.000 A 
ATOM     13 CL   UNL     1       0.397  11.988  18.755  0.00  0.00    +0.000 Cl
ATOM     14  C   UNL     1       1.169   9.479  19.370  0.00  0.00    +0.000 A 
ENDBRANCH   5   8
ENDBRANCH   1   7
BRANCH   1  15
ATOM     15  N   UNL     1       5.086   4.619  17.948  0.00  0.00    +0.000 NA
ATOM     16  C   UNL     1       5.924   4.862  16.761  0.00  0.00    +0.000 C 
ATOM     17  C   UNL     1       7.432   4.933  17.052  0.00  0.00    +0.000 C 
ATOM     18  C   UNL     1       7.796   5.868  18.206  0.00  0.00    +0.000 C 
ATOM     19  C   UNL     1       6.902   5.557  19.408  0.00  0.00    +0.000 C 
ATOM     20  C   UNL     1       5.416   5.548  19.046  0.00  0.00    +0.000 C 
BRANCH  18  21
ATOM     21  C   UNL     1       7.775   7.360  17.845  0.00  0.00    +0.000 C 
ATOM     22  O   UNL     1       7.147   7.806  16.885  0.00  0.00    +0.000 OA
ATOM     23  N   UNL     1       8.474   8.172  18.722  0.00  0.00    +0.000 N 
ATOM     24  H   UNL     1       9.054   7.751  19.438  0.00  0.00    +0.000 HD
BRANCH  23  25
ATOM     25  C   UNL     1       8.507   9.598  18.575  0.00  0.00    +0.000 C 
ATOM     26  C   UNL     1       9.334  10.472  19.485  0.00  0.00    +0.000 C 
ATOM     27  C   UNL     1       9.736  10.296  18.049  0.00  0.00    +0.000 C 
ENDBRANCH  23  25
ENDBRANCH  18  21
ENDBRANCH   1  15
TORSDOF 5
ENDMDL
MODEL 8
REMARK VINA RESULT:      -7.7      4.478      7.367
REMARK  Name = 
REMARK  6 active torsions:
REMARK  status: ('A' for Active; 'I' for Inactive)
REMARK    1  A    between atoms: C_1  and  C_2
REMARK    2  A    between atoms: C_4  and  C_5
REMARK    3  A    between atoms: C_13  and  C_14
REMARK    4  A    between atoms: C_14  and  N_15
REMARK    5  A    between atoms: C_18  and  C_19
REMARK    6  A    between atoms: N_21  and  C_22
REMARK                            x       y       z     vdW  Elec       q    Type
REMARK                         _______ _______ _______ _____ _____    ______ ____
ROOT
ATOM      1  C   UNL     1       6.880   5.699  16.413  0.00  0.00    +0.000 C 
ENDROOT
BRANCH   1   7
ATOM      2  C   UNL     1       8.032   5.445  19.597  0.00  0.00    +0.000 C 
ATOM      3  C   UNL     1       7.931   6.554  18.636  0.00  0.00    +0.000 A 
ATOM      4  O   UNL     1       8.419   7.753  19.054  0.00  0.00    +0.000 OA
ATOM      5  C   UNL     1       8.210   8.607  18.007  0.00  0.00    +0.000 A 
ATOM      6  N   UNL     1       7.645   8.035  16.960  0.00  0.00    +0.000 NA
ATOM      7  C   UNL     1       7.451   6.714  17.352  0.00  0.00    +0.000 A 
BRANCH   5   8
ATOM      8  C   UNL     1       8.623   9.990  18.242  0.00  0.00    +0.000 A 
ATOM      9  C   UNL     1       8.115  11.040  17.465  0.00  0.00    +0.000 A 
ATOM     10  C   UNL     1       8.483  12.366  17.731  0.00  0.00    +0.000 A 
ATOM     11  C   UNL     1       9.364  12.653  18.775  0.00  0.00    +0.000 A 
ATOM     12  C   UNL     1       9.882  11.616  19.542  0.00  0.00    +0.000 A 
ATOM     13 CL   UNL     1      10.966  11.958  20.834  0.00  0.00    +0.000 Cl
ATOM     14  C   UNL     1       9.521  10.297  19.278  0.00  0.00    +0.000 A 
ENDBRANCH   5   8
ENDBRANCH   1   7
BRANCH   1  15
ATOM     15  N   UNL     1       5.391   5.693  16.380  0.00  0.00    +0.000 NA
ATOM     16  C   UNL     1       4.884   4.312  16.469  0.00  0.00    +0.000 C 
ATOM     17  C   UNL     1       3.366   4.206  16.693  0.00  0.00    +0.000 C 
ATOM     18  C   UNL     1       2.847   5.078  17.838  0.00  0.00    +0.000 C 
ATOM     19  C   UNL     1       3.398   6.497  17.680  0.00  0.00    +0.000 C 
ATOM     20  C   UNL     1       4.916   6.519  17.506  0.00  0.00    +0.000 C 
BRANCH  18  21
ATOM     21  C   UNL     1       3.113   4.511  19.239  0.00  0.00    +0.000 C 
ATOM     22  O   UNL     1       4.247   4.309  19.673  0.00  0.00    +0.000 OA
ATOM     23  N   UNL     1       1.975   4.297  19.997  0.00  0.00    +0.000 N 
ATOM     24  H   UNL     1       1.063   4.384  19.564  0.00  0.00    +0.000 HD
BRANCH  23  25
ATOM     25  C   UNL     1       2.040   3.832  21.352  0.00  0.00    +0.000 C 
ATOM     26  C   UNL     1       1.203   2.675  21.836  0.00  0.00    +0.000 C 
ATOM     27  C   UNL     1       2.688   2.514  21.690  0.00  0.00    +0.000 C 
ENDBRANCH  23  25
ENDBRANCH  18  21
ENDBRANCH   1  15
TORSDOF 5
ENDMDL
MODEL 9
REMARK VINA RESULT:      -7.6      1.438      2.011
REMARK  Name = 
REMARK  6 active torsions:
REMARK  status: ('A' for Active; 'I' for Inactive)
REMARK    1  A    between atoms: C_1  and  C_2
REMARK    2  A    between atoms: C_4  and  C_5
REMARK    3  A    between atoms: C_13  and  C_14
REMARK    4  A    between atoms: C_14  and  N_15
REMARK    5  A    between atoms: C_18  and  C_19
REMARK    6  A    between atoms: N_21  and  C_22
REMARK                            x       y       z     vdW  Elec       q    Type
REMARK                         _______ _______ _______ _____ _____    ______ ____
ROOT
ATOM      1  C   UNL     1       4.150   4.925  19.482  0.00  0.00    +0.000 C 
ENDROOT
BRANCH   1   7
ATOM      2  C   UNL     1       1.224   3.878  20.848  0.00  0.00    +0.000 C 
ATOM      3  C   UNL     1       1.761   5.197  20.478  0.00  0.00    +0.000 A 
ATOM      4  O   UNL     1       0.962   6.264  20.749  0.00  0.00    +0.000 OA
ATOM      5  C   UNL     1       1.666   7.354  20.318  0.00  0.00    +0.000 A 
ATOM      6  N   UNL     1       2.849   7.057  19.813  0.00  0.00    +0.000 NA
ATOM      7  C   UNL     1       2.922   5.670  19.901  0.00  0.00    +0.000 A 
BRANCH   5   8
ATOM      8  C   UNL     1       0.980   8.636  20.470  0.00  0.00    +0.000 A 
ATOM      9  C   UNL     1       0.902   9.547  19.407  0.00  0.00    +0.000 A 
ATOM     10  C   UNL     1       0.201  10.752  19.551  0.00  0.00    +0.000 A 
ATOM     11  C   UNL     1      -0.426  11.058  20.760  0.00  0.00    +0.000 A 
ATOM     12  C   UNL     1      -0.342  10.166  21.823  0.00  0.00    +0.000 A 
ATOM     13 CL   UNL     1      -1.113  10.532  23.317  0.00  0.00    +0.000 Cl
ATOM     14  C   UNL     1       0.357   8.969  21.685  0.00  0.00    +0.000 A 
ENDBRANCH   5   8
ENDBRANCH   1   7
BRANCH   1  15
ATOM     15  N   UNL     1       5.030   5.701  18.563  0.00  0.00    +0.000 NA
ATOM     16  C   UNL     1       6.341   5.041  18.433  0.00  0.00    +0.000 C 
ATOM     17  C   UNL     1       7.235   5.617  17.323  0.00  0.00    +0.000 C 
ATOM     18  C   UNL     1       6.531   5.755  15.971  0.00  0.00    +0.000 C 
ATOM     19  C   UNL     1       5.187   6.458  16.174  0.00  0.00    +0.000 C 
ATOM     20  C   UNL     1       4.340   5.800  17.263  0.00  0.00    +0.000 C 
BRANCH  18  21
ATOM     21  C   UNL     1       6.381   4.439  15.195  0.00  0.00    +0.000 C 
ATOM     22  O   UNL     1       5.958   3.405  15.712  0.00  0.00    +0.000 OA
ATOM     23  N   UNL     1       6.705   4.524  13.853  0.00  0.00    +0.000 N 
ATOM     24  H   UNL     1       7.141   5.368  13.497  0.00  0.00    +0.000 HD
BRANCH  23  25
ATOM     25  C   UNL     1       6.562   3.409  12.963  0.00  0.00    +0.000 C 
ATOM     26  C   UNL     1       5.357   3.253  12.071  0.00  0.00    +0.000 C 
ATOM     27  C   UNL     1       6.692   3.584  11.472  0.00  0.00    +0.000 C 
ENDBRANCH  23  25
ENDBRANCH  18  21
ENDBRANCH   1  15
TORSDOF 5
ENDMDL
