MODEL 1
REMARK VINA RESULT:      -6.1      0.000      0.000
REMARK  Name = 
REMARK  15 active torsions:
REMARK  status: ('A' for Active; 'I' for Inactive)
REMARK    1  A    between atoms: C_1  and  C_2
REMARK    2  A    between atoms: N_4  and  C_5
REMARK    3  A    between atoms: C_6  and  O_7
REMARK    4  A    between atoms: C_9  and  O_10
REMARK    5  A    between atoms: C_9  and  C_23
REMARK    6  A    between atoms: O_10  and  C_11
REMARK    7  A    between atoms: C_14  and  N_15
REMARK    8  A    between atoms: C_19  and  C_20
REMARK    9  A    between atoms: C_23  and  O_25
REMARK   10  A    between atoms: C_27  and  C_28
REMARK   11  A    between atoms: C_28  and  O_29
REMARK   12  A    between atoms: C_28  and  C_30
REMARK   13  A    between atoms: C_30  and  O_31
REMARK   14  A    between atoms: C_30  and  C_32
REMARK   15  A    between atoms: C_32  and  O_33
REMARK                            x       y       z     vdW  Elec       q    Type
REMARK                         _______ _______ _______ _____ _____    ______ ____
ROOT
ATOM      1  C   UNL     1       0.353  10.839  18.829  0.00  0.00    +0.000 C 
ATOM      2  C   UNL     1       1.263  11.886  19.504  0.00  0.00    +0.000 C 
ATOM      3  C   UNL     1       0.792  12.482  20.831  0.00  0.00    +0.000 C 
ATOM      4  C   UNL     1      -0.734  12.652  21.056  0.00  0.00    +0.000 C 
ATOM      5  O   UNL     1      -1.346  11.384  20.582  0.00  0.00    +0.000 OA
ATOM      6  C   UNL     1      -1.151  11.007  19.208  0.00  0.00    +0.000 C 
ENDROOT
BRANCH   1  10
ATOM      7  C   UNL     1       2.353   7.580  18.554  0.00  0.00    +0.000 C 
ATOM      8  C   UNL     1       1.811   8.936  18.173  0.00  0.00    +0.000 C 
ATOM      9  O   UNL     1       2.220   9.553  17.197  0.00  0.00    +0.000 OA
ATOM     10  N   UNL     1       0.833   9.448  19.019  0.00  0.00    +0.000 N 
ATOM     11  H   UNL     1       0.656   8.954  19.885  0.00  0.00    +0.000 HD
ENDBRANCH   1  10
BRANCH   2  12
ATOM     12  O   UNL     1       1.580  12.943  18.592  0.00  0.00    +0.000 OA
ATOM     13  H   UNL     1       1.826  13.745  19.075  0.00  0.00    +0.000 HD
ENDBRANCH   2  12
BRANCH   4  14
ATOM     14  C   UNL     1      -0.955  12.371  22.637  0.00  0.00    +0.000 C 
ATOM     15  O   UNL     1      -1.502  13.130  23.427  0.00  0.00    +0.000 OA
BRANCH  14  16
ATOM     16  O   UNL     1      -0.404  11.196  23.024  0.00  0.00    +0.000 OA
ATOM     17  H   UNL     1       0.317  10.960  22.400  0.00  0.00    +0.000 HD
ENDBRANCH  14  16
ENDBRANCH   4  14
BRANCH   4  18
ATOM     18  O   UNL     1      -1.341  13.841  20.400  0.00  0.00    +0.000 OA
BRANCH  18  19
ATOM     19  C   UNL     1      -0.697  15.071  20.254  0.00  0.00    +0.000 A 
ATOM     20  C   UNL     1      -0.255  15.432  18.967  0.00  0.00    +0.000 A 
ATOM     21  C   UNL     1       0.527  16.551  18.689  0.00  0.00    +0.000 A 
ATOM     22  C   UNL     1       0.863  17.480  19.657  0.00  0.00    +0.000 A 
ATOM     23  C   UNL     1       0.351  17.222  20.919  0.00  0.00    +0.000 A 
ATOM     24  C   UNL     1      -0.474  16.074  21.261  0.00  0.00    +0.000 A 
BRANCH  22  25
ATOM     25  N   UNL     1       1.615  18.629  19.439  0.00  0.00    +0.000 NA
ATOM     26  N   UNL     1       2.744  18.615  19.992  0.00  0.00    +0.000 NA
ATOM     27  N   UNL     1       3.752  18.626  20.512  0.00  0.00    +0.000 NA
ENDBRANCH  22  25
BRANCH  24  28
ATOM     28  C   UNL     1      -1.106  16.406  22.619  0.00  0.00    +0.000 C 
ATOM     29  F   UNL     1      -0.969  17.592  23.224  0.00  0.00    +0.000 F 
ATOM     30  F   UNL     1      -2.460  16.145  22.645  0.00  0.00    +0.000 F 
ENDBRANCH  24  28
ENDBRANCH  18  19
ENDBRANCH   4  18
BRANCH   6  31
ATOM     31  C   UNL     1      -1.941  11.967  18.296  0.00  0.00    +0.000 C 
BRANCH  31  32
ATOM     32  O   UNL     1      -1.144  12.578  17.285  0.00  0.00    +0.000 OA
ATOM     33  H   UNL     1      -0.678  13.357  17.637  0.00  0.00    +0.000 HD
ENDBRANCH  31  32
BRANCH  31  34
ATOM     34  C   UNL     1      -3.192  11.272  17.682  0.00  0.00    +0.000 C 
BRANCH  34  35
ATOM     35  O   UNL     1      -4.187  12.266  17.548  0.00  0.00    +0.000 OA
ATOM     36  H   UNL     1      -5.053  11.828  17.462  0.00  0.00    +0.000 HD
ENDBRANCH  34  35
BRANCH  34  37
ATOM     37  C   UNL     1      -3.189  10.577  16.323  0.00  0.00    +0.000 C 
BRANCH  37  38
ATOM     38  O   UNL     1      -3.126  11.485  15.242  0.00  0.00    +0.000 OA
ATOM     39  H   UNL     1      -2.773  12.326  15.581  0.00  0.00    +0.000 HD
ENDBRANCH  37  38
ENDBRANCH  34  37
ENDBRANCH  31  34
ENDBRANCH   6  31
TORSDOF 14
ENDMDL
MODEL 2
REMARK VINA RESULT:      -6.0      3.402      7.153
REMARK  Name = 
REMARK  15 active torsions:
REMARK  status: ('A' for Active; 'I' for Inactive)
REMARK    1  A    between atoms: C_1  and  C_2
REMARK    2  A    between atoms: N_4  and  C_5
REMARK    3  A    between atoms: C_6  and  O_7
REMARK    4  A    between atoms: C_9  and  O_10
REMARK    5  A    between atoms: C_9  and  C_23
REMARK    6  A    between atoms: O_10  and  C_11
REMARK    7  A    between atoms: C_14  and  N_15
REMARK    8  A    between atoms: C_19  and  C_20
REMARK    9  A    between atoms: C_23  and  O_25
REMARK   10  A    between atoms: C_27  and  C_28
REMARK   11  A    between atoms: C_28  and  O_29
REMARK   12  A    between atoms: C_28  and  C_30
REMARK   13  A    between atoms: C_30  and  O_31
REMARK   14  A    between atoms: C_30  and  C_32
REMARK   15  A    between atoms: C_32  and  O_33
REMARK                            x       y       z     vdW  Elec       q    Type
REMARK                         _______ _______ _______ _____ _____    ______ ____
ROOT
ATOM      1  C   UNL     1      -1.949  13.390  20.247  0.00  0.00    +0.000 C 
ATOM      2  C   UNL     1      -0.950  12.758  21.238  0.00  0.00    +0.000 C 
ATOM      3  C   UNL     1       0.429  12.370  20.702  0.00  0.00    +0.000 C 
ATOM      4  C   UNL     1       0.536  11.901  19.228  0.00  0.00    +0.000 C 
ATOM      5  O   UNL     1      -0.294  12.856  18.448  0.00  0.00    +0.000 OA
ATOM      6  C   UNL     1      -1.692  12.961  18.769  0.00  0.00    +0.000 C 
ENDROOT
BRANCH   1  10
ATOM      7  C   UNL     1      -2.948  16.887  21.457  0.00  0.00    +0.000 C 
ATOM      8  C   UNL     1      -3.030  15.397  21.239  0.00  0.00    +0.000 C 
ATOM      9  O   UNL     1      -3.878  14.701  21.783  0.00  0.00    +0.000 OA
ATOM     10  N   UNL     1      -2.059  14.862  20.398  0.00  0.00    +0.000 N 
ATOM     11  H   UNL     1      -1.303  15.469  20.108  0.00  0.00    +0.000 HD
ENDBRANCH   1  10
BRANCH   2  12
ATOM     12  O   UNL     1      -1.538  11.632  21.899  0.00  0.00    +0.000 OA
ATOM     13  H   UNL     1      -2.399  11.422  21.511  0.00  0.00    +0.000 HD
ENDBRANCH   2  12
BRANCH   4  14
ATOM     14  C   UNL     1       1.970  12.459  18.716  0.00  0.00    +0.000 C 
ATOM     15  O   UNL     1       2.709  13.205  19.344  0.00  0.00    +0.000 OA
BRANCH  14  16
ATOM     16  O   UNL     1       2.253  12.048  17.458  0.00  0.00    +0.000 OA
ATOM     17  H   UNL     1       3.023  12.557  17.121  0.00  0.00    +0.000 HD
ENDBRANCH  14  16
ENDBRANCH   4  14
BRANCH   4  18
ATOM     18  O   UNL     1       0.134  10.489  18.984  0.00  0.00    +0.000 OA
BRANCH  18  19
ATOM     19  C   UNL     1       0.917   9.382  19.314  0.00  0.00    +0.000 A 
ATOM     20  C   UNL     1       1.705   8.809  18.298  0.00  0.00    +0.000 A 
ATOM     21  C   UNL     1       2.420   7.621  18.433  0.00  0.00    +0.000 A 
ATOM     22  C   UNL     1       2.502   6.937  19.633  0.00  0.00    +0.000 A 
ATOM     23  C   UNL     1       1.833   7.530  20.692  0.00  0.00    +0.000 A 
ATOM     24  C   UNL     1       1.077   8.770  20.607  0.00  0.00    +0.000 A 
BRANCH  22  25
ATOM     25  N   UNL     1       3.221   5.764  19.840  0.00  0.00    +0.000 NA
ATOM     26  N   UNL     1       4.079   5.526  18.953  0.00  0.00    +0.000 NA
ATOM     27  N   UNL     1       4.835   5.285  18.143  0.00  0.00    +0.000 NA
ENDBRANCH  22  25
BRANCH  24  28
ATOM     28  C   UNL     1       0.854   9.222  22.055  0.00  0.00    +0.000 C 
ATOM     29  F   UNL     1      -0.145   8.769  22.821  0.00  0.00    +0.000 F 
ATOM     30  F   UNL     1       1.989   9.083  22.828  0.00  0.00    +0.000 F 
ENDBRANCH  24  28
ENDBRANCH  18  19
ENDBRANCH   4  18
BRANCH   6  31
ATOM     31  C   UNL     1      -2.414  11.668  18.340  0.00  0.00    +0.000 C 
BRANCH  31  32
ATOM     32  O   UNL     1      -3.786  11.628  18.724  0.00  0.00    +0.000 OA
ATOM     33  H   UNL     1      -4.318  12.222  18.166  0.00  0.00    +0.000 HD
ENDBRANCH  31  32
BRANCH  31  34
ATOM     34  C   UNL     1      -2.249  11.400  16.815  0.00  0.00    +0.000 C 
BRANCH  34  35
ATOM     35  O   UNL     1      -1.388  10.288  16.687  0.00  0.00    +0.000 OA
ATOM     36  H   UNL     1      -1.690   9.589  17.295  0.00  0.00    +0.000 HD
ENDBRANCH  34  35
BRANCH  34  37
ATOM     37  C   UNL     1      -3.413  11.065  15.886  0.00  0.00    +0.000 C 
BRANCH  37  38
ATOM     38  O   UNL     1      -3.005  10.385  14.717  0.00  0.00    +0.000 OA
ATOM     39  H   UNL     1      -3.743  10.417  14.083  0.00  0.00    +0.000 HD
ENDBRANCH  37  38
ENDBRANCH  34  37
ENDBRANCH  31  34
ENDBRANCH   6  31
TORSDOF 14
ENDMDL
MODEL 3
REMARK VINA RESULT:      -6.0      3.153      7.501
REMARK  Name = 
REMARK  15 active torsions:
REMARK  status: ('A' for Active; 'I' for Inactive)
REMARK    1  A    between atoms: C_1  and  C_2
REMARK    2  A    between atoms: N_4  and  C_5
REMARK    3  A    between atoms: C_6  and  O_7
REMARK    4  A    between atoms: C_9  and  O_10
REMARK    5  A    between atoms: C_9  and  C_23
REMARK    6  A    between atoms: O_10  and  C_11
REMARK    7  A    between atoms: C_14  and  N_15
REMARK    8  A    between atoms: C_19  and  C_20
REMARK    9  A    between atoms: C_23  and  O_25
REMARK   10  A    between atoms: C_27  and  C_28
REMARK   11  A    between atoms: C_28  and  O_29
REMARK   12  A    between atoms: C_28  and  C_30
REMARK   13  A    between atoms: C_30  and  O_31
REMARK   14  A    between atoms: C_30  and  C_32
REMARK   15  A    between atoms: C_32  and  O_33
REMARK                            x       y       z     vdW  Elec       q    Type
REMARK                         _______ _______ _______ _____ _____    ______ ____
ROOT
ATOM      1  C   UNL     1      -1.457  14.516  20.359  0.00  0.00    +0.000 C 
ATOM      2  C   UNL     1      -0.259  14.069  19.497  0.00  0.00    +0.000 C 
ATOM      3  C   UNL     1      -0.470  12.885  18.552  0.00  0.00    +0.000 C 
ATOM      4  C   UNL     1      -1.458  11.770  18.984  0.00  0.00    +0.000 C 
ATOM      5  O   UNL     1      -2.648  12.483  19.518  0.00  0.00    +0.000 OA
ATOM      6  C   UNL     1      -2.467  13.360  20.642  0.00  0.00    +0.000 C 
ENDROOT
BRANCH   1  10
ATOM      7  C   UNL     1      -2.965  18.027  20.048  0.00  0.00    +0.000 C 
ATOM      8  C   UNL     1      -2.450  16.769  20.703  0.00  0.00    +0.000 C 
ATOM      9  O   UNL     1      -2.306  16.674  21.916  0.00  0.00    +0.000 OA
ATOM     10  N   UNL     1      -2.124  15.733  19.833  0.00  0.00    +0.000 N 
ATOM     11  H   UNL     1      -2.124  15.935  18.841  0.00  0.00    +0.000 HD
ENDBRANCH   1  10
BRANCH   2  12
ATOM     12  O   UNL     1       0.890  13.826  20.316  0.00  0.00    +0.000 OA
ATOM     13  H   UNL     1       0.755  13.041  20.865  0.00  0.00    +0.000 HD
ENDBRANCH   2  12
BRANCH   4  14
ATOM     14  C   UNL     1      -2.155  11.275  17.607  0.00  0.00    +0.000 C 
ATOM     15  O   UNL     1      -2.897  10.308  17.491  0.00  0.00    +0.000 OA
BRANCH  14  16
ATOM     16  O   UNL     1      -1.778  12.031  16.549  0.00  0.00    +0.000 OA
ATOM     17  H   UNL     1      -1.990  11.547  15.719  0.00  0.00    +0.000 HD
ENDBRANCH  14  16
ENDBRANCH   4  14
BRANCH   4  18
ATOM     18  O   UNL     1      -0.914  10.788  19.961  0.00  0.00    +0.000 OA
BRANCH  18  19
ATOM     19  C   UNL     1       0.124   9.898  19.683  0.00  0.00    +0.000 A 
ATOM     20  C   UNL     1       0.645   9.884  18.375  0.00  0.00    +0.000 A 
ATOM     21  C   UNL     1       1.574   8.956  17.909  0.00  0.00    +0.000 A 
ATOM     22  C   UNL     1       2.154   8.008  18.733  0.00  0.00    +0.000 A 
ATOM     23  C   UNL     1       1.753   8.061  20.058  0.00  0.00    +0.000 A 
ATOM     24  C   UNL     1       0.793   9.011  20.599  0.00  0.00    +0.000 A 
BRANCH  22  25
ATOM     25  N   UNL     1       3.105   7.074  18.336  0.00  0.00    +0.000 NA
ATOM     26  N   UNL     1       2.636   5.930  18.109  0.00  0.00    +0.000 NA
ATOM     27  N   UNL     1       2.229   4.887  17.931  0.00  0.00    +0.000 NA
ENDBRANCH  22  25
BRANCH  24  28
ATOM     28  C   UNL     1       0.956   8.947  22.122  0.00  0.00    +0.000 C 
ATOM     29  F   UNL     1       2.097   9.248  22.753  0.00  0.00    +0.000 F 
ATOM     30  F   UNL     1      -0.019   9.665  22.784  0.00  0.00    +0.000 F 
ENDBRANCH  24  28
ENDBRANCH  18  19
ENDBRANCH   4  18
BRANCH   6  31
ATOM     31  C   UNL     1      -2.150  12.525  21.899  0.00  0.00    +0.000 C 
BRANCH  31  32
ATOM     32  O   UNL     1      -0.825  12.711  22.389  0.00  0.00    +0.000 OA
ATOM     33  H   UNL     1      -0.632  12.086  23.110  0.00  0.00    +0.000 HD
ENDBRANCH  31  32
BRANCH  31  34
ATOM     34  C   UNL     1      -3.202  12.760  23.022  0.00  0.00    +0.000 C 
BRANCH  34  35
ATOM     35  O   UNL     1      -3.173  11.620  23.855  0.00  0.00    +0.000 OA
ATOM     36  H   UNL     1      -2.249  11.448  24.115  0.00  0.00    +0.000 HD
ENDBRANCH  34  35
BRANCH  34  37
ATOM     37  C   UNL     1      -3.142  13.928  24.004  0.00  0.00    +0.000 C 
BRANCH  37  38
ATOM     38  O   UNL     1      -1.912  14.621  23.958  0.00  0.00    +0.000 OA
ATOM     39  H   UNL     1      -1.571  14.561  23.048  0.00  0.00    +0.000 HD
ENDBRANCH  37  38
ENDBRANCH  34  37
ENDBRANCH  31  34
ENDBRANCH   6  31
TORSDOF 14
ENDMDL
MODEL 4
REMARK VINA RESULT:      -6.0      3.570      7.187
REMARK  Name = 
REMARK  15 active torsions:
REMARK  status: ('A' for Active; 'I' for Inactive)
REMARK    1  A    between atoms: C_1  and  C_2
REMARK    2  A    between atoms: N_4  and  C_5
REMARK    3  A    between atoms: C_6  and  O_7
REMARK    4  A    between atoms: C_9  and  O_10
REMARK    5  A    between atoms: C_9  and  C_23
REMARK    6  A    between atoms: O_10  and  C_11
REMARK    7  A    between atoms: C_14  and  N_15
REMARK    8  A    between atoms: C_19  and  C_20
REMARK    9  A    between atoms: C_23  and  O_25
REMARK   10  A    between atoms: C_27  and  C_28
REMARK   11  A    between atoms: C_28  and  O_29
REMARK   12  A    between atoms: C_28  and  C_30
REMARK   13  A    between atoms: C_30  and  O_31
REMARK   14  A    between atoms: C_30  and  C_32
REMARK   15  A    between atoms: C_32  and  O_33
REMARK                            x       y       z     vdW  Elec       q    Type
REMARK                         _______ _______ _______ _____ _____    ______ ____
ROOT
ATOM      1  C   UNL     1      -1.855  12.797  19.964  0.00  0.00    +0.000 C 
ATOM      2  C   UNL     1      -0.850  12.144  20.935  0.00  0.00    +0.000 C 
ATOM      3  C   UNL     1       0.572  11.905  20.425  0.00  0.00    +0.000 C 
ATOM      4  C   UNL     1       0.766  11.586  18.920  0.00  0.00    +0.000 C 
ATOM      5  O   UNL     1      -0.102  12.552  18.197  0.00  0.00    +0.000 OA
ATOM      6  C   UNL     1      -1.514  12.530  18.465  0.00  0.00    +0.000 C 
ENDROOT
BRANCH   1  10
ATOM      7  C   UNL     1      -3.302  16.098  21.270  0.00  0.00    +0.000 C 
ATOM      8  C   UNL     1      -3.248  14.643  20.876  0.00  0.00    +0.000 C 
ATOM      9  O   UNL     1      -4.165  13.866  21.114  0.00  0.00    +0.000 OA
ATOM     10  N   UNL     1      -2.077  14.238  20.245  0.00  0.00    +0.000 N 
ATOM     11  H   UNL     1      -1.307  14.894  20.219  0.00  0.00    +0.000 HD
ENDBRANCH   1  10
BRANCH   2  12
ATOM     12  O   UNL     1      -1.379  10.924  21.463  0.00  0.00    +0.000 OA
ATOM     13  H   UNL     1      -2.249  10.738  21.083  0.00  0.00    +0.000 HD
ENDBRANCH   2  12
BRANCH   4  14
ATOM     14  C   UNL     1       2.174  12.287  18.524  0.00  0.00    +0.000 C 
ATOM     15  O   UNL     1       2.841  13.009  19.254  0.00  0.00    +0.000 OA
BRANCH  14  16
ATOM     16  O   UNL     1       2.524  12.031  17.241  0.00  0.00    +0.000 OA
ATOM     17  H   UNL     1       1.749  11.655  16.768  0.00  0.00    +0.000 HD
ENDBRANCH  14  16
ENDBRANCH   4  14
BRANCH   4  18
ATOM     18  O   UNL     1       0.477  10.180  18.529  0.00  0.00    +0.000 OA
BRANCH  18  19
ATOM     19  C   UNL     1       1.354   9.113  18.731  0.00  0.00    +0.000 A 
ATOM     20  C   UNL     1       2.282   8.825  17.713  0.00  0.00    +0.000 A 
ATOM     21  C   UNL     1       3.118   7.710  17.702  0.00  0.00    +0.000 A 
ATOM     22  C   UNL     1       3.181   6.821  18.761  0.00  0.00    +0.000 A 
ATOM     23  C   UNL     1       2.365   7.132  19.836  0.00  0.00    +0.000 A 
ATOM     24  C   UNL     1       1.479   8.284  19.901  0.00  0.00    +0.000 A 
BRANCH  22  25
ATOM     25  N   UNL     1       4.012   5.707  18.823  0.00  0.00    +0.000 NA
ATOM     26  N   UNL     1       5.162   5.899  18.353  0.00  0.00    +0.000 NA
ATOM     27  N   UNL     1       6.192   6.051  17.904  0.00  0.00    +0.000 NA
ENDBRANCH  22  25
BRANCH  24  28
ATOM     28  C   UNL     1       1.089   8.426  21.377  0.00  0.00    +0.000 C 
ATOM     29  F   UNL     1       1.394   9.497  22.119  0.00  0.00    +0.000 F 
ATOM     30  F   UNL     1      -0.260   8.219  21.585  0.00  0.00    +0.000 F 
ENDBRANCH  24  28
ENDBRANCH  18  19
ENDBRANCH   4  18
BRANCH   6  31
ATOM     31  C   UNL     1      -2.125  11.237  17.888  0.00  0.00    +0.000 C 
BRANCH  31  32
ATOM     32  O   UNL     1      -2.252  10.190  18.846  0.00  0.00    +0.000 OA
ATOM     33  H   UNL     1      -2.818   9.476  18.503  0.00  0.00    +0.000 HD
ENDBRANCH  31  32
BRANCH  31  34
ATOM     34  C   UNL     1      -3.481  11.515  17.175  0.00  0.00    +0.000 C 
BRANCH  34  35
ATOM     35  O   UNL     1      -3.669  10.478  16.235  0.00  0.00    +0.000 OA
ATOM     36  H   UNL     1      -3.912   9.664  16.713  0.00  0.00    +0.000 HD
ENDBRANCH  34  35
BRANCH  34  37
ATOM     37  C   UNL     1      -4.820  11.586  17.907  0.00  0.00    +0.000 C 
BRANCH  37  38
ATOM     38  O   UNL     1      -5.076  12.860  18.461  0.00  0.00    +0.000 OA
ATOM     39  H   UNL     1      -5.998  13.092  18.257  0.00  0.00    +0.000 HD
ENDBRANCH  37  38
ENDBRANCH  34  37
ENDBRANCH  31  34
ENDBRANCH   6  31
TORSDOF 14
ENDMDL
MODEL 5
REMARK VINA RESULT:      -6.0      4.034      5.127
REMARK  Name = 
REMARK  15 active torsions:
REMARK  status: ('A' for Active; 'I' for Inactive)
REMARK    1  A    between atoms: C_1  and  C_2
REMARK    2  A    between atoms: N_4  and  C_5
REMARK    3  A    between atoms: C_6  and  O_7
REMARK    4  A    between atoms: C_9  and  O_10
REMARK    5  A    between atoms: C_9  and  C_23
REMARK    6  A    between atoms: O_10  and  C_11
REMARK    7  A    between atoms: C_14  and  N_15
REMARK    8  A    between atoms: C_19  and  C_20
REMARK    9  A    between atoms: C_23  and  O_25
REMARK   10  A    between atoms: C_27  and  C_28
REMARK   11  A    between atoms: C_28  and  O_29
REMARK   12  A    between atoms: C_28  and  C_30
REMARK   13  A    between atoms: C_30  and  O_31
REMARK   14  A    between atoms: C_30  and  C_32
REMARK   15  A    between atoms: C_32  and  O_33
REMARK                            x       y       z     vdW  Elec       q    Type
REMARK                         _______ _______ _______ _____ _____    ______ ____
ROOT
ATOM      1  C   UNL     1       0.751  10.672  17.945  0.00  0.00    +0.000 C 
ATOM      2  C   UNL     1       1.385  11.743  18.855  0.00  0.00    +0.000 C 
ATOM      3  C   UNL     1       0.902  11.817  20.304  0.00  0.00    +0.000 C 
ATOM      4  C   UNL     1      -0.576  11.451  20.602  0.00  0.00    +0.000 C 
ATOM      5  O   UNL     1      -0.842  10.216  19.818  0.00  0.00    +0.000 OA
ATOM      6  C   UNL     1      -0.690  10.272  18.390  0.00  0.00    +0.000 C 
ENDROOT
BRANCH   1  10
ATOM      7  C   UNL     1       2.608   7.355  18.440  0.00  0.00    +0.000 C 
ATOM      8  C   UNL     1       1.844   8.607  18.794  0.00  0.00    +0.000 C 
ATOM      9  O   UNL     1       1.423   8.820  19.925  0.00  0.00    +0.000 OA
ATOM     10  N   UNL     1       1.629   9.492  17.743  0.00  0.00    +0.000 N 
ATOM     11  H   UNL     1       1.871   9.182  16.810  0.00  0.00    +0.000 HD
ENDBRANCH   1  10
BRANCH   2  12
ATOM     12  O   UNL     1       1.288  13.039  18.254  0.00  0.00    +0.000 OA
ATOM     13  H   UNL     1       2.049  13.584  18.499  0.00  0.00    +0.000 HD
ENDBRANCH   2  12
BRANCH   4  14
ATOM     14  C   UNL     1      -0.541  10.731  22.054  0.00  0.00    +0.000 C 
ATOM     15  O   UNL     1      -0.403  11.300  23.130  0.00  0.00    +0.000 OA
BRANCH  14  16
ATOM     16  O   UNL     1      -0.627   9.383  21.953  0.00  0.00    +0.000 OA
ATOM     17  H   UNL     1      -1.301   9.058  22.591  0.00  0.00    +0.000 HD
ENDBRANCH  14  16
ENDBRANCH   4  14
BRANCH   4  18
ATOM     18  O   UNL     1      -1.564  12.522  20.304  0.00  0.00    +0.000 OA
BRANCH  18  19
ATOM     19  C   UNL     1      -2.741  12.726  21.024  0.00  0.00    +0.000 A 
ATOM     20  C   UNL     1      -2.637  13.313  22.300  0.00  0.00    +0.000 A 
ATOM     21  C   UNL     1      -3.698  13.445  23.194  0.00  0.00    +0.000 A 
ATOM     22  C   UNL     1      -4.995  13.096  22.862  0.00  0.00    +0.000 A 
ATOM     23  C   UNL     1      -5.162  12.619  21.572  0.00  0.00    +0.000 A 
ATOM     24  C   UNL     1      -4.092  12.467  20.598  0.00  0.00    +0.000 A 
BRANCH  22  25
ATOM     25  N   UNL     1      -6.100  13.229  23.697  0.00  0.00    +0.000 NA
ATOM     26  N   UNL     1      -6.814  12.197  23.770  0.00  0.00    +0.000 NA
ATOM     27  N   UNL     1      -7.483  11.283  23.818  0.00  0.00    +0.000 NA
ENDBRANCH  22  25
BRANCH  24  28
ATOM     28  C   UNL     1      -4.785  12.288  19.242  0.00  0.00    +0.000 C 
ATOM     29  F   UNL     1      -5.441  11.176  18.892  0.00  0.00    +0.000 F 
ATOM     30  F   UNL     1      -5.655  13.321  18.959  0.00  0.00    +0.000 F 
ENDBRANCH  24  28
ENDBRANCH  18  19
ENDBRANCH   4  18
BRANCH   6  31
ATOM     31  C   UNL     1      -1.813  11.141  17.788  0.00  0.00    +0.000 C 
BRANCH  31  32
ATOM     32  O   UNL     1      -1.361  12.403  17.306  0.00  0.00    +0.000 OA
ATOM     33  H   UNL     1      -0.893  12.301  16.459  0.00  0.00    +0.000 HD
ENDBRANCH  31  32
BRANCH  31  34
ATOM     34  C   UNL     1      -2.605  10.371  16.691  0.00  0.00    +0.000 C 
BRANCH  34  35
ATOM     35  O   UNL     1      -3.416   9.426  17.359  0.00  0.00    +0.000 OA
ATOM     36  H   UNL     1      -2.918   9.071  18.118  0.00  0.00    +0.000 HD
ENDBRANCH  34  35
BRANCH  34  37
ATOM     37  C   UNL     1      -3.565  11.044  15.714  0.00  0.00    +0.000 C 
BRANCH  37  38
ATOM     38  O   UNL     1      -3.338  10.666  14.372  0.00  0.00    +0.000 OA
ATOM     39  H   UNL     1      -4.107  10.954  13.849  0.00  0.00    +0.000 HD
ENDBRANCH  37  38
ENDBRANCH  34  37
ENDBRANCH  31  34
ENDBRANCH   6  31
TORSDOF 14
ENDMDL
MODEL 6
REMARK VINA RESULT:      -5.9      3.738      5.881
REMARK  Name = 
REMARK  15 active torsions:
REMARK  status: ('A' for Active; 'I' for Inactive)
REMARK    1  A    between atoms: C_1  and  C_2
REMARK    2  A    between atoms: N_4  and  C_5
REMARK    3  A    between atoms: C_6  and  O_7
REMARK    4  A    between atoms: C_9  and  O_10
REMARK    5  A    between atoms: C_9  and  C_23
REMARK    6  A    between atoms: O_10  and  C_11
REMARK    7  A    between atoms: C_14  and  N_15
REMARK    8  A    between atoms: C_19  and  C_20
REMARK    9  A    between atoms: C_23  and  O_25
REMARK   10  A    between atoms: C_27  and  C_28
REMARK   11  A    between atoms: C_28  and  O_29
REMARK   12  A    between atoms: C_28  and  C_30
REMARK   13  A    between atoms: C_30  and  O_31
REMARK   14  A    between atoms: C_30  and  C_32
REMARK   15  A    between atoms: C_32  and  O_33
REMARK                            x       y       z     vdW  Elec       q    Type
REMARK                         _______ _______ _______ _____ _____    ______ ____
ROOT
ATOM      1  C   UNL     1       1.089   9.926  19.571  0.00  0.00    +0.000 C 
ATOM      2  C   UNL     1      -0.265   9.478  20.158  0.00  0.00    +0.000 C 
ATOM      3  C   UNL     1      -1.533   9.904  19.417  0.00  0.00    +0.000 C 
ATOM      4  C   UNL     1      -1.524  11.266  18.674  0.00  0.00    +0.000 C 
ATOM      5  O   UNL     1      -0.223  11.316  17.957  0.00  0.00    +0.000 OA
ATOM      6  C   UNL     1       0.984  11.239  18.735  0.00  0.00    +0.000 C 
ENDROOT
BRANCH   1  10
ATOM      7  C   UNL     1       2.630   6.550  18.612  0.00  0.00    +0.000 C 
ATOM      8  C   UNL     1       2.077   7.647  19.488  0.00  0.00    +0.000 C 
ATOM      9  O   UNL     1       1.875   7.489  20.686  0.00  0.00    +0.000 OA
ATOM     10  N   UNL     1       1.788   8.841  18.838  0.00  0.00    +0.000 N 
ATOM     11  H   UNL     1       1.837   8.850  17.827  0.00  0.00    +0.000 HD
ENDBRANCH   1  10
BRANCH   2  12
ATOM     12  O   UNL     1      -0.369   9.855  21.535  0.00  0.00    +0.000 OA
ATOM     13  H   UNL     1      -0.320   9.075  22.105  0.00  0.00    +0.000 HD
ENDBRANCH   2  12
BRANCH   4  14
ATOM     14  C   UNL     1      -2.439  11.027  17.356  0.00  0.00    +0.000 C 
ATOM     15  O   UNL     1      -3.318  10.183  17.242  0.00  0.00    +0.000 OA
BRANCH  14  16
ATOM     16  O   UNL     1      -2.083  11.847  16.339  0.00  0.00    +0.000 OA
ATOM     17  H   UNL     1      -1.828  11.301  15.563  0.00  0.00    +0.000 HD
ENDBRANCH  14  16
ENDBRANCH   4  14
BRANCH   4  18
ATOM     18  O   UNL     1      -1.728  12.458  19.539  0.00  0.00    +0.000 OA
BRANCH  18  19
ATOM     19  C   UNL     1      -2.786  12.606  20.436  0.00  0.00    +0.000 A 
ATOM     20  C   UNL     1      -4.095  12.571  19.919  0.00  0.00    +0.000 A 
ATOM     21  C   UNL     1      -5.242  12.848  20.660  0.00  0.00    +0.000 A 
ATOM     22  C   UNL     1      -5.204  13.090  22.022  0.00  0.00    +0.000 A 
ATOM     23  C   UNL     1      -3.944  13.020  22.594  0.00  0.00    +0.000 A 
ATOM     24  C   UNL     1      -2.717  12.730  21.869  0.00  0.00    +0.000 A 
BRANCH  22  25
ATOM     25  N   UNL     1      -6.313  13.345  22.822  0.00  0.00    +0.000 NA
ATOM     26  N   UNL     1      -6.818  12.317  23.341  0.00  0.00    +0.000 NA
ATOM     27  N   UNL     1      -7.300  11.394  23.788  0.00  0.00    +0.000 NA
ENDBRANCH  22  25
BRANCH  24  28
ATOM     28  C   UNL     1      -1.674  12.382  22.938  0.00  0.00    +0.000 C 
ATOM     29  F   UNL     1      -1.193  13.273  23.813  0.00  0.00    +0.000 F 
ATOM     30  F   UNL     1      -2.048  11.296  23.702  0.00  0.00    +0.000 F 
ENDBRANCH  24  28
ENDBRANCH  18  19
ENDBRANCH   4  18
BRANCH   6  31
ATOM     31  C   UNL     1       1.152  12.536  19.551  0.00  0.00    +0.000 C 
BRANCH  31  32
ATOM     32  O   UNL     1       1.409  12.310  20.934  0.00  0.00    +0.000 OA
ATOM     33  H   UNL     1       1.933  11.500  21.060  0.00  0.00    +0.000 HD
ENDBRANCH  31  32
BRANCH  31  34
ATOM     34  C   UNL     1       2.228  13.471  18.924  0.00  0.00    +0.000 C 
BRANCH  34  35
ATOM     35  O   UNL     1       2.253  13.195  17.539  0.00  0.00    +0.000 OA
ATOM     36  H   UNL     1       2.980  12.571  17.359  0.00  0.00    +0.000 HD
ENDBRANCH  34  35
BRANCH  34  37
ATOM     37  C   UNL     1       2.163  14.995  18.988  0.00  0.00    +0.000 C 
BRANCH  37  38
ATOM     38  O   UNL     1       1.481  15.468  20.131  0.00  0.00    +0.000 OA
ATOM     39  H   UNL     1       1.183  14.693  20.641  0.00  0.00    +0.000 HD
ENDBRANCH  37  38
ENDBRANCH  34  37
ENDBRANCH  31  34
ENDBRANCH   6  31
TORSDOF 14
ENDMDL
MODEL 7
REMARK VINA RESULT:      -5.9      3.868      7.448
REMARK  Name = 
REMARK  15 active torsions:
REMARK  status: ('A' for Active; 'I' for Inactive)
REMARK    1  A    between atoms: C_1  and  C_2
REMARK    2  A    between atoms: N_4  and  C_5
REMARK    3  A    between atoms: C_6  and  O_7
REMARK    4  A    between atoms: C_9  and  O_10
REMARK    5  A    between atoms: C_9  and  C_23
REMARK    6  A    between atoms: O_10  and  C_11
REMARK    7  A    between atoms: C_14  and  N_15
REMARK    8  A    between atoms: C_19  and  C_20
REMARK    9  A    between atoms: C_23  and  O_25
REMARK   10  A    between atoms: C_27  and  C_28
REMARK   11  A    between atoms: C_28  and  O_29
REMARK   12  A    between atoms: C_28  and  C_30
REMARK   13  A    between atoms: C_30  and  O_31
REMARK   14  A    between atoms: C_30  and  C_32
REMARK   15  A    between atoms: C_32  and  O_33
REMARK                            x       y       z     vdW  Elec       q    Type
REMARK                         _______ _______ _______ _____ _____    ______ ____
ROOT
ATOM      1  C   UNL     1      -1.975  15.146  22.338  0.00  0.00    +0.000 C 
ATOM      2  C   UNL     1      -2.917  14.088  21.728  0.00  0.00    +0.000 C 
ATOM      3  C   UNL     1      -2.442  12.634  21.731  0.00  0.00    +0.000 C 
ATOM      4  C   UNL     1      -0.922  12.359  21.595  0.00  0.00    +0.000 C 
ATOM      5  O   UNL     1      -0.262  13.331  22.505  0.00  0.00    +0.000 OA
ATOM      6  C   UNL     1      -0.472  14.733  22.270  0.00  0.00    +0.000 C 
ENDROOT
BRANCH   1  10
ATOM      7  C   UNL     1      -3.755  16.871  25.262  0.00  0.00    +0.000 C 
ATOM      8  C   UNL     1      -3.267  16.633  23.855  0.00  0.00    +0.000 C 
ATOM      9  O   UNL     1      -3.640  17.315  22.908  0.00  0.00    +0.000 OA
ATOM     10  N   UNL     1      -2.385  15.568  23.700  0.00  0.00    +0.000 N 
ATOM     11  H   UNL     1      -2.242  14.958  24.495  0.00  0.00    +0.000 HD
ENDBRANCH   1  10
BRANCH   2  12
ATOM     12  O   UNL     1      -3.304  14.460  20.401  0.00  0.00    +0.000 OA
ATOM     13  H   UNL     1      -2.524  14.565  19.837  0.00  0.00    +0.000 HD
ENDBRANCH   2  12
BRANCH   4  14
ATOM     14  C   UNL     1      -0.651  11.050  22.511  0.00  0.00    +0.000 C 
ATOM     15  O   UNL     1      -1.416  10.599  23.355  0.00  0.00    +0.000 OA
BRANCH  14  16
ATOM     16  O   UNL     1       0.573  10.517  22.284  0.00  0.00    +0.000 OA
ATOM     17  H   UNL     1       1.259  11.155  22.578  0.00  0.00    +0.000 HD
ENDBRANCH  14  16
ENDBRANCH   4  14
BRANCH   4  18
ATOM     18  O   UNL     1      -0.386  12.445  20.209  0.00  0.00    +0.000 OA
BRANCH  18  19
ATOM     19  C   UNL     1      -0.820  11.648  19.149  0.00  0.00    +0.000 A 
ATOM     20  C   UNL     1      -1.927  12.094  18.402  0.00  0.00    +0.000 A 
ATOM     21  C   UNL     1      -2.564  11.344  17.416  0.00  0.00    +0.000 A 
ATOM     22  C   UNL     1      -2.094  10.109  17.005  0.00  0.00    +0.000 A 
ATOM     23  C   UNL     1      -0.937   9.682  17.636  0.00  0.00    +0.000 A 
ATOM     24  C   UNL     1      -0.230  10.427  18.666  0.00  0.00    +0.000 A 
BRANCH  22  25
ATOM     25  N   UNL     1      -2.667   9.325  16.008  0.00  0.00    +0.000 NA
ATOM     26  N   UNL     1      -2.879   9.939  14.932  0.00  0.00    +0.000 NA
ATOM     27  N   UNL     1      -3.104  10.490  13.967  0.00  0.00    +0.000 NA
ENDBRANCH  22  25
BRANCH  24  28
ATOM     28  C   UNL     1       1.151   9.771  18.780  0.00  0.00    +0.000 C 
ATOM     29  F   UNL     1       1.405   8.723  19.571  0.00  0.00    +0.000 F 
ATOM     30  F   UNL     1       1.669   9.424  17.549  0.00  0.00    +0.000 F 
ENDBRANCH  24  28
ENDBRANCH  18  19
ENDBRANCH   4  18
BRANCH   6  31
ATOM     31  C   UNL     1       0.251  15.149  20.973  0.00  0.00    +0.000 C 
BRANCH  31  32
ATOM     32  O   UNL     1      -0.168  16.414  20.467  0.00  0.00    +0.000 OA
ATOM     33  H   UNL     1      -1.040  16.657  20.824  0.00  0.00    +0.000 HD
ENDBRANCH  31  32
BRANCH  31  34
ATOM     34  C   UNL     1       1.798  15.094  21.138  0.00  0.00    +0.000 C 
BRANCH  34  35
ATOM     35  O   UNL     1       2.059  15.017  22.523  0.00  0.00    +0.000 OA
ATOM     36  H   UNL     1       1.712  14.170  22.859  0.00  0.00    +0.000 HD
ENDBRANCH  34  35
BRANCH  34  37
ATOM     37  C   UNL     1       2.671  13.991  20.543  0.00  0.00    +0.000 C 
BRANCH  37  38
ATOM     38  O   UNL     1       2.327  12.705  21.014  0.00  0.00    +0.000 OA
ATOM     39  H   UNL     1       1.439  12.761  21.409  0.00  0.00    +0.000 HD
ENDBRANCH  37  38
ENDBRANCH  34  37
ENDBRANCH  31  34
ENDBRANCH   6  31
TORSDOF 14
ENDMDL
MODEL 8
REMARK VINA RESULT:      -5.9      3.370      3.814
REMARK  Name = 
REMARK  15 active torsions:
REMARK  status: ('A' for Active; 'I' for Inactive)
REMARK    1  A    between atoms: C_1  and  C_2
REMARK    2  A    between atoms: N_4  and  C_5
REMARK    3  A    between atoms: C_6  and  O_7
REMARK    4  A    between atoms: C_9  and  O_10
REMARK    5  A    between atoms: C_9  and  C_23
REMARK    6  A    between atoms: O_10  and  C_11
REMARK    7  A    between atoms: C_14  and  N_15
REMARK    8  A    between atoms: C_19  and  C_20
REMARK    9  A    between atoms: C_23  and  O_25
REMARK   10  A    between atoms: C_27  and  C_28
REMARK   11  A    between atoms: C_28  and  O_29
REMARK   12  A    between atoms: C_28  and  C_30
REMARK   13  A    between atoms: C_30  and  O_31
REMARK   14  A    between atoms: C_30  and  C_32
REMARK   15  A    between atoms: C_32  and  O_33
REMARK                            x       y       z     vdW  Elec       q    Type
REMARK                         _______ _______ _______ _____ _____    ______ ____
ROOT
ATOM      1  C   UNL     1       0.395  10.579  18.790  0.00  0.00    +0.000 C 
ATOM      2  C   UNL     1       1.246  11.786  19.236  0.00  0.00    +0.000 C 
ATOM      3  C   UNL     1       0.829  12.512  20.516  0.00  0.00    +0.000 C 
ATOM      4  C   UNL     1      -0.682  12.571  20.865  0.00  0.00    +0.000 C 
ATOM      5  O   UNL     1      -1.198  11.199  20.617  0.00  0.00    +0.000 OA
ATOM      6  C   UNL     1      -1.081  10.658  19.290  0.00  0.00    +0.000 C 
ENDROOT
BRANCH   1  10
ATOM      7  C   UNL     1       2.646   7.477  18.697  0.00  0.00    +0.000 C 
ATOM      8  C   UNL     1       1.926   8.709  18.207  0.00  0.00    +0.000 C 
ATOM      9  O   UNL     1       2.133   9.192  17.100  0.00  0.00    +0.000 OA
ATOM     10  N   UNL     1       1.031   9.276  19.108  0.00  0.00    +0.000 N 
ATOM     11  H   UNL     1       1.024   8.915  20.054  0.00  0.00    +0.000 HD
ENDBRANCH   1  10
BRANCH   2  12
ATOM     12  O   UNL     1       1.374  12.734  18.171  0.00  0.00    +0.000 OA
ATOM     13  H   UNL     1       1.246  12.302  17.314  0.00  0.00    +0.000 HD
ENDBRANCH   2  12
BRANCH   4  14
ATOM     14  C   UNL     1      -0.739  12.488  22.483  0.00  0.00    +0.000 C 
ATOM     15  O   UNL     1      -1.004  13.417  23.236  0.00  0.00    +0.000 OA
BRANCH  14  16
ATOM     16  O   UNL     1      -0.396  11.260  22.939  0.00  0.00    +0.000 OA
ATOM     17  H   UNL     1      -1.167  10.865  23.403  0.00  0.00    +0.000 HD
ENDBRANCH  14  16
ENDBRANCH   4  14
BRANCH   4  18
ATOM     18  O   UNL     1      -1.461  13.599  20.125  0.00  0.00    +0.000 OA
BRANCH  18  19
ATOM     19  C   UNL     1      -2.505  14.342  20.678  0.00  0.00    +0.000 A 
ATOM     20  C   UNL     1      -2.273  15.706  20.938  0.00  0.00    +0.000 A 
ATOM     21  C   UNL     1      -3.159  16.538  21.619  0.00  0.00    +0.000 A 
ATOM     22  C   UNL     1      -4.414  16.115  22.021  0.00  0.00    +0.000 A 
ATOM     23  C   UNL     1      -4.728  14.809  21.683  0.00  0.00    +0.000 A 
ATOM     24  C   UNL     1      -3.844  13.901  20.969  0.00  0.00    +0.000 A 
BRANCH  22  25
ATOM     25  N   UNL     1      -5.353  16.903  22.679  0.00  0.00    +0.000 NA
ATOM     26  N   UNL     1      -5.137  17.037  23.910  0.00  0.00    +0.000 NA
ATOM     27  N   UNL     1      -4.971  17.138  25.027  0.00  0.00    +0.000 NA
ENDBRANCH  22  25
BRANCH  24  28
ATOM     28  C   UNL     1      -4.731  12.744  20.493  0.00  0.00    +0.000 C 
ATOM     29  F   UNL     1      -5.509  12.028  21.314  0.00  0.00    +0.000 F 
ATOM     30  F   UNL     1      -5.554  13.112  19.449  0.00  0.00    +0.000 F 
ENDBRANCH  24  28
ENDBRANCH  18  19
ENDBRANCH   4  18
BRANCH   6  31
ATOM     31  C   UNL     1      -2.040  11.409  18.344  0.00  0.00    +0.000 C 
BRANCH  31  32
ATOM     32  O   UNL     1      -1.400  12.416  17.565  0.00  0.00    +0.000 OA
ATOM     33  H   UNL     1      -2.050  12.904  17.030  0.00  0.00    +0.000 HD
ENDBRANCH  31  32
BRANCH  31  34
ATOM     34  C   UNL     1      -2.840  10.425  17.442  0.00  0.00    +0.000 C 
BRANCH  34  35
ATOM     35  O   UNL     1      -4.206  10.605  17.751  0.00  0.00    +0.000 OA
ATOM     36  H   UNL     1      -4.346  10.376  18.689  0.00  0.00    +0.000 HD
ENDBRANCH  34  35
BRANCH  34  37
ATOM     37  C   UNL     1      -2.807  10.462  15.916  0.00  0.00    +0.000 C 
BRANCH  37  38
ATOM     38  O   UNL     1      -3.204  11.710  15.388  0.00  0.00    +0.000 OA
ATOM     39  H   UNL     1      -3.963  11.555  14.799  0.00  0.00    +0.000 HD
ENDBRANCH  37  38
ENDBRANCH  34  37
ENDBRANCH  31  34
ENDBRANCH   6  31
TORSDOF 14
ENDMDL
MODEL 9
REMARK VINA RESULT:      -5.8      3.087      7.473
REMARK  Name = 
REMARK  15 active torsions:
REMARK  status: ('A' for Active; 'I' for Inactive)
REMARK    1  A    between atoms: C_1  and  C_2
REMARK    2  A    between atoms: N_4  and  C_5
REMARK    3  A    between atoms: C_6  and  O_7
REMARK    4  A    between atoms: C_9  and  O_10
REMARK    5  A    between atoms: C_9  and  C_23
REMARK    6  A    between atoms: O_10  and  C_11
REMARK    7  A    between atoms: C_14  and  N_15
REMARK    8  A    between atoms: C_19  and  C_20
REMARK    9  A    between atoms: C_23  and  O_25
REMARK   10  A    between atoms: C_27  and  C_28
REMARK   11  A    between atoms: C_28  and  O_29
REMARK   12  A    between atoms: C_28  and  C_30
REMARK   13  A    between atoms: C_30  and  O_31
REMARK   14  A    between atoms: C_30  and  C_32
REMARK   15  A    between atoms: C_32  and  O_33
REMARK                            x       y       z     vdW  Elec       q    Type
REMARK                         _______ _______ _______ _____ _____    ______ ____
ROOT
ATOM      1  C   UNL     1      -0.471  15.042  19.928  0.00  0.00    +0.000 C 
ATOM      2  C   UNL     1       0.494  14.480  18.864  0.00  0.00    +0.000 C 
ATOM      3  C   UNL     1       0.122  13.152  18.204  0.00  0.00    +0.000 C 
ATOM      4  C   UNL     1      -0.654  12.106  19.047  0.00  0.00    +0.000 C 
ATOM      5  O   UNL     1      -1.710  12.876  19.756  0.00  0.00    +0.000 OA
ATOM      6  C   UNL     1      -1.303  13.932  20.642  0.00  0.00    +0.000 C 
ENDROOT
BRANCH   1  10
ATOM      7  C   UNL     1      -2.108  18.466  19.381  0.00  0.00    +0.000 C 
ATOM      8  C   UNL     1      -1.351  17.363  20.079  0.00  0.00    +0.000 C 
ATOM      9  O   UNL     1      -0.781  17.535  21.149  0.00  0.00    +0.000 OA
ATOM     10  N   UNL     1      -1.323  16.143  19.411  0.00  0.00    +0.000 N 
ATOM     11  H   UNL     1      -1.683  16.117  18.466  0.00  0.00    +0.000 HD
ENDBRANCH   1  10
BRANCH   2  12
ATOM     12  O   UNL     1       1.826  14.398  19.383  0.00  0.00    +0.000 OA
ATOM     13  H   UNL     1       1.839  14.633  20.321  0.00  0.00    +0.000 HD
ENDBRANCH   2  12
BRANCH   4  14
ATOM     14  C   UNL     1      -1.647  11.376  17.995  0.00  0.00    +0.000 C 
ATOM     15  O   UNL     1      -2.253  10.330  18.193  0.00  0.00    +0.000 OA
BRANCH  14  16
ATOM     16  O   UNL     1      -1.699  12.030  16.810  0.00  0.00    +0.000 OA
ATOM     17  H   UNL     1      -1.776  11.372  16.085  0.00  0.00    +0.000 HD
ENDBRANCH  14  16
ENDBRANCH   4  14
BRANCH   4  18
ATOM     18  O   UNL     1       0.179  11.311  19.989  0.00  0.00    +0.000 OA
BRANCH  18  19
ATOM     19  C   UNL     1       0.902  10.174  19.629  0.00  0.00    +0.000 A 
ATOM     20  C   UNL     1       1.564  10.183  18.387  0.00  0.00    +0.000 A 
ATOM     21  C   UNL     1       2.200   9.076  17.826  0.00  0.00    +0.000 A 
ATOM     22  C   UNL     1       2.325   7.874  18.498  0.00  0.00    +0.000 A 
ATOM     23  C   UNL     1       1.786   7.857  19.774  0.00  0.00    +0.000 A 
ATOM     24  C   UNL     1       1.118   8.983  20.409  0.00  0.00    +0.000 A 
BRANCH  22  25
ATOM     25  N   UNL     1       2.970   6.743  18.006  0.00  0.00    +0.000 NA
ATOM     26  N   UNL     1       2.289   5.690  18.086  0.00  0.00    +0.000 NA
ATOM     27  N   UNL     1       1.696   4.728  18.182  0.00  0.00    +0.000 NA
ENDBRANCH  22  25
BRANCH  24  28
ATOM     28  C   UNL     1       1.042   8.635  21.901  0.00  0.00    +0.000 C 
ATOM     29  F   UNL     1       1.828   9.197  22.827  0.00  0.00    +0.000 F 
ATOM     30  F   UNL     1      -0.239   8.748  22.400  0.00  0.00    +0.000 F 
ENDBRANCH  24  28
ENDBRANCH  18  19
ENDBRANCH   4  18
BRANCH   6  31
ATOM     31  C   UNL     1      -0.626  13.324  21.887  0.00  0.00    +0.000 C 
BRANCH  31  32
ATOM     32  O   UNL     1       0.521  14.047  22.323  0.00  0.00    +0.000 OA
ATOM     33  H   UNL     1       1.236  13.438  22.580  0.00  0.00    +0.000 HD
ENDBRANCH  31  32
BRANCH  31  34
ATOM     34  C   UNL     1      -1.642  13.127  23.050  0.00  0.00    +0.000 C 
BRANCH  34  35
ATOM     35  O   UNL     1      -2.655  14.095  22.877  0.00  0.00    +0.000 OA
ATOM     36  H   UNL     1      -2.787  14.240  21.922  0.00  0.00    +0.000 HD
ENDBRANCH  34  35
BRANCH  34  37
ATOM     37  C   UNL     1      -2.416  11.832  23.284  0.00  0.00    +0.000 C 
BRANCH  37  38
ATOM     38  O   UNL     1      -3.781  12.052  23.577  0.00  0.00    +0.000 OA
ATOM     39  H   UNL     1      -4.308  11.543  22.935  0.00  0.00    +0.000 HD
ENDBRANCH  37  38
ENDBRANCH  34  37
ENDBRANCH  31  34
ENDBRANCH   6  31
TORSDOF 14
ENDMDL
