MODEL 1
REMARK VINA RESULT:      -7.2      0.000      0.000
REMARK  Name = 
REMARK  5 active torsions:
REMARK  status: ('A' for Active; 'I' for Inactive)
REMARK    1  A    between atoms: N_1  and  C_2
REMARK    2  A    between atoms: C_2  and  C_3
REMARK    3  A    between atoms: C_3  and  C_4
REMARK    4  A    between atoms: C_4  and  N_5
REMARK    5  A    between atoms: N_5  and  C_6
REMARK                            x       y       z     vdW  Elec       q    Type
REMARK                         _______ _______ _______ _____ _____    ______ ____
ROOT
ATOM      1  C   UNL     1       3.578   5.547  18.874  0.00  0.00    +0.000 A 
ATOM      2  C   UNL     1       2.705   4.427  18.973  0.00  0.00    +0.000 A 
ATOM      3  C   UNL     1       2.877   3.369  18.074  0.00  0.00    +0.000 A 
ATOM      4  N   UNL     1       3.861   3.340  17.152  0.00  0.00    +0.000 NA
ATOM      5  C   UNL     1       4.750   4.333  17.116  0.00  0.00    +0.000 A 
ATOM      6  C   UNL     1       5.755   4.213  16.164  0.00  0.00    +0.000 A 
ATOM      7  C   UNL     1       6.765   5.162  16.023  0.00  0.00    +0.000 A 
ATOM      8  C   UNL     1       6.805   6.231  16.891  0.00  0.00    +0.000 A 
ATOM      9  C   UNL     1       5.815   6.350  17.870  0.00  0.00    +0.000 A 
ATOM     10  C   UNL     1       4.714   5.447  17.982  0.00  0.00    +0.000 A 
ATOM     11  C   UNL     1       2.017   2.132  18.087  0.00  0.00    +0.000 C 
ATOM     12  C   UNL     1       0.738   2.261  18.900  0.00  0.00    +0.000 C 
ATOM     13  C   UNL     1       1.029   2.960  20.218  0.00  0.00    +0.000 C 
ATOM     14  C   UNL     1       1.557   4.373  19.961  0.00  0.00    +0.000 C 
ENDROOT
BRANCH   1  15
ATOM     15  N   UNL     1       3.323   6.667  19.723  0.00  0.00    +0.000 N 
ATOM     16  H   UNL     1       3.252   6.376  20.695  0.00  0.00    +0.000 HD
BRANCH  15  17
ATOM     17  C   UNL     1       2.240   7.584  19.370  0.00  0.00    +0.000 C 
BRANCH  17  18
ATOM     18  C   UNL     1       2.367   8.183  17.973  0.00  0.00    +0.000 C 
BRANCH  18  19
ATOM     19  C   UNL     1       1.386   9.359  17.874  0.00  0.00    +0.000 C 
BRANCH  19  20
ATOM     20  N   UNL     1       2.065  10.609  17.568  0.00  0.00    +0.000 NA
ATOM     21  H   UNL     1       1.666  11.354  18.140  0.00  0.00    +0.000 HD
ATOM     22  H   UNL     1       1.881  10.872  16.599  0.00  0.00    +0.000 HD
ENDBRANCH  19  20
ENDBRANCH  18  19
ENDBRANCH  17  18
ENDBRANCH  15  17
ENDBRANCH   1  15
TORSDOF 5
ENDMDL
MODEL 2
REMARK VINA RESULT:      -7.2      1.521      5.354
REMARK  Name = 
REMARK  5 active torsions:
REMARK  status: ('A' for Active; 'I' for Inactive)
REMARK    1  A    between atoms: N_1  and  C_2
REMARK    2  A    between atoms: C_2  and  C_3
REMARK    3  A    between atoms: C_3  and  C_4
REMARK    4  A    between atoms: C_4  and  N_5
REMARK    5  A    between atoms: N_5  and  C_6
REMARK                            x       y       z     vdW  Elec       q    Type
REMARK                         _______ _______ _______ _____ _____    ______ ____
ROOT
ATOM      1  C   UNL     1       2.805   6.088  19.643  0.00  0.00    +0.000 A 
ATOM      2  C   UNL     1       3.754   5.694  18.656  0.00  0.00    +0.000 A 
ATOM      3  C   UNL     1       3.933   6.521  17.542  0.00  0.00    +0.000 A 
ATOM      4  N   UNL     1       3.286   7.694  17.384  0.00  0.00    +0.000 NA
ATOM      5  C   UNL     1       2.474   8.125  18.349  0.00  0.00    +0.000 A 
ATOM      6  C   UNL     1       1.873   9.359  18.130  0.00  0.00    +0.000 A 
ATOM      7  C   UNL     1       1.017   9.946  19.058  0.00  0.00    +0.000 A 
ATOM      8  C   UNL     1       0.798   9.311  20.261  0.00  0.00    +0.000 A 
ATOM      9  C   UNL     1       1.415   8.082  20.504  0.00  0.00    +0.000 A 
ATOM     10  C   UNL     1       2.223   7.409  19.539  0.00  0.00    +0.000 A 
ATOM     11  C   UNL     1       4.911   6.210  16.438  0.00  0.00    +0.000 C 
ATOM     12  C   UNL     1       5.427   4.778  16.437  0.00  0.00    +0.000 C 
ATOM     13  C   UNL     1       5.767   4.348  17.854  0.00  0.00    +0.000 C 
ATOM     14  C   UNL     1       4.515   4.386  18.733  0.00  0.00    +0.000 C 
ENDROOT
BRANCH   1  15
ATOM     15  N   UNL     1       2.552   5.183  20.719  0.00  0.00    +0.000 N 
ATOM     16  H   UNL     1       3.354   4.581  20.884  0.00  0.00    +0.000 HD
BRANCH  15  17
ATOM     17  C   UNL     1       1.310   4.410  20.708  0.00  0.00    +0.000 C 
BRANCH  17  18
ATOM     18  C   UNL     1       1.510   2.919  20.454  0.00  0.00    +0.000 C 
BRANCH  18  19
ATOM     19  C   UNL     1       1.036   2.617  19.026  0.00  0.00    +0.000 C 
BRANCH  19  20
ATOM     20  N   UNL     1       1.963   1.749  18.318  0.00  0.00    +0.000 NA
ATOM     21  H   UNL     1       2.711   1.470  18.954  0.00  0.00    +0.000 HD
ATOM     22  H   UNL     1       2.416   2.270  17.566  0.00  0.00    +0.000 HD
ENDBRANCH  19  20
ENDBRANCH  18  19
ENDBRANCH  17  18
ENDBRANCH  15  17
ENDBRANCH   1  15
TORSDOF 5
ENDMDL
MODEL 3
REMARK VINA RESULT:      -7.1      1.787      5.407
REMARK  Name = 
REMARK  5 active torsions:
REMARK  status: ('A' for Active; 'I' for Inactive)
REMARK    1  A    between atoms: N_1  and  C_2
REMARK    2  A    between atoms: C_2  and  C_3
REMARK    3  A    between atoms: C_3  and  C_4
REMARK    4  A    between atoms: C_4  and  N_5
REMARK    5  A    between atoms: N_5  and  C_6
REMARK                            x       y       z     vdW  Elec       q    Type
REMARK                         _______ _______ _______ _____ _____    ______ ____
ROOT
ATOM      1  C   UNL     1       2.867   6.257  19.549  0.00  0.00    +0.000 A 
ATOM      2  C   UNL     1       3.838   5.846  18.592  0.00  0.00    +0.000 A 
ATOM      3  C   UNL     1       4.018   6.633  17.449  0.00  0.00    +0.000 A 
ATOM      4  N   UNL     1       3.350   7.785  17.237  0.00  0.00    +0.000 NA
ATOM      5  C   UNL     1       2.514   8.236  18.174  0.00  0.00    +0.000 A 
ATOM      6  C   UNL     1       1.892   9.448  17.898  0.00  0.00    +0.000 A 
ATOM      7  C   UNL     1       1.011  10.052  18.791  0.00  0.00    +0.000 A 
ATOM      8  C   UNL     1       0.786   9.460  20.015  0.00  0.00    +0.000 A 
ATOM      9  C   UNL     1       1.425   8.254  20.314  0.00  0.00    +0.000 A 
ATOM     10  C   UNL     1       2.260   7.561  19.387  0.00  0.00    +0.000 A 
ATOM     11  C   UNL     1       5.018   6.300  16.372  0.00  0.00    +0.000 C 
ATOM     12  C   UNL     1       5.562   4.881  16.433  0.00  0.00    +0.000 C 
ATOM     13  C   UNL     1       5.891   4.512  17.870  0.00  0.00    +0.000 C 
ATOM     14  C   UNL     1       4.625   4.558  18.730  0.00  0.00    +0.000 C 
ENDROOT
BRANCH   1  15
ATOM     15  N   UNL     1       2.616   5.389  20.656  0.00  0.00    +0.000 N 
ATOM     16  H   UNL     1       3.375   4.723  20.774  0.00  0.00    +0.000 HD
BRANCH  15  17
ATOM     17  C   UNL     1       1.317   4.725  20.746  0.00  0.00    +0.000 C 
BRANCH  17  18
ATOM     18  C   UNL     1       1.245   3.399  19.993  0.00  0.00    +0.000 C 
BRANCH  18  19
ATOM     19  C   UNL     1       2.276   2.448  20.614  0.00  0.00    +0.000 C 
BRANCH  19  20
ATOM     20  N   UNL     1       2.447   2.688  22.039  0.00  0.00    +0.000 NA
ATOM     21  H   UNL     1       1.699   2.217  22.548  0.00  0.00    +0.000 HD
ATOM     22  H   UNL     1       2.335   3.683  22.236  0.00  0.00    +0.000 HD
ENDBRANCH  19  20
ENDBRANCH  18  19
ENDBRANCH  17  18
ENDBRANCH  15  17
ENDBRANCH   1  15
TORSDOF 5
ENDMDL
MODEL 4
REMARK VINA RESULT:      -7.1      1.316      1.414
REMARK  Name = 
REMARK  5 active torsions:
REMARK  status: ('A' for Active; 'I' for Inactive)
REMARK    1  A    between atoms: N_1  and  C_2
REMARK    2  A    between atoms: C_2  and  C_3
REMARK    3  A    between atoms: C_3  and  C_4
REMARK    4  A    between atoms: C_4  and  N_5
REMARK    5  A    between atoms: N_5  and  C_6
REMARK                            x       y       z     vdW  Elec       q    Type
REMARK                         _______ _______ _______ _____ _____    ______ ____
ROOT
ATOM      1  C   UNL     1       3.120   5.983  18.427  0.00  0.00    +0.000 A 
ATOM      2  C   UNL     1       2.653   4.889  19.210  0.00  0.00    +0.000 A 
ATOM      3  C   UNL     1       2.954   3.591  18.783  0.00  0.00    +0.000 A 
ATOM      4  N   UNL     1       3.705   3.331  17.693  0.00  0.00    +0.000 NA
ATOM      5  C   UNL     1       4.237   4.345  17.011  0.00  0.00    +0.000 A 
ATOM      6  C   UNL     1       5.028   3.995  15.924  0.00  0.00    +0.000 A 
ATOM      7  C   UNL     1       5.666   4.946  15.130  0.00  0.00    +0.000 A 
ATOM      8  C   UNL     1       5.555   6.278  15.462  0.00  0.00    +0.000 A 
ATOM      9  C   UNL     1       4.782   6.641  16.568  0.00  0.00    +0.000 A 
ATOM     10  C   UNL     1       4.041   5.702  17.346  0.00  0.00    +0.000 A 
ATOM     11  C   UNL     1       2.517   2.358  19.531  0.00  0.00    +0.000 C 
ATOM     12  C   UNL     1       1.438   2.603  20.576  0.00  0.00    +0.000 C 
ATOM     13  C   UNL     1       1.758   3.861  21.367  0.00  0.00    +0.000 C 
ATOM     14  C   UNL     1       1.786   5.077  20.438  0.00  0.00    +0.000 C 
ENDROOT
BRANCH   1  15
ATOM     15  N   UNL     1       2.714   7.297  18.813  0.00  0.00    +0.000 N 
ATOM     16  H   UNL     1       2.397   7.310  19.778  0.00  0.00    +0.000 HD
BRANCH  15  17
ATOM     17  C   UNL     1       1.790   8.028  17.947  0.00  0.00    +0.000 C 
BRANCH  17  18
ATOM     18  C   UNL     1       2.041   9.532  17.902  0.00  0.00    +0.000 C 
BRANCH  18  19
ATOM     19  C   UNL     1       0.993  10.211  18.794  0.00  0.00    +0.000 C 
BRANCH  19  20
ATOM     20  N   UNL     1       0.807   9.501  20.050  0.00  0.00    +0.000 NA
ATOM     21  H   UNL     1       0.680  10.180  20.801  0.00  0.00    +0.000 HD
ATOM     22  H   UNL     1       1.655   8.984  20.282  0.00  0.00    +0.000 HD
ENDBRANCH  19  20
ENDBRANCH  18  19
ENDBRANCH  17  18
ENDBRANCH  15  17
ENDBRANCH   1  15
TORSDOF 5
ENDMDL
MODEL 5
REMARK VINA RESULT:      -7.0      1.939      4.753
REMARK  Name = 
REMARK  5 active torsions:
REMARK  status: ('A' for Active; 'I' for Inactive)
REMARK    1  A    between atoms: N_1  and  C_2
REMARK    2  A    between atoms: C_2  and  C_3
REMARK    3  A    between atoms: C_3  and  C_4
REMARK    4  A    between atoms: C_4  and  N_5
REMARK    5  A    between atoms: N_5  and  C_6
REMARK                            x       y       z     vdW  Elec       q    Type
REMARK                         _______ _______ _______ _____ _____    ______ ____
ROOT
ATOM      1  C   UNL     1       3.424   5.819  18.369  0.00  0.00    +0.000 A 
ATOM      2  C   UNL     1       3.133   4.747  19.261  0.00  0.00    +0.000 A 
ATOM      3  C   UNL     1       2.329   5.012  20.375  0.00  0.00    +0.000 A 
ATOM      4  N   UNL     1       1.779   6.219  20.615  0.00  0.00    +0.000 NA
ATOM      5  C   UNL     1       1.956   7.204  19.734  0.00  0.00    +0.000 A 
ATOM      6  C   UNL     1       1.328   8.406  20.033  0.00  0.00    +0.000 A 
ATOM      7  C   UNL     1       1.406   9.516  19.195  0.00  0.00    +0.000 A 
ATOM      8  C   UNL     1       2.084   9.407  18.001  0.00  0.00    +0.000 A 
ATOM      9  C   UNL     1       2.699   8.196  17.677  0.00  0.00    +0.000 A 
ATOM     10  C   UNL     1       2.718   7.069  18.553  0.00  0.00    +0.000 A 
ATOM     11  C   UNL     1       1.951   3.958  21.384  0.00  0.00    +0.000 C 
ATOM     12  C   UNL     1       2.781   2.685  21.307  0.00  0.00    +0.000 C 
ATOM     13  C   UNL     1       2.966   2.272  19.856  0.00  0.00    +0.000 C 
ATOM     14  C   UNL     1       3.719   3.361  19.088  0.00  0.00    +0.000 C 
ENDROOT
BRANCH   1  15
ATOM     15  N   UNL     1       4.333   5.563  17.297  0.00  0.00    +0.000 N 
ATOM     16  H   UNL     1       4.335   4.576  17.051  0.00  0.00    +0.000 HD
BRANCH  15  17
ATOM     17  C   UNL     1       5.696   6.083  17.395  0.00  0.00    +0.000 C 
BRANCH  17  18
ATOM     18  C   UNL     1       6.659   5.162  18.140  0.00  0.00    +0.000 C 
BRANCH  18  19
ATOM     19  C   UNL     1       7.645   6.044  18.918  0.00  0.00    +0.000 C 
BRANCH  19  20
ATOM     20  N   UNL     1       8.016   5.449  20.193  0.00  0.00    +0.000 NA
ATOM     21  H   UNL     1       8.322   4.489  20.036  0.00  0.00    +0.000 HD
ATOM     22  H   UNL     1       7.194   5.386  20.795  0.00  0.00    +0.000 HD
ENDBRANCH  19  20
ENDBRANCH  18  19
ENDBRANCH  17  18
ENDBRANCH  15  17
ENDBRANCH   1  15
TORSDOF 5
ENDMDL
MODEL 6
REMARK VINA RESULT:      -7.0      1.301      4.285
REMARK  Name = 
REMARK  5 active torsions:
REMARK  status: ('A' for Active; 'I' for Inactive)
REMARK    1  A    between atoms: N_1  and  C_2
REMARK    2  A    between atoms: C_2  and  C_3
REMARK    3  A    between atoms: C_3  and  C_4
REMARK    4  A    between atoms: C_4  and  N_5
REMARK    5  A    between atoms: N_5  and  C_6
REMARK                            x       y       z     vdW  Elec       q    Type
REMARK                         _______ _______ _______ _____ _____    ______ ____
ROOT
ATOM      1  C   UNL     1       3.370   5.825  18.309  0.00  0.00    +0.000 A 
ATOM      2  C   UNL     1       4.274   5.471  17.268  0.00  0.00    +0.000 A 
ATOM      3  C   UNL     1       4.601   4.121  17.105  0.00  0.00    +0.000 A 
ATOM      4  N   UNL     1       4.063   3.137  17.856  0.00  0.00    +0.000 NA
ATOM      5  C   UNL     1       3.137   3.444  18.765  0.00  0.00    +0.000 A 
ATOM      6  C   UNL     1       2.604   2.373  19.472  0.00  0.00    +0.000 A 
ATOM      7  C   UNL     1       1.614   2.537  20.437  0.00  0.00    +0.000 A 
ATOM      8  C   UNL     1       1.103   3.796  20.664  0.00  0.00    +0.000 A 
ATOM      9  C   UNL     1       1.612   4.877  19.942  0.00  0.00    +0.000 A 
ATOM     10  C   UNL     1       2.690   4.759  19.014  0.00  0.00    +0.000 A 
ATOM     11  C   UNL     1       5.542   3.627  16.036  0.00  0.00    +0.000 C 
ATOM     12  C   UNL     1       6.378   4.715  15.380  0.00  0.00    +0.000 C 
ATOM     13  C   UNL     1       5.512   5.928  15.084  0.00  0.00    +0.000 C 
ATOM     14  C   UNL     1       4.946   6.503  16.385  0.00  0.00    +0.000 C 
ENDROOT
BRANCH   1  15
ATOM     15  N   UNL     1       3.128   7.215  18.535  0.00  0.00    +0.000 N 
ATOM     16  H   UNL     1       3.098   7.421  19.531  0.00  0.00    +0.000 HD
BRANCH  15  17
ATOM     17  C   UNL     1       2.018   7.858  17.833  0.00  0.00    +0.000 C 
BRANCH  17  18
ATOM     18  C   UNL     1       2.015   9.380  17.940  0.00  0.00    +0.000 C 
BRANCH  18  19
ATOM     19  C   UNL     1       0.981   9.775  19.003  0.00  0.00    +0.000 C 
BRANCH  19  20
ATOM     20  N   UNL     1       1.119   8.984  20.216  0.00  0.00    +0.000 NA
ATOM     21  H   UNL     1       0.558   8.136  20.127  0.00  0.00    +0.000 HD
ATOM     22  H   UNL     1       0.728   9.495  21.008  0.00  0.00    +0.000 HD
ENDBRANCH  19  20
ENDBRANCH  18  19
ENDBRANCH  17  18
ENDBRANCH  15  17
ENDBRANCH   1  15
TORSDOF 5
ENDMDL
MODEL 7
REMARK VINA RESULT:      -7.0      1.531      4.441
REMARK  Name = 
REMARK  5 active torsions:
REMARK  status: ('A' for Active; 'I' for Inactive)
REMARK    1  A    between atoms: N_1  and  C_2
REMARK    2  A    between atoms: C_2  and  C_3
REMARK    3  A    between atoms: C_3  and  C_4
REMARK    4  A    between atoms: C_4  and  N_5
REMARK    5  A    between atoms: N_5  and  C_6
REMARK                            x       y       z     vdW  Elec       q    Type
REMARK                         _______ _______ _______ _____ _____    ______ ____
ROOT
ATOM      1  C   UNL     1       3.092   5.585  18.404  0.00  0.00    +0.000 A 
ATOM      2  C   UNL     1       4.373   5.504  17.787  0.00  0.00    +0.000 A 
ATOM      3  C   UNL     1       5.283   4.558  18.271  0.00  0.00    +0.000 A 
ATOM      4  N   UNL     1       4.986   3.689  19.259  0.00  0.00    +0.000 NA
ATOM      5  C   UNL     1       3.756   3.683  19.774  0.00  0.00    +0.000 A 
ATOM      6  C   UNL     1       3.517   2.735  20.760  0.00  0.00    +0.000 A 
ATOM      7  C   UNL     1       2.274   2.596  21.374  0.00  0.00    +0.000 A 
ATOM      8  C   UNL     1       1.228   3.388  20.954  0.00  0.00    +0.000 A 
ATOM      9  C   UNL     1       1.449   4.328  19.945  0.00  0.00    +0.000 A 
ATOM     10  C   UNL     1       2.731   4.561  19.360  0.00  0.00    +0.000 A 
ATOM     11  C   UNL     1       6.665   4.379  17.696  0.00  0.00    +0.000 C 
ATOM     12  C   UNL     1       7.129   5.518  16.801  0.00  0.00    +0.000 C 
ATOM     13  C   UNL     1       6.002   5.940  15.872  0.00  0.00    +0.000 C 
ATOM     14  C   UNL     1       4.809   6.449  16.686  0.00  0.00    +0.000 C 
ENDROOT
BRANCH   1  15
ATOM     15  N   UNL     1       2.213   6.626  17.975  0.00  0.00    +0.000 N 
ATOM     16  H   UNL     1       2.290   6.776  16.972  0.00  0.00    +0.000 HD
BRANCH  15  17
ATOM     17  C   UNL     1       2.226   7.897  18.698  0.00  0.00    +0.000 C 
BRANCH  17  18
ATOM     18  C   UNL     1       1.822   9.098  17.847  0.00  0.00    +0.000 C 
BRANCH  18  19
ATOM     19  C   UNL     1       0.710   9.849  18.591  0.00  0.00    +0.000 C 
BRANCH  19  20
ATOM     20  N   UNL     1      -0.336  10.305  17.688  0.00  0.00    +0.000 NA
ATOM     21  H   UNL     1      -0.440   9.629  16.930  0.00  0.00    +0.000 HD
ATOM     22  H   UNL     1      -0.051  11.179  17.245  0.00  0.00    +0.000 HD
ENDBRANCH  19  20
ENDBRANCH  18  19
ENDBRANCH  17  18
ENDBRANCH  15  17
ENDBRANCH   1  15
TORSDOF 5
ENDMDL
MODEL 8
REMARK VINA RESULT:      -7.0      1.950      4.752
REMARK  Name = 
REMARK  5 active torsions:
REMARK  status: ('A' for Active; 'I' for Inactive)
REMARK    1  A    between atoms: N_1  and  C_2
REMARK    2  A    between atoms: C_2  and  C_3
REMARK    3  A    between atoms: C_3  and  C_4
REMARK    4  A    between atoms: C_4  and  N_5
REMARK    5  A    between atoms: N_5  and  C_6
REMARK                            x       y       z     vdW  Elec       q    Type
REMARK                         _______ _______ _______ _____ _____    ______ ____
ROOT
ATOM      1  C   UNL     1       3.443   5.883  18.268  0.00  0.00    +0.000 A 
ATOM      2  C   UNL     1       3.189   4.797  19.153  0.00  0.00    +0.000 A 
ATOM      3  C   UNL     1       2.410   5.035  20.290  0.00  0.00    +0.000 A 
ATOM      4  N   UNL     1       1.849   6.232  20.560  0.00  0.00    +0.000 NA
ATOM      5  C   UNL     1       1.991   7.230  19.687  0.00  0.00    +0.000 A 
ATOM      6  C   UNL     1       1.354   8.420  20.018  0.00  0.00    +0.000 A 
ATOM      7  C   UNL     1       1.397   9.542  19.193  0.00  0.00    +0.000 A 
ATOM      8  C   UNL     1       2.046   9.457  17.981  0.00  0.00    +0.000 A 
ATOM      9  C   UNL     1       2.670   8.259  17.626  0.00  0.00    +0.000 A 
ATOM     10  C   UNL     1       2.725   7.121  18.486  0.00  0.00    +0.000 A 
ATOM     11  C   UNL     1       2.071   3.963  21.294  0.00  0.00    +0.000 C 
ATOM     12  C   UNL     1       2.916   2.703  21.180  0.00  0.00    +0.000 C 
ATOM     13  C   UNL     1       3.070   2.311  19.720  0.00  0.00    +0.000 C 
ATOM     14  C   UNL     1       3.790   3.421  18.948  0.00  0.00    +0.000 C 
ENDROOT
BRANCH   1  15
ATOM     15  N   UNL     1       4.329   5.654  17.171  0.00  0.00    +0.000 N 
ATOM     16  H   UNL     1       4.425   4.659  16.985  0.00  0.00    +0.000 HD
BRANCH  15  17
ATOM     17  C   UNL     1       5.633   6.316  17.173  0.00  0.00    +0.000 C 
BRANCH  17  18
ATOM     18  C   UNL     1       6.566   5.846  18.284  0.00  0.00    +0.000 C 
BRANCH  18  19
ATOM     19  C   UNL     1       7.457   4.735  17.712  0.00  0.00    +0.000 C 
BRANCH  19  20
ATOM     20  N   UNL     1       7.435   4.716  16.258  0.00  0.00    +0.000 NA
ATOM     21  H   UNL     1       6.702   5.344  15.927  0.00  0.00    +0.000 HD
ATOM     22  H   UNL     1       7.174   3.785  15.930  0.00  0.00    +0.000 HD
ENDBRANCH  19  20
ENDBRANCH  18  19
ENDBRANCH  17  18
ENDBRANCH  15  17
ENDBRANCH   1  15
TORSDOF 5
ENDMDL
MODEL 9
REMARK VINA RESULT:      -7.0      1.255      1.639
REMARK  Name = 
REMARK  5 active torsions:
REMARK  status: ('A' for Active; 'I' for Inactive)
REMARK    1  A    between atoms: N_1  and  C_2
REMARK    2  A    between atoms: C_2  and  C_3
REMARK    3  A    between atoms: C_3  and  C_4
REMARK    4  A    between atoms: C_4  and  N_5
REMARK    5  A    between atoms: N_5  and  C_6
REMARK                            x       y       z     vdW  Elec       q    Type
REMARK                         _______ _______ _______ _____ _____    ______ ____
ROOT
ATOM      1  C   UNL     1       3.043   5.884  18.816  0.00  0.00    +0.000 A 
ATOM      2  C   UNL     1       2.332   4.693  19.141  0.00  0.00    +0.000 A 
ATOM      3  C   UNL     1       2.520   3.567  18.333  0.00  0.00    +0.000 A 
ATOM      4  N   UNL     1       3.378   3.542  17.293  0.00  0.00    +0.000 NA
ATOM      5  C   UNL     1       4.128   4.615  17.041  0.00  0.00    +0.000 A 
ATOM      6  C   UNL     1       5.015   4.500  15.977  0.00  0.00    +0.000 A 
ATOM      7  C   UNL     1       5.876   5.531  15.610  0.00  0.00    +0.000 A 
ATOM      8  C   UNL     1       5.892   6.688  16.358  0.00  0.00    +0.000 A 
ATOM      9  C   UNL     1       5.024   6.807  17.445  0.00  0.00    +0.000 A 
ATOM     10  C   UNL     1       4.064   5.809  17.792  0.00  0.00    +0.000 A 
ATOM     11  C   UNL     1       1.825   2.253  18.582  0.00  0.00    +0.000 C 
ATOM     12  C   UNL     1       0.650   2.333  19.545  0.00  0.00    +0.000 C 
ATOM     13  C   UNL     1       1.014   3.202  20.737  0.00  0.00    +0.000 C 
ATOM     14  C   UNL     1       1.330   4.627  20.276  0.00  0.00    +0.000 C 
ENDROOT
BRANCH   1  15
ATOM     15  N   UNL     1       2.760   7.057  19.580  0.00  0.00    +0.000 N 
ATOM     16  H   UNL     1       2.290   6.819  20.449  0.00  0.00    +0.000 HD
BRANCH  15  17
ATOM     17  C   UNL     1       2.103   8.183  18.919  0.00  0.00    +0.000 C 
BRANCH  17  18
ATOM     18  C   UNL     1       1.160   8.970  19.825  0.00  0.00    +0.000 C 
BRANCH  18  19
ATOM     19  C   UNL     1       1.045   8.212  21.155  0.00  0.00    +0.000 C 
BRANCH  19  20
ATOM     20  N   UNL     1       1.854   8.822  22.199  0.00  0.00    +0.000 NA
ATOM     21  H   UNL     1       2.232   8.089  22.800  0.00  0.00    +0.000 HD
ATOM     22  H   UNL     1       1.263   9.398  22.800  0.00  0.00    +0.000 HD
ENDBRANCH  19  20
ENDBRANCH  18  19
ENDBRANCH  17  18
ENDBRANCH  15  17
ENDBRANCH   1  15
TORSDOF 5
ENDMDL
