MODEL 1
REMARK VINA RESULT:      -7.6      0.000      0.000
REMARK  Name = 
REMARK  5 active torsions:
REMARK  status: ('A' for Active; 'I' for Inactive)
REMARK    1  A    between atoms: C_1  and  C_2
REMARK    2  A    between atoms: C_2  and  O_3
REMARK    3  A    between atoms: O_3  and  C_4
REMARK    4  A    between atoms: C_8  and  S_9
REMARK    5  A    between atoms: S_9  and  N_12
REMARK                            x       y       z     vdW  Elec       q    Type
REMARK                         _______ _______ _______ _____ _____    ______ ____
ROOT
ATOM      1  C   UNL     1       5.553   6.186  17.022  0.00  0.00    +0.000 A 
ATOM      2  C   UNL     1       4.463   6.555  17.820  0.00  0.00    +0.000 A 
ATOM      3  C   UNL     1       3.435   5.647  18.123  0.00  0.00    +0.000 A 
ATOM      4 CL   UNL     1       2.202   6.234  19.176  0.00  0.00    +0.000 Cl
ATOM      5  C   UNL     1       3.474   4.354  17.598  0.00  0.00    +0.000 A 
ATOM      6  C   UNL     1       4.578   3.965  16.823  0.00  0.00    +0.000 A 
ATOM      7  C   UNL     1       5.607   4.871  16.542  0.00  0.00    +0.000 A 
ATOM      8 CL   UNL     1       6.944   4.308  15.602  0.00  0.00    +0.000 Cl
ENDROOT
BRANCH   5   9
ATOM      9  S   UNL     1       2.248   3.127  17.961  0.00  0.00    +0.000 S 
ATOM     10  O   UNL     1       0.947   3.682  17.613  0.00  0.00    +0.000 OA
ATOM     11  O   UNL     1       2.682   1.851  17.425  0.00  0.00    +0.000 OA
BRANCH   9  12
ATOM     12  N   UNL     1       2.193   2.954  19.633  0.00  0.00    +0.000 N 
ATOM     13  C   UNL     1       1.077   3.054  20.416  0.00  0.00    +0.000 A 
ATOM     14  C   UNL     1       1.541   2.841  21.695  0.00  0.00    +0.000 A 
ATOM     15  N   UNL     1       2.903   2.645  21.693  0.00  0.00    +0.000 NA
ATOM     16  C   UNL     1       3.263   2.694  20.428  0.00  0.00    +0.000 A 
ENDBRANCH   9  12
ENDBRANCH   5   9
BRANCH   1  17
ATOM     17  O   UNL     1       6.584   7.027  16.685  0.00  0.00    +0.000 OA
BRANCH  17  19
ATOM     18  C   UNL     1       7.956   8.675  17.774  0.00  0.00    +0.000 C 
ATOM     19  C   UNL     1       7.629   7.199  17.644  0.00  0.00    +0.000 C 
ENDBRANCH  17  19
ENDBRANCH   1  17
TORSDOF 4
ENDMDL
MODEL 2
REMARK VINA RESULT:      -7.0      3.106      5.850
REMARK  Name = 
REMARK  5 active torsions:
REMARK  status: ('A' for Active; 'I' for Inactive)
REMARK    1  A    between atoms: C_1  and  C_2
REMARK    2  A    between atoms: C_2  and  O_3
REMARK    3  A    between atoms: O_3  and  C_4
REMARK    4  A    between atoms: C_8  and  S_9
REMARK    5  A    between atoms: S_9  and  N_12
REMARK                            x       y       z     vdW  Elec       q    Type
REMARK                         _______ _______ _______ _____ _____    ______ ____
ROOT
ATOM      1  C   UNL     1       2.297   3.961  18.613  0.00  0.00    +0.000 A 
ATOM      2  C   UNL     1       2.395   5.348  18.448  0.00  0.00    +0.000 A 
ATOM      3  C   UNL     1       3.450   5.927  17.723  0.00  0.00    +0.000 A 
ATOM      4 CL   UNL     1       3.389   7.641  17.550  0.00  0.00    +0.000 Cl
ATOM      5  C   UNL     1       4.445   5.115  17.175  0.00  0.00    +0.000 A 
ATOM      6  C   UNL     1       4.338   3.721  17.308  0.00  0.00    +0.000 A 
ATOM      7  C   UNL     1       3.273   3.152  18.016  0.00  0.00    +0.000 A 
ATOM      8 CL   UNL     1       3.199   1.427  18.113  0.00  0.00    +0.000 Cl
ENDROOT
BRANCH   5   9
ATOM      9  S   UNL     1       5.787   5.750  16.208  0.00  0.00    +0.000 S 
ATOM     10  O   UNL     1       6.512   4.615  15.654  0.00  0.00    +0.000 OA
ATOM     11  O   UNL     1       5.292   6.811  15.351  0.00  0.00    +0.000 OA
BRANCH   9  12
ATOM     12  N   UNL     1       6.878   6.460  17.273  0.00  0.00    +0.000 N 
ATOM     13  C   UNL     1       7.450   5.857  18.360  0.00  0.00    +0.000 A 
ATOM     14  C   UNL     1       8.254   6.835  18.904  0.00  0.00    +0.000 A 
ATOM     15  N   UNL     1       8.153   8.005  18.186  0.00  0.00    +0.000 NA
ATOM     16  C   UNL     1       7.332   7.737  17.192  0.00  0.00    +0.000 A 
ENDBRANCH   9  12
ENDBRANCH   5   9
BRANCH   1  17
ATOM     17  O   UNL     1       1.297   3.335  19.314  0.00  0.00    +0.000 OA
BRANCH  17  19
ATOM     18  C   UNL     1       1.676   2.676  21.596  0.00  0.00    +0.000 C 
ATOM     19  C   UNL     1       1.102   3.734  20.672  0.00  0.00    +0.000 C 
ENDBRANCH  17  19
ENDBRANCH   1  17
TORSDOF 4
ENDMDL
MODEL 3
REMARK VINA RESULT:      -6.6      3.393      5.273
REMARK  Name = 
REMARK  5 active torsions:
REMARK  status: ('A' for Active; 'I' for Inactive)
REMARK    1  A    between atoms: C_1  and  C_2
REMARK    2  A    between atoms: C_2  and  O_3
REMARK    3  A    between atoms: O_3  and  C_4
REMARK    4  A    between atoms: C_8  and  S_9
REMARK    5  A    between atoms: S_9  and  N_12
REMARK                            x       y       z     vdW  Elec       q    Type
REMARK                         _______ _______ _______ _____ _____    ______ ____
ROOT
ATOM      1  C   UNL     1       1.932   7.156  19.902  0.00  0.00    +0.000 A 
ATOM      2  C   UNL     1       1.885   5.981  20.661  0.00  0.00    +0.000 A 
ATOM      3  C   UNL     1       2.595   4.831  20.276  0.00  0.00    +0.000 A 
ATOM      4 CL   UNL     1       2.492   3.490  21.356  0.00  0.00    +0.000 Cl
ATOM      5  C   UNL     1       3.342   4.837  19.097  0.00  0.00    +0.000 A 
ATOM      6  C   UNL     1       3.419   6.021  18.346  0.00  0.00    +0.000 A 
ATOM      7  C   UNL     1       2.724   7.168  18.746  0.00  0.00    +0.000 A 
ATOM      8 CL   UNL     1       2.892   8.592  17.781  0.00  0.00    +0.000 Cl
ENDROOT
BRANCH   5   9
ATOM      9  S   UNL     1       4.304   3.451  18.555  0.00  0.00    +0.000 S 
ATOM     10  O   UNL     1       5.051   2.954  19.700  0.00  0.00    +0.000 OA
ATOM     11  O   UNL     1       3.460   2.567  17.772  0.00  0.00    +0.000 OA
BRANCH   9  12
ATOM     12  N   UNL     1       5.484   4.040  17.512  0.00  0.00    +0.000 N 
ATOM     13  C   UNL     1       5.434   4.019  16.145  0.00  0.00    +0.000 A 
ATOM     14  C   UNL     1       6.618   4.605  15.754  0.00  0.00    +0.000 A 
ATOM     15  N   UNL     1       7.378   4.948  16.849  0.00  0.00    +0.000 NA
ATOM     16  C   UNL     1       6.653   4.616  17.897  0.00  0.00    +0.000 A 
ENDBRANCH   9  12
ENDBRANCH   5   9
BRANCH   1  17
ATOM     17  O   UNL     1       1.257   8.309  20.219  0.00  0.00    +0.000 OA
BRANCH  17  19
ATOM     18  C   UNL     1      -0.265   8.900  21.984  0.00  0.00    +0.000 C 
ATOM     19  C   UNL     1       1.184   8.664  21.601  0.00  0.00    +0.000 C 
ENDBRANCH  17  19
ENDBRANCH   1  17
TORSDOF 4
ENDMDL
MODEL 4
REMARK VINA RESULT:      -6.5      3.467      6.133
REMARK  Name = 
REMARK  5 active torsions:
REMARK  status: ('A' for Active; 'I' for Inactive)
REMARK    1  A    between atoms: C_1  and  C_2
REMARK    2  A    between atoms: C_2  and  O_3
REMARK    3  A    between atoms: O_3  and  C_4
REMARK    4  A    between atoms: C_8  and  S_9
REMARK    5  A    between atoms: S_9  and  N_12
REMARK                            x       y       z     vdW  Elec       q    Type
REMARK                         _______ _______ _______ _____ _____    ______ ____
ROOT
ATOM      1  C   UNL     1       3.303   4.389  19.442  0.00  0.00    +0.000 A 
ATOM      2  C   UNL     1       3.314   5.499  18.588  0.00  0.00    +0.000 A 
ATOM      3  C   UNL     1       4.426   5.792  17.781  0.00  0.00    +0.000 A 
ATOM      4 CL   UNL     1       4.253   7.151  16.732  0.00  0.00    +0.000 Cl
ATOM      5  C   UNL     1       5.563   4.985  17.844  0.00  0.00    +0.000 A 
ATOM      6  C   UNL     1       5.550   3.853  18.674  0.00  0.00    +0.000 A 
ATOM      7  C   UNL     1       4.431   3.557  19.461  0.00  0.00    +0.000 A 
ATOM      8 CL   UNL     1       4.483   2.131  20.436  0.00  0.00    +0.000 Cl
ENDROOT
BRANCH   5   9
ATOM      9  S   UNL     1       6.994   5.250  16.833  0.00  0.00    +0.000 S 
ATOM     10  O   UNL     1       7.183   6.688  16.698  0.00  0.00    +0.000 OA
ATOM     11  O   UNL     1       8.069   4.396  17.301  0.00  0.00    +0.000 OA
BRANCH   9  12
ATOM     12  N   UNL     1       6.609   4.734  15.279  0.00  0.00    +0.000 N 
ATOM     13  C   UNL     1       5.500   4.021  14.919  0.00  0.00    +0.000 A 
ATOM     14  C   UNL     1       5.639   3.842  13.561  0.00  0.00    +0.000 A 
ATOM     15  N   UNL     1       6.811   4.406  13.111  0.00  0.00    +0.000 NA
ATOM     16  C   UNL     1       7.363   4.959  14.171  0.00  0.00    +0.000 A 
ENDBRANCH   9  12
ENDBRANCH   5   9
BRANCH   1  17
ATOM     17  O   UNL     1       2.253   4.053  20.259  0.00  0.00    +0.000 OA
BRANCH  17  19
ATOM     18  C   UNL     1       0.938   2.505  18.971  0.00  0.00    +0.000 C 
ATOM     19  C   UNL     1       0.978   3.866  19.642  0.00  0.00    +0.000 C 
ENDBRANCH  17  19
ENDBRANCH   1  17
TORSDOF 4
ENDMDL
MODEL 5
REMARK VINA RESULT:      -6.3      3.523      5.094
REMARK  Name = 
REMARK  5 active torsions:
REMARK  status: ('A' for Active; 'I' for Inactive)
REMARK    1  A    between atoms: C_1  and  C_2
REMARK    2  A    between atoms: C_2  and  O_3
REMARK    3  A    between atoms: O_3  and  C_4
REMARK    4  A    between atoms: C_8  and  S_9
REMARK    5  A    between atoms: S_9  and  N_12
REMARK                            x       y       z     vdW  Elec       q    Type
REMARK                         _______ _______ _______ _____ _____    ______ ____
ROOT
ATOM      1  C   UNL     1       6.281   3.968  13.646  0.00  0.00    +0.000 A 
ATOM      2  C   UNL     1       5.374   3.453  14.580  0.00  0.00    +0.000 A 
ATOM      3  C   UNL     1       5.373   3.888  15.916  0.00  0.00    +0.000 A 
ATOM      4 CL   UNL     1       4.148   3.211  16.924  0.00  0.00    +0.000 Cl
ATOM      5  C   UNL     1       6.310   4.830  16.341  0.00  0.00    +0.000 A 
ATOM      6  C   UNL     1       7.203   5.375  15.404  0.00  0.00    +0.000 A 
ATOM      7  C   UNL     1       7.185   4.950  14.071  0.00  0.00    +0.000 A 
ATOM      8 CL   UNL     1       8.298   5.688  12.973  0.00  0.00    +0.000 Cl
ENDROOT
BRANCH   5   9
ATOM      9  S   UNL     1       6.357   5.471  17.993  0.00  0.00    +0.000 S 
ATOM     10  O   UNL     1       6.612   4.356  18.895  0.00  0.00    +0.000 OA
ATOM     11  O   UNL     1       7.191   6.658  18.017  0.00  0.00    +0.000 OA
BRANCH   9  12
ATOM     12  N   UNL     1       4.798   5.969  18.379  0.00  0.00    +0.000 N 
ATOM     13  C   UNL     1       4.072   5.572  19.468  0.00  0.00    +0.000 A 
ATOM     14  C   UNL     1       2.876   6.244  19.341  0.00  0.00    +0.000 A 
ATOM     15  N   UNL     1       2.864   7.006  18.195  0.00  0.00    +0.000 NA
ATOM     16  C   UNL     1       4.051   6.838  17.649  0.00  0.00    +0.000 A 
ENDBRANCH   9  12
ENDBRANCH   5   9
BRANCH   1  17
ATOM     17  O   UNL     1       6.338   3.581  12.330  0.00  0.00    +0.000 OA
BRANCH  17  19
ATOM     18  C   UNL     1       4.206   3.275  11.259  0.00  0.00    +0.000 C 
ATOM     19  C   UNL     1       5.401   2.592  11.898  0.00  0.00    +0.000 C 
ENDBRANCH  17  19
ENDBRANCH   1  17
TORSDOF 4
ENDMDL
MODEL 6
REMARK VINA RESULT:      -6.3      3.669      6.085
REMARK  Name = 
REMARK  5 active torsions:
REMARK  status: ('A' for Active; 'I' for Inactive)
REMARK    1  A    between atoms: C_1  and  C_2
REMARK    2  A    between atoms: C_2  and  O_3
REMARK    3  A    between atoms: O_3  and  C_4
REMARK    4  A    between atoms: C_8  and  S_9
REMARK    5  A    between atoms: S_9  and  N_12
REMARK                            x       y       z     vdW  Elec       q    Type
REMARK                         _______ _______ _______ _____ _____    ______ ____
ROOT
ATOM      1  C   UNL     1       3.176   4.930  18.725  0.00  0.00    +0.000 A 
ATOM      2  C   UNL     1       3.375   5.892  17.728  0.00  0.00    +0.000 A 
ATOM      3  C   UNL     1       4.598   5.996  17.043  0.00  0.00    +0.000 A 
ATOM      4 CL   UNL     1       4.660   7.184  15.795  0.00  0.00    +0.000 Cl
ATOM      5  C   UNL     1       5.654   5.146  17.376  0.00  0.00    +0.000 A 
ATOM      6  C   UNL     1       5.453   4.158  18.352  0.00  0.00    +0.000 A 
ATOM      7  C   UNL     1       4.226   4.049  19.016  0.00  0.00    +0.000 A 
ATOM      8 CL   UNL     1       4.049   2.789  20.186  0.00  0.00    +0.000 Cl
ENDROOT
BRANCH   5   9
ATOM      9  S   UNL     1       7.216   5.173  16.538  0.00  0.00    +0.000 S 
ATOM     10  O   UNL     1       7.633   6.562  16.418  0.00  0.00    +0.000 OA
ATOM     11  O   UNL     1       8.089   4.179  17.134  0.00  0.00    +0.000 OA
BRANCH   9  12
ATOM     12  N   UNL     1       6.940   4.683  14.953  0.00  0.00    +0.000 N 
ATOM     13  C   UNL     1       6.047   3.730  14.548  0.00  0.00    +0.000 A 
ATOM     14  C   UNL     1       6.193   3.689  13.179  0.00  0.00    +0.000 A 
ATOM     15  N   UNL     1       7.165   4.571  12.765  0.00  0.00    +0.000 NA
ATOM     16  C   UNL     1       7.580   5.175  13.860  0.00  0.00    +0.000 A 
ENDBRANCH   9  12
ENDBRANCH   5   9
BRANCH   1  17
ATOM     17  O   UNL     1       2.009   4.782  19.434  0.00  0.00    +0.000 OA
BRANCH  17  19
ATOM     18  C   UNL     1       1.638   6.813  20.666  0.00  0.00    +0.000 C 
ATOM     19  C   UNL     1       1.970   5.335  20.750  0.00  0.00    +0.000 C 
ENDBRANCH  17  19
ENDBRANCH   1  17
TORSDOF 4
ENDMDL
MODEL 7
REMARK VINA RESULT:      -6.3      3.402      6.211
REMARK  Name = 
REMARK  5 active torsions:
REMARK  status: ('A' for Active; 'I' for Inactive)
REMARK    1  A    between atoms: C_1  and  C_2
REMARK    2  A    between atoms: C_2  and  O_3
REMARK    3  A    between atoms: O_3  and  C_4
REMARK    4  A    between atoms: C_8  and  S_9
REMARK    5  A    between atoms: S_9  and  N_12
REMARK                            x       y       z     vdW  Elec       q    Type
REMARK                         _______ _______ _______ _____ _____    ______ ____
ROOT
ATOM      1  C   UNL     1       2.651   4.045  18.376  0.00  0.00    +0.000 A 
ATOM      2  C   UNL     1       2.896   5.373  18.003  0.00  0.00    +0.000 A 
ATOM      3  C   UNL     1       4.123   5.762  17.442  0.00  0.00    +0.000 A 
ATOM      4 CL   UNL     1       4.241   7.416  16.970  0.00  0.00    +0.000 Cl
ATOM      5  C   UNL     1       5.140   4.821  17.275  0.00  0.00    +0.000 A 
ATOM      6  C   UNL     1       4.894   3.482  17.617  0.00  0.00    +0.000 A 
ATOM      7  C   UNL     1       3.661   3.099  18.158  0.00  0.00    +0.000 A 
ATOM      8 CL   UNL     1       3.426   1.427  18.529  0.00  0.00    +0.000 Cl
ENDROOT
BRANCH   5   9
ATOM      9  S   UNL     1       6.704   5.208  16.535  0.00  0.00    +0.000 S 
ATOM     10  O   UNL     1       6.812   6.658  16.458  0.00  0.00    +0.000 OA
ATOM     11  O   UNL     1       7.738   4.414  17.172  0.00  0.00    +0.000 OA
BRANCH   9  12
ATOM     12  N   UNL     1       6.634   4.710  14.930  0.00  0.00    +0.000 N 
ATOM     13  C   UNL     1       7.469   5.114  13.925  0.00  0.00    +0.000 A 
ATOM     14  C   UNL     1       7.011   4.440  12.814  0.00  0.00    +0.000 A 
ATOM     15  N   UNL     1       5.914   3.671  13.128  0.00  0.00    +0.000 NA
ATOM     16  C   UNL     1       5.726   3.837  14.420  0.00  0.00    +0.000 A 
ENDBRANCH   9  12
ENDBRANCH   5   9
BRANCH   1  17
ATOM     17  O   UNL     1       1.478   3.603  18.935  0.00  0.00    +0.000 OA
BRANCH  17  19
ATOM     18  C   UNL     1       1.520   3.051  21.276  0.00  0.00    +0.000 C 
ATOM     19  C   UNL     1       1.148   4.093  20.236  0.00  0.00    +0.000 C 
ENDBRANCH  17  19
ENDBRANCH   1  17
TORSDOF 4
ENDMDL
MODEL 8
REMARK VINA RESULT:      -6.2      3.211      6.429
REMARK  Name = 
REMARK  5 active torsions:
REMARK  status: ('A' for Active; 'I' for Inactive)
REMARK    1  A    between atoms: C_1  and  C_2
REMARK    2  A    between atoms: C_2  and  O_3
REMARK    3  A    between atoms: O_3  and  C_4
REMARK    4  A    between atoms: C_8  and  S_9
REMARK    5  A    between atoms: S_9  and  N_12
REMARK                            x       y       z     vdW  Elec       q    Type
REMARK                         _______ _______ _______ _____ _____    ______ ____
ROOT
ATOM      1  C   UNL     1       2.802   4.317  18.359  0.00  0.00    +0.000 A 
ATOM      2  C   UNL     1       3.664   4.016  17.298  0.00  0.00    +0.000 A 
ATOM      3  C   UNL     1       5.041   4.285  17.374  0.00  0.00    +0.000 A 
ATOM      4 CL   UNL     1       5.978   3.789  16.013  0.00  0.00    +0.000 Cl
ATOM      5  C   UNL     1       5.569   4.894  18.513  0.00  0.00    +0.000 A 
ATOM      6  C   UNL     1       4.717   5.172  19.594  0.00  0.00    +0.000 A 
ATOM      7  C   UNL     1       3.350   4.883  19.519  0.00  0.00    +0.000 A 
ATOM      8 CL   UNL     1       2.373   5.230  20.902  0.00  0.00    +0.000 Cl
ENDROOT
BRANCH   5   9
ATOM      9  S   UNL     1       7.297   5.231  18.717  0.00  0.00    +0.000 S 
ATOM     10  O   UNL     1       7.583   5.239  20.144  0.00  0.00    +0.000 OA
ATOM     11  O   UNL     1       8.053   4.391  17.808  0.00  0.00    +0.000 OA
BRANCH   9  12
ATOM     12  N   UNL     1       7.556   6.820  18.232  0.00  0.00    +0.000 N 
ATOM     13  C   UNL     1       8.468   7.687  18.769  0.00  0.00    +0.000 A 
ATOM     14  C   UNL     1       8.298   8.847  18.046  0.00  0.00    +0.000 A 
ATOM     15  N   UNL     1       7.294   8.700  17.116  0.00  0.00    +0.000 NA
ATOM     16  C   UNL     1       6.883   7.455  17.238  0.00  0.00    +0.000 A 
ENDBRANCH   9  12
ENDBRANCH   5   9
BRANCH   1  17
ATOM     17  O   UNL     1       1.449   4.086  18.345  0.00  0.00    +0.000 OA
BRANCH  17  19
ATOM     18  C   UNL     1       1.559   2.069  19.651  0.00  0.00    +0.000 C 
ATOM     19  C   UNL     1       1.018   2.725  18.393  0.00  0.00    +0.000 C 
ENDBRANCH  17  19
ENDBRANCH   1  17
TORSDOF 4
ENDMDL
MODEL 9
REMARK VINA RESULT:      -6.2      2.159      2.936
REMARK  Name = 
REMARK  5 active torsions:
REMARK  status: ('A' for Active; 'I' for Inactive)
REMARK    1  A    between atoms: C_1  and  C_2
REMARK    2  A    between atoms: C_2  and  O_3
REMARK    3  A    between atoms: O_3  and  C_4
REMARK    4  A    between atoms: C_8  and  S_9
REMARK    5  A    between atoms: S_9  and  N_12
REMARK                            x       y       z     vdW  Elec       q    Type
REMARK                         _______ _______ _______ _____ _____    ______ ____
ROOT
ATOM      1  C   UNL     1       6.200   4.709  16.326  0.00  0.00    +0.000 A 
ATOM      2  C   UNL     1       5.122   3.815  16.312  0.00  0.00    +0.000 A 
ATOM      3  C   UNL     1       3.973   4.040  17.089  0.00  0.00    +0.000 A 
ATOM      4 CL   UNL     1       2.706   2.885  16.905  0.00  0.00    +0.000 Cl
ATOM      5  C   UNL     1       3.904   5.160  17.919  0.00  0.00    +0.000 A 
ATOM      6  C   UNL     1       4.967   6.078  17.916  0.00  0.00    +0.000 A 
ATOM      7  C   UNL     1       6.100   5.855  17.126  0.00  0.00    +0.000 A 
ATOM      8 CL   UNL     1       7.353   7.045  17.158  0.00  0.00    +0.000 Cl
ENDROOT
BRANCH   5   9
ATOM      9  S   UNL     1       2.480   5.550  18.899  0.00  0.00    +0.000 S 
ATOM     10  O   UNL     1       2.820   6.686  19.744  0.00  0.00    +0.000 OA
ATOM     11  O   UNL     1       1.310   5.580  18.042  0.00  0.00    +0.000 OA
BRANCH   9  12
ATOM     12  N   UNL     1       2.254   4.281  19.979  0.00  0.00    +0.000 N 
ATOM     13  C   UNL     1       1.054   3.844  20.468  0.00  0.00    +0.000 A 
ATOM     14  C   UNL     1       1.388   2.802  21.304  0.00  0.00    +0.000 A 
ATOM     15  N   UNL     1       2.753   2.626  21.343  0.00  0.00    +0.000 NA
ATOM     16  C   UNL     1       3.246   3.521  20.512  0.00  0.00    +0.000 A 
ENDBRANCH   9  12
ENDBRANCH   5   9
BRANCH   1  17
ATOM     17  O   UNL     1       7.352   4.542  15.598  0.00  0.00    +0.000 OA
BRANCH  17  19
ATOM     18  C   UNL     1       6.518   3.961  13.418  0.00  0.00    +0.000 C 
ATOM     19  C   UNL     1       7.326   4.956  14.231  0.00  0.00    +0.000 C 
ENDBRANCH  17  19
ENDBRANCH   1  17
TORSDOF 4
ENDMDL
