MODEL 1
REMARK VINA RESULT:      -7.4      0.000      0.000
REMARK  Name = 
REMARK  4 active torsions:
REMARK  status: ('A' for Active; 'I' for Inactive)
REMARK    1  A    between atoms: C_1  and  C_2
REMARK    2  A    between atoms: C_2  and  C_4
REMARK    3  A    between atoms: C_4  and  O_6
REMARK    4  A    between atoms: O_6  and  C_7
REMARK                            x       y       z     vdW  Elec       q    Type
REMARK                         _______ _______ _______ _____ _____    ______ ____
ROOT
ATOM      1  C   UNL     1       3.847   3.393  17.149  0.00  0.00    +0.000 C 
ATOM      2  C   UNL     1       4.021   3.291  15.626  0.00  0.00    +0.000 C 
ATOM      3  C   UNL     1       5.247   3.935  15.002  0.00  0.00    +0.000 A 
ATOM      4  C   UNL     1       5.432   3.679  13.625  0.00  0.00    +0.000 A 
ATOM      5  C   UNL     1       6.557   4.137  12.942  0.00  0.00    +0.000 A 
ATOM      6  C   UNL     1       7.527   4.854  13.626  0.00  0.00    +0.000 A 
ATOM      7  C   UNL     1       7.363   5.116  14.985  0.00  0.00    +0.000 A 
ATOM      8  C   UNL     1       6.225   4.679  15.694  0.00  0.00    +0.000 A 
ATOM      9  N   UNL     1       6.111   5.047  17.075  0.00  0.00    +0.000 N 
ATOM     10  C   UNL     1       7.197   4.945  17.946  0.00  0.00    +0.000 C 
ATOM     11  N   UNL     1       6.967   5.302  19.244  0.00  0.00    +0.000 N 
ATOM     12  O   UNL     1       8.307   4.496  17.670  0.00  0.00    +0.000 OA
ATOM     13  C   UNL     1       4.875   5.646  17.440  0.00  0.00    +0.000 A 
ATOM     14  C   UNL     1       4.825   7.016  17.736  0.00  0.00    +0.000 A 
ATOM     15  C   UNL     1       3.615   7.607  18.089  0.00  0.00    +0.000 A 
ATOM     16  C   UNL     1       2.459   6.832  18.167  0.00  0.00    +0.000 A 
ATOM     17  C   UNL     1       2.505   5.464  17.883  0.00  0.00    +0.000 A 
ATOM     18  C   UNL     1       3.714   4.859  17.515  0.00  0.00    +0.000 A 
ATOM     19  H   UNL     1       6.026   5.354  19.603  0.00  0.00    +0.000 HD
ATOM     20  H   UNL     1       7.685   5.000  19.893  0.00  0.00    +0.000 HD
ENDROOT
BRANCH   1  21
ATOM     21  O   UNL     1       2.691   2.635  17.569  0.00  0.00    +0.000 OA
BRANCH  21  22
ATOM     22  C   UNL     1       2.916   1.826  18.644  0.00  0.00    +0.000 C 
ATOM     23  O   UNL     1       3.787   0.960  18.683  0.00  0.00    +0.000 OA
BRANCH  22  25
ATOM     24  C   UNL     1       2.486   3.017  20.802  0.00  0.00    +0.000 C 
ATOM     25  C   UNL     1       1.914   2.065  19.758  0.00  0.00    +0.000 C 
ATOM     26 CL   UNL     1       0.418   2.747  19.070  0.00  0.00    +0.000 Cl
ENDBRANCH  22  25
ENDBRANCH  21  22
ENDBRANCH   1  21
TORSDOF 3
ENDMDL
MODEL 2
REMARK VINA RESULT:      -7.4      2.899      5.776
REMARK  Name = 
REMARK  4 active torsions:
REMARK  status: ('A' for Active; 'I' for Inactive)
REMARK    1  A    between atoms: C_1  and  C_2
REMARK    2  A    between atoms: C_2  and  C_4
REMARK    3  A    between atoms: C_4  and  O_6
REMARK    4  A    between atoms: O_6  and  C_7
REMARK                            x       y       z     vdW  Elec       q    Type
REMARK                         _______ _______ _______ _____ _____    ______ ____
ROOT
ATOM      1  C   UNL     1       5.087   3.894  16.235  0.00  0.00    +0.000 C 
ATOM      2  C   UNL     1       4.278   2.748  16.862  0.00  0.00    +0.000 C 
ATOM      3  C   UNL     1       3.274   3.094  17.949  0.00  0.00    +0.000 A 
ATOM      4  C   UNL     1       2.455   2.028  18.379  0.00  0.00    +0.000 A 
ATOM      5  C   UNL     1       1.436   2.219  19.309  0.00  0.00    +0.000 A 
ATOM      6  C   UNL     1       1.210   3.487  19.825  0.00  0.00    +0.000 A 
ATOM      7  C   UNL     1       2.008   4.553  19.413  0.00  0.00    +0.000 A 
ATOM      8  C   UNL     1       3.057   4.380  18.486  0.00  0.00    +0.000 A 
ATOM      9  N   UNL     1       3.865   5.520  18.166  0.00  0.00    +0.000 N 
ATOM     10  C   UNL     1       3.294   6.767  17.907  0.00  0.00    +0.000 C 
ATOM     11  N   UNL     1       4.159   7.776  17.591  0.00  0.00    +0.000 N 
ATOM     12  O   UNL     1       2.091   7.017  17.863  0.00  0.00    +0.000 OA
ATOM     13  C   UNL     1       5.268   5.314  18.276  0.00  0.00    +0.000 A 
ATOM     14  C   UNL     1       5.979   5.911  19.327  0.00  0.00    +0.000 A 
ATOM     15  C   UNL     1       7.352   5.708  19.441  0.00  0.00    +0.000 A 
ATOM     16  C   UNL     1       8.020   4.929  18.498  0.00  0.00    +0.000 A 
ATOM     17  C   UNL     1       7.317   4.341  17.441  0.00  0.00    +0.000 A 
ATOM     18  C   UNL     1       5.934   4.528  17.322  0.00  0.00    +0.000 A 
ATOM     19  H   UNL     1       5.099   7.569  17.286  0.00  0.00    +0.000 HD
ATOM     20  H   UNL     1       3.718   8.591  17.184  0.00  0.00    +0.000 HD
ENDROOT
BRANCH   1  21
ATOM     21  O   UNL     1       5.904   3.392  15.154  0.00  0.00    +0.000 OA
BRANCH  21  22
ATOM     22  C   UNL     1       6.099   4.286  14.142  0.00  0.00    +0.000 C 
ATOM     23  O   UNL     1       6.074   5.505  14.287  0.00  0.00    +0.000 OA
BRANCH  22  25
ATOM     24  C   UNL     1       4.928   3.456  12.092  0.00  0.00    +0.000 C 
ATOM     25  C   UNL     1       6.270   3.600  12.800  0.00  0.00    +0.000 C 
ATOM     26 CL   UNL     1       7.391   4.550  11.790  0.00  0.00    +0.000 Cl
ENDBRANCH  22  25
ENDBRANCH  21  22
ENDBRANCH   1  21
TORSDOF 3
ENDMDL
MODEL 3
REMARK VINA RESULT:      -6.5      1.127      1.153
REMARK  Name = 
REMARK  4 active torsions:
REMARK  status: ('A' for Active; 'I' for Inactive)
REMARK    1  A    between atoms: C_1  and  C_2
REMARK    2  A    between atoms: C_2  and  C_4
REMARK    3  A    between atoms: C_4  and  O_6
REMARK    4  A    between atoms: O_6  and  C_7
REMARK                            x       y       z     vdW  Elec       q    Type
REMARK                         _______ _______ _______ _____ _____    ______ ____
ROOT
ATOM      1  C   UNL     1       3.456   3.692  17.379  0.00  0.00    +0.000 C 
ATOM      2  C   UNL     1       3.704   3.492  15.876  0.00  0.00    +0.000 C 
ATOM      3  C   UNL     1       5.009   4.007  15.293  0.00  0.00    +0.000 A 
ATOM      4  C   UNL     1       5.249   3.662  13.945  0.00  0.00    +0.000 A 
ATOM      5  C   UNL     1       6.441   3.996  13.307  0.00  0.00    +0.000 A 
ATOM      6  C   UNL     1       7.425   4.677  14.008  0.00  0.00    +0.000 A 
ATOM      7  C   UNL     1       7.208   5.026  15.340  0.00  0.00    +0.000 A 
ATOM      8  C   UNL     1       6.002   4.714  16.002  0.00  0.00    +0.000 A 
ATOM      9  N   UNL     1       5.841   5.166  17.353  0.00  0.00    +0.000 N 
ATOM     10  C   UNL     1       6.866   5.033  18.291  0.00  0.00    +0.000 C 
ATOM     11  N   UNL     1       6.594   5.478  19.554  0.00  0.00    +0.000 N 
ATOM     12  O   UNL     1       7.952   4.488  18.105  0.00  0.00    +0.000 OA
ATOM     13  C   UNL     1       4.636   5.875  17.613  0.00  0.00    +0.000 A 
ATOM     14  C   UNL     1       4.676   7.259  17.835  0.00  0.00    +0.000 A 
ATOM     15  C   UNL     1       3.498   7.957  18.085  0.00  0.00    +0.000 A 
ATOM     16  C   UNL     1       2.283   7.276  18.134  0.00  0.00    +0.000 A 
ATOM     17  C   UNL     1       2.239   5.894  17.924  0.00  0.00    +0.000 A 
ATOM     18  C   UNL     1       3.416   5.181  17.661  0.00  0.00    +0.000 A 
ATOM     19  H   UNL     1       5.641   5.619  19.853  0.00  0.00    +0.000 HD
ATOM     20  H   UNL     1       7.249   5.161  20.258  0.00  0.00    +0.000 HD
ENDROOT
BRANCH   1  21
ATOM     21  O   UNL     1       2.223   3.046  17.769  0.00  0.00    +0.000 OA
BRANCH  21  22
ATOM     22  C   UNL     1       2.308   2.341  18.934  0.00  0.00    +0.000 C 
ATOM     23  O   UNL     1       1.696   1.299  19.153  0.00  0.00    +0.000 OA
BRANCH  22  25
ATOM     24  C   UNL     1       2.415   3.269  21.255  0.00  0.00    +0.000 C 
ATOM     25  C   UNL     1       3.183   3.037  19.959  0.00  0.00    +0.000 C 
ATOM     26 CL   UNL     1       4.626   2.040  20.278  0.00  0.00    +0.000 Cl
ENDBRANCH  22  25
ENDBRANCH  21  22
ENDBRANCH   1  21
TORSDOF 3
ENDMDL
MODEL 4
REMARK VINA RESULT:      -6.3      3.038      5.447
REMARK  Name = 
REMARK  4 active torsions:
REMARK  status: ('A' for Active; 'I' for Inactive)
REMARK    1  A    between atoms: C_1  and  C_2
REMARK    2  A    between atoms: C_2  and  C_4
REMARK    3  A    between atoms: C_4  and  O_6
REMARK    4  A    between atoms: O_6  and  C_7
REMARK                            x       y       z     vdW  Elec       q    Type
REMARK                         _______ _______ _______ _____ _____    ______ ____
ROOT
ATOM      1  C   UNL     1       3.336   6.739  17.965  0.00  0.00    +0.000 C 
ATOM      2  C   UNL     1       2.063   5.883  17.876  0.00  0.00    +0.000 C 
ATOM      3  C   UNL     1       2.171   4.406  18.214  0.00  0.00    +0.000 A 
ATOM      4  C   UNL     1       0.947   3.703  18.262  0.00  0.00    +0.000 A 
ATOM      5  C   UNL     1       0.888   2.364  18.641  0.00  0.00    +0.000 A 
ATOM      6  C   UNL     1       2.056   1.699  18.987  0.00  0.00    +0.000 A 
ATOM      7  C   UNL     1       3.274   2.375  18.946  0.00  0.00    +0.000 A 
ATOM      8  C   UNL     1       3.361   3.726  18.549  0.00  0.00    +0.000 A 
ATOM      9  N   UNL     1       4.662   4.322  18.478  0.00  0.00    +0.000 N 
ATOM     10  C   UNL     1       5.605   4.135  19.490  0.00  0.00    +0.000 C 
ATOM     11  N   UNL     1       6.804   4.769  19.327  0.00  0.00    +0.000 N 
ATOM     12  O   UNL     1       5.428   3.518  20.539  0.00  0.00    +0.000 OA
ATOM     13  C   UNL     1       4.956   4.984  17.254  0.00  0.00    +0.000 A 
ATOM     14  C   UNL     1       5.873   4.415  16.358  0.00  0.00    +0.000 A 
ATOM     15  C   UNL     1       6.160   5.058  15.156  0.00  0.00    +0.000 A 
ATOM     16  C   UNL     1       5.550   6.274  14.856  0.00  0.00    +0.000 A 
ATOM     17  C   UNL     1       4.643   6.851  15.750  0.00  0.00    +0.000 A 
ATOM     18  C   UNL     1       4.338   6.209  16.958  0.00  0.00    +0.000 A 
ATOM     19  H   UNL     1       6.893   5.538  18.680  0.00  0.00    +0.000 HD
ATOM     20  H   UNL     1       7.370   4.812  20.165  0.00  0.00    +0.000 HD
ENDROOT
BRANCH   1  21
ATOM     21  O   UNL     1       3.019   8.127  17.716  0.00  0.00    +0.000 OA
BRANCH  21  22
ATOM     22  C   UNL     1       2.094   8.649  18.572  0.00  0.00    +0.000 C 
ATOM     23  O   UNL     1       1.870   8.207  19.695  0.00  0.00    +0.000 OA
BRANCH  22  25
ATOM     24  C   UNL     1      -0.013   9.997  18.661  0.00  0.00    +0.000 C 
ATOM     25  C   UNL     1       1.317   9.792  17.945  0.00  0.00    +0.000 C 
ATOM     26 CL   UNL     1       2.289  11.284  18.030  0.00  0.00    +0.000 Cl
ENDBRANCH  22  25
ENDBRANCH  21  22
ENDBRANCH   1  21
TORSDOF 3
ENDMDL
MODEL 5
REMARK VINA RESULT:      -6.3      6.586      9.217
REMARK  Name = 
REMARK  4 active torsions:
REMARK  status: ('A' for Active; 'I' for Inactive)
REMARK    1  A    between atoms: C_1  and  C_2
REMARK    2  A    between atoms: C_2  and  C_4
REMARK    3  A    between atoms: C_4  and  O_6
REMARK    4  A    between atoms: O_6  and  C_7
REMARK                            x       y       z     vdW  Elec       q    Type
REMARK                         _______ _______ _______ _____ _____    ______ ____
ROOT
ATOM      1  C   UNL     1       0.865   9.841  19.402  0.00  0.00    +0.000 C 
ATOM      2  C   UNL     1      -0.245   9.305  18.484  0.00  0.00    +0.000 C 
ATOM      3  C   UNL     1      -1.473  10.174  18.266  0.00  0.00    +0.000 A 
ATOM      4  C   UNL     1      -2.386   9.700  17.298  0.00  0.00    +0.000 A 
ATOM      5  C   UNL     1      -3.513  10.435  16.937  0.00  0.00    +0.000 A 
ATOM      6  C   UNL     1      -3.746  11.667  17.531  0.00  0.00    +0.000 A 
ATOM      7  C   UNL     1      -2.856  12.151  18.488  0.00  0.00    +0.000 A 
ATOM      8  C   UNL     1      -1.719  11.418  18.884  0.00  0.00    +0.000 A 
ATOM      9  N   UNL     1      -0.892  11.965  19.919  0.00  0.00    +0.000 N 
ATOM     10  C   UNL     1      -0.527  13.313  19.922  0.00  0.00    +0.000 C 
ATOM     11  N   UNL     1       0.281  13.720  20.945  0.00  0.00    +0.000 N 
ATOM     12  O   UNL     1      -0.804  14.139  19.055  0.00  0.00    +0.000 OA
ATOM     13  C   UNL     1      -0.602  11.079  20.992  0.00  0.00    +0.000 A 
ATOM     14  C   UNL     1      -1.197  11.285  22.245  0.00  0.00    +0.000 A 
ATOM     15  C   UNL     1      -0.920  10.416  23.298  0.00  0.00    +0.000 A 
ATOM     16  C   UNL     1      -0.036   9.356  23.109  0.00  0.00    +0.000 A 
ATOM     17  C   UNL     1       0.568   9.152  21.864  0.00  0.00    +0.000 A 
ATOM     18  C   UNL     1       0.289  10.012  20.794  0.00  0.00    +0.000 A 
ATOM     19  H   UNL     1       0.805  13.046  21.484  0.00  0.00    +0.000 HD
ATOM     20  H   UNL     1       0.716  14.622  20.799  0.00  0.00    +0.000 HD
ENDROOT
BRANCH   1  21
ATOM     21  O   UNL     1       1.990   8.934  19.402  0.00  0.00    +0.000 OA
BRANCH  21  22
ATOM     22  C   UNL     1       2.315   8.451  18.169  0.00  0.00    +0.000 C 
ATOM     23  O   UNL     1       2.373   9.139  17.153  0.00  0.00    +0.000 OA
BRANCH  22  25
ATOM     24  C   UNL     1       3.906   6.587  17.662  0.00  0.00    +0.000 C 
ATOM     25  C   UNL     1       2.519   6.947  18.181  0.00  0.00    +0.000 C 
ATOM     26 CL   UNL     1       2.316   6.338  19.844  0.00  0.00    +0.000 Cl
ENDBRANCH  22  25
ENDBRANCH  21  22
ENDBRANCH   1  21
TORSDOF 3
ENDMDL
MODEL 6
REMARK VINA RESULT:      -6.2      9.630     12.267
REMARK  Name = 
REMARK  4 active torsions:
REMARK  status: ('A' for Active; 'I' for Inactive)
REMARK    1  A    between atoms: C_1  and  C_2
REMARK    2  A    between atoms: C_2  and  C_4
REMARK    3  A    between atoms: C_4  and  O_6
REMARK    4  A    between atoms: O_6  and  C_7
REMARK                            x       y       z     vdW  Elec       q    Type
REMARK                         _______ _______ _______ _____ _____    ______ ____
ROOT
ATOM      1  C   UNL     1      -2.640  13.512  21.509  0.00  0.00    +0.000 C 
ATOM      2  C   UNL     1      -2.276  12.432  22.540  0.00  0.00    +0.000 C 
ATOM      3  C   UNL     1      -1.322  11.330  22.113  0.00  0.00    +0.000 A 
ATOM      4  C   UNL     1      -0.905  10.456  23.141  0.00  0.00    +0.000 A 
ATOM      5  C   UNL     1       0.032   9.452  22.910  0.00  0.00    +0.000 A 
ATOM      6  C   UNL     1       0.580   9.305  21.645  0.00  0.00    +0.000 A 
ATOM      7  C   UNL     1       0.183  10.159  20.617  0.00  0.00    +0.000 A 
ATOM      8  C   UNL     1      -0.777  11.171  20.821  0.00  0.00    +0.000 A 
ATOM      9  N   UNL     1      -1.171  11.961  19.692  0.00  0.00    +0.000 N 
ATOM     10  C   UNL     1      -0.229  12.470  18.796  0.00  0.00    +0.000 C 
ATOM     11  N   UNL     1      -0.716  13.228  17.770  0.00  0.00    +0.000 N 
ATOM     12  O   UNL     1       0.992  12.361  18.890  0.00  0.00    +0.000 OA
ATOM     13  C   UNL     1      -2.574  12.060  19.484  0.00  0.00    +0.000 A 
ATOM     14  C   UNL     1      -3.167  11.387  18.406  0.00  0.00    +0.000 A 
ATOM     15  C   UNL     1      -4.542  11.477  18.202  0.00  0.00    +0.000 A 
ATOM     16  C   UNL     1      -5.322  12.252  19.058  0.00  0.00    +0.000 A 
ATOM     17  C   UNL     1      -4.735  12.934  20.128  0.00  0.00    +0.000 A 
ATOM     18  C   UNL     1      -3.354  12.843  20.351  0.00  0.00    +0.000 A 
ATOM     19  H   UNL     1      -1.641  13.628  17.822  0.00  0.00    +0.000 HD
ATOM     20  H   UNL     1      -0.014  13.771  17.283  0.00  0.00    +0.000 HD
ENDROOT
BRANCH   1  21
ATOM     21  O   UNL     1      -3.465  14.527  22.124  0.00  0.00    +0.000 OA
BRANCH  21  22
ATOM     22  C   UNL     1      -2.761  15.549  22.689  0.00  0.00    +0.000 C 
ATOM     23  O   UNL     1      -1.752  16.046  22.195  0.00  0.00    +0.000 OA
BRANCH  22  25
ATOM     24  C   UNL     1      -4.842  15.824  24.051  0.00  0.00    +0.000 C 
ATOM     25  C   UNL     1      -3.323  15.950  24.041  0.00  0.00    +0.000 C 
ATOM     26 CL   UNL     1      -2.619  14.909  25.305  0.00  0.00    +0.000 Cl
ENDBRANCH  22  25
ENDBRANCH  21  22
ENDBRANCH   1  21
TORSDOF 3
ENDMDL
MODEL 7
REMARK VINA RESULT:      -6.2      9.060     11.213
REMARK  Name = 
REMARK  4 active torsions:
REMARK  status: ('A' for Active; 'I' for Inactive)
REMARK    1  A    between atoms: C_1  and  C_2
REMARK    2  A    between atoms: C_2  and  C_4
REMARK    3  A    between atoms: C_4  and  O_6
REMARK    4  A    between atoms: O_6  and  C_7
REMARK                            x       y       z     vdW  Elec       q    Type
REMARK                         _______ _______ _______ _____ _____    ______ ____
ROOT
ATOM      1  C   UNL     1      -1.491  12.034  18.729  0.00  0.00    +0.000 C 
ATOM      2  C   UNL     1      -0.603  10.848  19.138  0.00  0.00    +0.000 C 
ATOM      3  C   UNL     1      -0.468  10.535  20.619  0.00  0.00    +0.000 A 
ATOM      4  C   UNL     1       0.234   9.348  20.926  0.00  0.00    +0.000 A 
ATOM      5  C   UNL     1       0.363   8.895  22.236  0.00  0.00    +0.000 A 
ATOM      6  C   UNL     1      -0.216   9.616  23.270  0.00  0.00    +0.000 A 
ATOM      7  C   UNL     1      -0.913  10.790  22.987  0.00  0.00    +0.000 A 
ATOM      8  C   UNL     1      -1.042  11.278  21.671  0.00  0.00    +0.000 A 
ATOM      9  N   UNL     1      -1.723  12.525  21.481  0.00  0.00    +0.000 N 
ATOM     10  C   UNL     1      -2.923  12.806  22.137  0.00  0.00    +0.000 C 
ATOM     11  N   UNL     1      -3.495  14.016  21.864  0.00  0.00    +0.000 N 
ATOM     12  O   UNL     1      -3.541  12.040  22.874  0.00  0.00    +0.000 OA
ATOM     13  C   UNL     1      -1.020  13.484  20.701  0.00  0.00    +0.000 A 
ATOM     14  C   UNL     1      -0.470  14.616  21.320  0.00  0.00    +0.000 A 
ATOM     15  C   UNL     1       0.223  15.555  20.560  0.00  0.00    +0.000 A 
ATOM     16  C   UNL     1       0.352  15.378  19.184  0.00  0.00    +0.000 A 
ATOM     17  C   UNL     1      -0.204  14.257  18.560  0.00  0.00    +0.000 A 
ATOM     18  C   UNL     1      -0.895  13.299  19.315  0.00  0.00    +0.000 A 
ATOM     19  H   UNL     1      -3.228  14.534  21.040  0.00  0.00    +0.000 HD
ATOM     20  H   UNL     1      -4.460  14.097  22.159  0.00  0.00    +0.000 HD
ENDROOT
BRANCH   1  21
ATOM     21  O   UNL     1      -1.585  12.110  17.289  0.00  0.00    +0.000 OA
BRANCH  21  22
ATOM     22  C   UNL     1      -2.569  11.332  16.754  0.00  0.00    +0.000 C 
ATOM     23  O   UNL     1      -2.601  10.974  15.579  0.00  0.00    +0.000 OA
BRANCH  22  25
ATOM     24  C   UNL     1      -5.012  11.530  17.257  0.00  0.00    +0.000 C 
ATOM     25  C   UNL     1      -3.664  11.026  17.758  0.00  0.00    +0.000 C 
ATOM     26 CL   UNL     1      -3.739   9.266  18.032  0.00  0.00    +0.000 Cl
ENDBRANCH  22  25
ENDBRANCH  21  22
ENDBRANCH   1  21
TORSDOF 3
ENDMDL
MODEL 8
REMARK VINA RESULT:      -6.2      6.523      9.005
REMARK  Name = 
REMARK  4 active torsions:
REMARK  status: ('A' for Active; 'I' for Inactive)
REMARK    1  A    between atoms: C_1  and  C_2
REMARK    2  A    between atoms: C_2  and  C_4
REMARK    3  A    between atoms: C_4  and  O_6
REMARK    4  A    between atoms: O_6  and  C_7
REMARK                            x       y       z     vdW  Elec       q    Type
REMARK                         _______ _______ _______ _____ _____    ______ ____
ROOT
ATOM      1  C   UNL     1       1.177  10.065  18.847  0.00  0.00    +0.000 C 
ATOM      2  C   UNL     1       2.105  11.081  18.160  0.00  0.00    +0.000 C 
ATOM      3  C   UNL     1       1.975  12.543  18.551  0.00  0.00    +0.000 A 
ATOM      4  C   UNL     1       2.950  13.405  18.003  0.00  0.00    +0.000 A 
ATOM      5  C   UNL     1       3.004  14.756  18.341  0.00  0.00    +0.000 A 
ATOM      6  C   UNL     1       2.084  15.272  19.242  0.00  0.00    +0.000 A 
ATOM      7  C   UNL     1       1.114  14.437  19.794  0.00  0.00    +0.000 A 
ATOM      8  C   UNL     1       1.029  13.071  19.454  0.00  0.00    +0.000 A 
ATOM      9  N   UNL     1      -0.039  12.302  20.023  0.00  0.00    +0.000 N 
ATOM     10  C   UNL     1      -0.368  12.405  21.375  0.00  0.00    +0.000 C 
ATOM     11  N   UNL     1      -1.389  11.609  21.813  0.00  0.00    +0.000 N 
ATOM     12  O   UNL     1       0.219  13.085  22.214  0.00  0.00    +0.000 OA
ATOM     13  C   UNL     1      -0.807  11.554  19.090  0.00  0.00    +0.000 A 
ATOM     14  C   UNL     1      -2.117  11.954  18.787  0.00  0.00    +0.000 A 
ATOM     15  C   UNL     1      -2.871  11.227  17.870  0.00  0.00    +0.000 A 
ATOM     16  C   UNL     1      -2.330  10.091  17.270  0.00  0.00    +0.000 A 
ATOM     17  C   UNL     1      -1.029   9.682  17.576  0.00  0.00    +0.000 A 
ATOM     18  C   UNL     1      -0.255  10.411  18.489  0.00  0.00    +0.000 A 
ATOM     19  H   UNL     1      -1.680  10.807  21.274  0.00  0.00    +0.000 HD
ATOM     20  H   UNL     1      -1.451  11.527  22.820  0.00  0.00    +0.000 HD
ENDROOT
BRANCH   1  21
ATOM     21  O   UNL     1       1.517   8.723  18.432  0.00  0.00    +0.000 OA
BRANCH  21  22
ATOM     22  C   UNL     1       1.950   7.920  19.446  0.00  0.00    +0.000 C 
ATOM     23  O   UNL     1       1.646   8.078  20.626  0.00  0.00    +0.000 OA
BRANCH  22  25
ATOM     24  C   UNL     1       2.184   5.544  18.697  0.00  0.00    +0.000 C 
ATOM     25  C   UNL     1       2.915   6.856  18.959  0.00  0.00    +0.000 C 
ATOM     26 CL   UNL     1       3.708   7.417  17.464  0.00  0.00    +0.000 Cl
ENDBRANCH  22  25
ENDBRANCH  21  22
ENDBRANCH   1  21
TORSDOF 3
ENDMDL
MODEL 9
REMARK VINA RESULT:      -6.2      9.456     11.963
REMARK  Name = 
REMARK  4 active torsions:
REMARK  status: ('A' for Active; 'I' for Inactive)
REMARK    1  A    between atoms: C_1  and  C_2
REMARK    2  A    between atoms: C_2  and  C_4
REMARK    3  A    between atoms: C_4  and  O_6
REMARK    4  A    between atoms: O_6  and  C_7
REMARK                            x       y       z     vdW  Elec       q    Type
REMARK                         _______ _______ _______ _____ _____    ______ ____
ROOT
ATOM      1  C   UNL     1      -1.856  12.878  22.647  0.00  0.00    +0.000 C 
ATOM      2  C   UNL     1      -1.355  11.494  23.090  0.00  0.00    +0.000 C 
ATOM      3  C   UNL     1      -0.591  10.654  22.080  0.00  0.00    +0.000 A 
ATOM      4  C   UNL     1      -0.027   9.463  22.586  0.00  0.00    +0.000 A 
ATOM      5  C   UNL     1       0.769   8.639  21.793  0.00  0.00    +0.000 A 
ATOM      6  C   UNL     1       1.024   8.994  20.477  0.00  0.00    +0.000 A 
ATOM      7  C   UNL     1       0.476  10.167  19.960  0.00  0.00    +0.000 A 
ATOM      8  C   UNL     1      -0.347  11.008  20.736  0.00  0.00    +0.000 A 
ATOM      9  N   UNL     1      -0.918  12.161  20.104  0.00  0.00    +0.000 N 
ATOM     10  C   UNL     1      -0.155  12.988  19.278  0.00  0.00    +0.000 C 
ATOM     11  N   UNL     1      -0.797  14.071  18.746  0.00  0.00    +0.000 N 
ATOM     12  O   UNL     1       1.047  12.874  19.049  0.00  0.00    +0.000 OA
ATOM     13  C   UNL     1      -2.323  12.305  20.266  0.00  0.00    +0.000 A 
ATOM     14  C   UNL     1      -3.176  12.081  19.177  0.00  0.00    +0.000 A 
ATOM     15  C   UNL     1      -4.553  12.217  19.333  0.00  0.00    +0.000 A 
ATOM     16  C   UNL     1      -5.078  12.595  20.568  0.00  0.00    +0.000 A 
ATOM     17  C   UNL     1      -4.231  12.829  21.655  0.00  0.00    +0.000 A 
ATOM     18  C   UNL     1      -2.844  12.686  21.513  0.00  0.00    +0.000 A 
ATOM     19  H   UNL     1      -1.661  14.404  19.148  0.00  0.00    +0.000 HD
ATOM     20  H   UNL     1      -0.179  14.770  18.354  0.00  0.00    +0.000 HD
ENDROOT
BRANCH   1  21
ATOM     21  O   UNL     1      -2.460  13.568  23.764  0.00  0.00    +0.000 OA
BRANCH  21  22
ATOM     22  C   UNL     1      -1.873  14.762  24.064  0.00  0.00    +0.000 C 
ATOM     23  O   UNL     1      -0.729  14.877  24.497  0.00  0.00    +0.000 OA
BRANCH  22  25
ATOM     24  C   UNL     1      -2.735  16.474  22.455  0.00  0.00    +0.000 C 
ATOM     25  C   UNL     1      -2.825  15.928  23.875  0.00  0.00    +0.000 C 
ATOM     26 CL   UNL     1      -4.491  15.392  24.215  0.00  0.00    +0.000 Cl
ENDBRANCH  22  25
ENDBRANCH  21  22
ENDBRANCH   1  21
TORSDOF 3
ENDMDL
