MODEL 1
REMARK VINA RESULT:      -8.1      0.000      0.000
REMARK  Name = 
REMARK  7 active torsions:
REMARK  status: ('A' for Active; 'I' for Inactive)
REMARK    1  A    between atoms: C_2  and  C_3
REMARK    2  A    between atoms: C_6  and  C_7
REMARK    3  A    between atoms: C_7  and  O_8
REMARK    4  A    between atoms: O_8  and  C_9
REMARK    5  A    between atoms: C_19  and  C_20
REMARK    6  A    between atoms: C_24  and  O_25
REMARK    7  A    between atoms: C_24  and  C_26
REMARK                            x       y       z     vdW  Elec       q    Type
REMARK                         _______ _______ _______ _____ _____    ______ ____
ROOT
ATOM      1  O   UNL     1       6.447   4.928  19.952  0.00  0.00    +0.000 OA
ATOM      2  C   UNL     1       5.625   4.627  19.080  0.00  0.00    +0.000 C 
ATOM      3  N   UNL     1       6.032   4.463  17.750  0.00  0.00    +0.000 N 
ATOM      4  N   UNL     1       5.152   4.164  16.738  0.00  0.00    +0.000 NA
ATOM      5  C   UNL     1       5.809   4.255  15.626  0.00  0.00    +0.000 C 
ATOM      6  C   UNL     1       7.284   4.444  15.771  0.00  0.00    +0.000 C 
ATOM      7  C   UNL     1       7.344   4.878  17.236  0.00  0.00    +0.000 C 
ENDROOT
BRANCH   2   8
ATOM      8  C   UNL     1       4.225   4.360  19.392  0.00  0.00    +0.000 A 
ATOM      9  C   UNL     1       3.429   3.251  19.166  0.00  0.00    +0.000 A 
ATOM     10  C   UNL     1       2.121   3.587  19.603  0.00  0.00    +0.000 A 
ATOM     11  C   UNL     1       2.198   4.872  20.095  0.00  0.00    +0.000 A 
ATOM     12  O   UNL     1       3.477   5.317  20.018  0.00  0.00    +0.000 OA
BRANCH  11  13
ATOM     13  C   UNL     1       1.191   5.868  20.534  0.00  0.00    +0.000 C 
BRANCH  13  14
ATOM     14  O   UNL     1       1.856   7.083  20.887  0.00  0.00    +0.000 OA
BRANCH  14  15
ATOM     15  C   UNL     1       1.560   8.139  20.054  0.00  0.00    +0.000 A 
ATOM     16  C   UNL     1       2.038   8.219  18.739  0.00  0.00    +0.000 A 
ATOM     17  C   UNL     1       1.708   9.302  17.921  0.00  0.00    +0.000 A 
ATOM     18  C   UNL     1       0.874  10.306  18.399  0.00  0.00    +0.000 A 
ATOM     19  C   UNL     1       0.365  10.227  19.693  0.00  0.00    +0.000 A 
ATOM     20  C   UNL     1       0.704   9.146  20.519  0.00  0.00    +0.000 A 
ATOM     21 BR   UNL     1      -0.011   9.120  22.278  0.00  0.00    +0.000 Br
ENDBRANCH  14  15
ENDBRANCH  13  14
ENDBRANCH  11  13
ENDBRANCH   2   8
BRANCH   5  22
ATOM     22  C   UNL     1       5.171   4.142  14.279  0.00  0.00    +0.000 C 
ATOM     23  F   UNL     1       4.914   5.370  13.753  0.00  0.00    +0.000 F 
ATOM     24  F   UNL     1       5.988   3.513  13.393  0.00  0.00    +0.000 F 
ENDBRANCH   5  22
BRANCH   7  25
ATOM     25  C   UNL     1       7.572   6.400  17.350  0.00  0.00    +0.000 C 
ATOM     26  F   UNL     1       6.375   7.041  17.445  0.00  0.00    +0.000 F 
ATOM     27  F   UNL     1       8.228   6.680  18.513  0.00  0.00    +0.000 F 
ENDBRANCH   7  25
BRANCH   7  28
ATOM     28  O   UNL     1       8.361   4.114  17.882  0.00  0.00    +0.000 OA
ATOM     29  H   UNL     1       7.900   3.448  18.419  0.00  0.00    +0.000 HD
ENDBRANCH   7  28
TORSDOF 7
ENDMDL
MODEL 2
REMARK VINA RESULT:      -8.0      3.270      4.869
REMARK  Name = 
REMARK  7 active torsions:
REMARK  status: ('A' for Active; 'I' for Inactive)
REMARK    1  A    between atoms: C_2  and  C_3
REMARK    2  A    between atoms: C_6  and  C_7
REMARK    3  A    between atoms: C_7  and  O_8
REMARK    4  A    between atoms: O_8  and  C_9
REMARK    5  A    between atoms: C_19  and  C_20
REMARK    6  A    between atoms: C_24  and  O_25
REMARK    7  A    between atoms: C_24  and  C_26
REMARK                            x       y       z     vdW  Elec       q    Type
REMARK                         _______ _______ _______ _____ _____    ______ ____
ROOT
ATOM      1  O   UNL     1       4.795   6.398  17.695  0.00  0.00    +0.000 OA
ATOM      2  C   UNL     1       3.826   6.164  18.426  0.00  0.00    +0.000 C 
ATOM      3  N   UNL     1       3.682   4.908  19.028  0.00  0.00    +0.000 N 
ATOM      4  N   UNL     1       2.605   4.586  19.820  0.00  0.00    +0.000 NA
ATOM      5  C   UNL     1       2.685   3.318  20.070  0.00  0.00    +0.000 C 
ATOM      6  C   UNL     1       3.951   2.660  19.627  0.00  0.00    +0.000 C 
ATOM      7  C   UNL     1       4.468   3.724  18.658  0.00  0.00    +0.000 C 
ENDROOT
BRANCH   2   8
ATOM      8  C   UNL     1       2.836   7.185  18.752  0.00  0.00    +0.000 A 
ATOM      9  C   UNL     1       2.247   8.171  17.982  0.00  0.00    +0.000 A 
ATOM     10  C   UNL     1       1.421   8.933  18.850  0.00  0.00    +0.000 A 
ATOM     11  C   UNL     1       1.533   8.352  20.094  0.00  0.00    +0.000 A 
ATOM     12  O   UNL     1       2.343   7.267  20.024  0.00  0.00    +0.000 OA
BRANCH  11  13
ATOM     13  C   UNL     1       1.087   8.740  21.454  0.00  0.00    +0.000 C 
BRANCH  13  14
ATOM     14  O   UNL     1       1.336  10.134  21.650  0.00  0.00    +0.000 OA
BRANCH  14  15
ATOM     15  C   UNL     1       0.198  10.870  21.896  0.00  0.00    +0.000 A 
ATOM     16  C   UNL     1      -0.705  10.544  22.916  0.00  0.00    +0.000 A 
ATOM     17  C   UNL     1      -1.844  11.320  23.140  0.00  0.00    +0.000 A 
ATOM     18  C   UNL     1      -2.081  12.448  22.365  0.00  0.00    +0.000 A 
ATOM     19  C   UNL     1      -1.177  12.805  21.366  0.00  0.00    +0.000 A 
ATOM     20  C   UNL     1      -0.039  12.021  21.132  0.00  0.00    +0.000 A 
ATOM     21 BR   UNL     1       1.133  12.558  19.739  0.00  0.00    +0.000 Br
ENDBRANCH  14  15
ENDBRANCH  13  14
ENDBRANCH  11  13
ENDBRANCH   2   8
BRANCH   5  22
ATOM     22  C   UNL     1       1.621   2.550  20.785  0.00  0.00    +0.000 C 
ATOM     23  F   UNL     1       1.376   3.079  22.014  0.00  0.00    +0.000 F 
ATOM     24  F   UNL     1       0.440   2.590  20.112  0.00  0.00    +0.000 F 
ENDBRANCH   5  22
BRANCH   7  25
ATOM     25  C   UNL     1       4.237   3.294  17.194  0.00  0.00    +0.000 C 
ATOM     26  F   UNL     1       3.038   3.766  16.755  0.00  0.00    +0.000 F 
ATOM     27  F   UNL     1       5.173   3.877  16.391  0.00  0.00    +0.000 F 
ENDBRANCH   7  25
BRANCH   7  28
ATOM     28  O   UNL     1       5.842   3.964  18.956  0.00  0.00    +0.000 OA
ATOM     29  H   UNL     1       6.214   3.107  19.225  0.00  0.00    +0.000 HD
ENDBRANCH   7  28
TORSDOF 7
ENDMDL
MODEL 3
REMARK VINA RESULT:      -8.0      1.101      1.575
REMARK  Name = 
REMARK  7 active torsions:
REMARK  status: ('A' for Active; 'I' for Inactive)
REMARK    1  A    between atoms: C_2  and  C_3
REMARK    2  A    between atoms: C_6  and  C_7
REMARK    3  A    between atoms: C_7  and  O_8
REMARK    4  A    between atoms: O_8  and  C_9
REMARK    5  A    between atoms: C_19  and  C_20
REMARK    6  A    between atoms: C_24  and  O_25
REMARK    7  A    between atoms: C_24  and  C_26
REMARK                            x       y       z     vdW  Elec       q    Type
REMARK                         _______ _______ _______ _____ _____    ______ ____
ROOT
ATOM      1  O   UNL     1       6.566   5.050  19.987  0.00  0.00    +0.000 OA
ATOM      2  C   UNL     1       5.711   4.753  19.146  0.00  0.00    +0.000 C 
ATOM      3  N   UNL     1       6.077   4.536  17.812  0.00  0.00    +0.000 N 
ATOM      4  N   UNL     1       5.161   4.239  16.832  0.00  0.00    +0.000 NA
ATOM      5  C   UNL     1       5.791   4.274  15.701  0.00  0.00    +0.000 C 
ATOM      6  C   UNL     1       7.275   4.412  15.804  0.00  0.00    +0.000 C 
ATOM      7  C   UNL     1       7.389   4.887  17.253  0.00  0.00    +0.000 C 
ENDROOT
BRANCH   2   8
ATOM      8  C   UNL     1       4.311   4.547  19.502  0.00  0.00    +0.000 A 
ATOM      9  C   UNL     1       3.500   3.429  19.426  0.00  0.00    +0.000 A 
ATOM     10  C   UNL     1       2.200   3.835  19.827  0.00  0.00    +0.000 A 
ATOM     11  C   UNL     1       2.298   5.171  20.150  0.00  0.00    +0.000 A 
ATOM     12  O   UNL     1       3.581   5.586  20.006  0.00  0.00    +0.000 OA
BRANCH  11  13
ATOM     13  C   UNL     1       1.308   6.228  20.466  0.00  0.00    +0.000 C 
BRANCH  13  14
ATOM     14  O   UNL     1       1.984   7.480  20.599  0.00  0.00    +0.000 OA
BRANCH  14  15
ATOM     15  C   UNL     1       1.137   8.551  20.782  0.00  0.00    +0.000 A 
ATOM     16  C   UNL     1       0.519   8.822  22.011  0.00  0.00    +0.000 A 
ATOM     17  C   UNL     1      -0.327   9.922  22.160  0.00  0.00    +0.000 A 
ATOM     18  C   UNL     1      -0.546  10.782  21.090  0.00  0.00    +0.000 A 
ATOM     19  C   UNL     1       0.084  10.545  19.870  0.00  0.00    +0.000 A 
ATOM     20  C   UNL     1       0.926   9.435  19.715  0.00  0.00    +0.000 A 
ATOM     21 BR   UNL     1       1.731   9.166  18.018  0.00  0.00    +0.000 Br
ENDBRANCH  14  15
ENDBRANCH  13  14
ENDBRANCH  11  13
ENDBRANCH   2   8
BRANCH   5  22
ATOM     22  C   UNL     1       5.114   4.144  14.375  0.00  0.00    +0.000 C 
ATOM     23  F   UNL     1       4.891   5.364  13.817  0.00  0.00    +0.000 F 
ATOM     24  F   UNL     1       5.883   3.456  13.489  0.00  0.00    +0.000 F 
ENDBRANCH   5  22
BRANCH   7  25
ATOM     25  C   UNL     1       7.674   6.402  17.315  0.00  0.00    +0.000 C 
ATOM     26  F   UNL     1       6.503   7.095  17.288  0.00  0.00    +0.000 F 
ATOM     27  F   UNL     1       8.253   6.712  18.511  0.00  0.00    +0.000 F 
ENDBRANCH   7  25
BRANCH   7  28
ATOM     28  O   UNL     1       8.395   4.106  17.896  0.00  0.00    +0.000 OA
ATOM     29  H   UNL     1       8.626   4.581  18.712  0.00  0.00    +0.000 HD
ENDBRANCH   7  28
TORSDOF 7
ENDMDL
MODEL 4
REMARK VINA RESULT:      -7.9      3.330      4.966
REMARK  Name = 
REMARK  7 active torsions:
REMARK  status: ('A' for Active; 'I' for Inactive)
REMARK    1  A    between atoms: C_2  and  C_3
REMARK    2  A    between atoms: C_6  and  C_7
REMARK    3  A    between atoms: C_7  and  O_8
REMARK    4  A    between atoms: O_8  and  C_9
REMARK    5  A    between atoms: C_19  and  C_20
REMARK    6  A    between atoms: C_24  and  O_25
REMARK    7  A    between atoms: C_24  and  C_26
REMARK                            x       y       z     vdW  Elec       q    Type
REMARK                         _______ _______ _______ _____ _____    ______ ____
ROOT
ATOM      1  O   UNL     1       4.813   5.936  17.407  0.00  0.00    +0.000 OA
ATOM      2  C   UNL     1       3.853   5.953  18.185  0.00  0.00    +0.000 C 
ATOM      3  N   UNL     1       3.606   4.862  19.027  0.00  0.00    +0.000 N 
ATOM      4  N   UNL     1       2.532   4.816  19.884  0.00  0.00    +0.000 NA
ATOM      5  C   UNL     1       2.494   3.621  20.380  0.00  0.00    +0.000 C 
ATOM      6  C   UNL     1       3.672   2.760  20.057  0.00  0.00    +0.000 C 
ATOM      7  C   UNL     1       4.256   3.552  18.888  0.00  0.00    +0.000 C 
ENDROOT
BRANCH   2   8
ATOM      8  C   UNL     1       2.981   7.116  18.317  0.00  0.00    +0.000 A 
ATOM      9  C   UNL     1       2.687   8.146  17.441  0.00  0.00    +0.000 A 
ATOM     10  C   UNL     1       1.843   9.050  18.139  0.00  0.00    +0.000 A 
ATOM     11  C   UNL     1       1.649   8.507  19.391  0.00  0.00    +0.000 A 
ATOM     12  O   UNL     1       2.291   7.316  19.479  0.00  0.00    +0.000 OA
BRANCH  11  13
ATOM     13  C   UNL     1       1.035   9.006  20.645  0.00  0.00    +0.000 C 
BRANCH  13  14
ATOM     14  O   UNL     1      -0.229   9.601  20.343  0.00  0.00    +0.000 OA
BRANCH  14  15
ATOM     15  C   UNL     1      -0.152  10.945  20.051  0.00  0.00    +0.000 A 
ATOM     16  C   UNL     1       0.600  11.843  20.820  0.00  0.00    +0.000 A 
ATOM     17  C   UNL     1       0.660  13.197  20.487  0.00  0.00    +0.000 A 
ATOM     18  C   UNL     1      -0.010  13.668  19.364  0.00  0.00    +0.000 A 
ATOM     19  C   UNL     1      -0.738  12.784  18.570  0.00  0.00    +0.000 A 
ATOM     20  C   UNL     1      -0.808  11.426  18.909  0.00  0.00    +0.000 A 
ATOM     21 BR   UNL     1      -1.837  10.288  17.792  0.00  0.00    +0.000 Br
ENDBRANCH  14  15
ENDBRANCH  13  14
ENDBRANCH  11  13
ENDBRANCH   2   8
BRANCH   5  22
ATOM     22  C   UNL     1       1.386   3.124  21.250  0.00  0.00    +0.000 C 
ATOM     23  F   UNL     1       0.350   2.652  20.505  0.00  0.00    +0.000 F 
ATOM     24  F   UNL     1       1.793   2.088  22.032  0.00  0.00    +0.000 F 
ENDBRANCH   5  22
BRANCH   7  25
ATOM     25  C   UNL     1       3.932   2.870  17.543  0.00  0.00    +0.000 C 
ATOM     26  F   UNL     1       3.678   1.547  17.744  0.00  0.00    +0.000 F 
ATOM     27  F   UNL     1       2.778   3.387  17.032  0.00  0.00    +0.000 F 
ENDBRANCH   7  25
BRANCH   7  28
ATOM     28  O   UNL     1       5.658   3.701  19.111  0.00  0.00    +0.000 OA
ATOM     29  H   UNL     1       6.088   3.512  18.260  0.00  0.00    +0.000 HD
ENDBRANCH   7  28
TORSDOF 7
ENDMDL
MODEL 5
REMARK VINA RESULT:      -7.8      3.286      4.977
REMARK  Name = 
REMARK  7 active torsions:
REMARK  status: ('A' for Active; 'I' for Inactive)
REMARK    1  A    between atoms: C_2  and  C_3
REMARK    2  A    between atoms: C_6  and  C_7
REMARK    3  A    between atoms: C_7  and  O_8
REMARK    4  A    between atoms: O_8  and  C_9
REMARK    5  A    between atoms: C_19  and  C_20
REMARK    6  A    between atoms: C_24  and  O_25
REMARK    7  A    between atoms: C_24  and  C_26
REMARK                            x       y       z     vdW  Elec       q    Type
REMARK                         _______ _______ _______ _____ _____    ______ ____
ROOT
ATOM      1  O   UNL     1       5.005   6.162  17.650  0.00  0.00    +0.000 OA
ATOM      2  C   UNL     1       3.968   6.049  18.312  0.00  0.00    +0.000 C 
ATOM      3  N   UNL     1       3.687   4.855  18.988  0.00  0.00    +0.000 N 
ATOM      4  N   UNL     1       2.532   4.666  19.707  0.00  0.00    +0.000 NA
ATOM      5  C   UNL     1       2.501   3.419  20.053  0.00  0.00    +0.000 C 
ATOM      6  C   UNL     1       3.749   2.648  19.767  0.00  0.00    +0.000 C 
ATOM      7  C   UNL     1       4.414   3.597  18.770  0.00  0.00    +0.000 C 
ENDROOT
BRANCH   2   8
ATOM      8  C   UNL     1       3.030   7.154  18.480  0.00  0.00    +0.000 A 
ATOM      9  C   UNL     1       2.604   8.137  17.605  0.00  0.00    +0.000 A 
ATOM     10  C   UNL     1       1.751   9.001  18.341  0.00  0.00    +0.000 A 
ATOM     11  C   UNL     1       1.685   8.482  19.615  0.00  0.00    +0.000 A 
ATOM     12  O   UNL     1       2.412   7.339  19.684  0.00  0.00    +0.000 OA
BRANCH  11  13
ATOM     13  C   UNL     1       1.128   8.973  20.899  0.00  0.00    +0.000 C 
BRANCH  13  14
ATOM     14  O   UNL     1      -0.281   9.165  20.756  0.00  0.00    +0.000 OA
BRANCH  14  15
ATOM     15  C   UNL     1      -0.716  10.403  21.176  0.00  0.00    +0.000 A 
ATOM     16  C   UNL     1      -0.626  10.822  22.510  0.00  0.00    +0.000 A 
ATOM     17  C   UNL     1      -1.070  12.088  22.895  0.00  0.00    +0.000 A 
ATOM     18  C   UNL     1      -1.587  12.963  21.947  0.00  0.00    +0.000 A 
ATOM     19  C   UNL     1      -1.656  12.574  20.610  0.00  0.00    +0.000 A 
ATOM     20  C   UNL     1      -1.220  11.300  20.223  0.00  0.00    +0.000 A 
ATOM     21 BR   UNL     1      -1.367  10.834  18.389  0.00  0.00    +0.000 Br
ENDBRANCH  14  15
ENDBRANCH  13  14
ENDBRANCH  11  13
ENDBRANCH   2   8
BRANCH   5  22
ATOM     22  C   UNL     1       1.333   2.779  20.730  0.00  0.00    +0.000 C 
ATOM     23  F   UNL     1       1.427   2.891  22.083  0.00  0.00    +0.000 F 
ATOM     24  F   UNL     1       0.164   3.379  20.380  0.00  0.00    +0.000 F 
ENDBRANCH   5  22
BRANCH   7  25
ATOM     25  C   UNL     1       4.270   3.071  17.327  0.00  0.00    +0.000 C 
ATOM     26  F   UNL     1       4.013   1.734  17.345  0.00  0.00    +0.000 F 
ATOM     27  F   UNL     1       3.180   3.642  16.737  0.00  0.00    +0.000 F 
ENDBRANCH   7  25
BRANCH   7  28
ATOM     28  O   UNL     1       5.774   3.770  19.165  0.00  0.00    +0.000 OA
ATOM     29  H   UNL     1       5.901   3.212  19.951  0.00  0.00    +0.000 HD
ENDBRANCH   7  28
TORSDOF 7
ENDMDL
MODEL 6
REMARK VINA RESULT:      -7.8      3.511      5.250
REMARK  Name = 
REMARK  7 active torsions:
REMARK  status: ('A' for Active; 'I' for Inactive)
REMARK    1  A    between atoms: C_2  and  C_3
REMARK    2  A    between atoms: C_6  and  C_7
REMARK    3  A    between atoms: C_7  and  O_8
REMARK    4  A    between atoms: O_8  and  C_9
REMARK    5  A    between atoms: C_19  and  C_20
REMARK    6  A    between atoms: C_24  and  O_25
REMARK    7  A    between atoms: C_24  and  C_26
REMARK                            x       y       z     vdW  Elec       q    Type
REMARK                         _______ _______ _______ _____ _____    ______ ____
ROOT
ATOM      1  O   UNL     1       4.350   7.041  17.555  0.00  0.00    +0.000 OA
ATOM      2  C   UNL     1       3.366   6.811  18.266  0.00  0.00    +0.000 C 
ATOM      3  N   UNL     1       3.187   5.547  18.840  0.00  0.00    +0.000 N 
ATOM      4  N   UNL     1       2.092   5.231  19.608  0.00  0.00    +0.000 NA
ATOM      5  C   UNL     1       2.142   3.956  19.832  0.00  0.00    +0.000 C 
ATOM      6  C   UNL     1       3.401   3.282  19.394  0.00  0.00    +0.000 C 
ATOM      7  C   UNL     1       3.954   4.354  18.455  0.00  0.00    +0.000 C 
ENDROOT
BRANCH   2   8
ATOM      8  C   UNL     1       2.392   7.845  18.600  0.00  0.00    +0.000 A 
ATOM      9  C   UNL     1       1.734   8.774  17.814  0.00  0.00    +0.000 A 
ATOM     10  C   UNL     1       0.968   9.587  18.691  0.00  0.00    +0.000 A 
ATOM     11  C   UNL     1       1.182   9.091  19.958  0.00  0.00    +0.000 A 
ATOM     12  O   UNL     1       1.996   8.009  19.898  0.00  0.00    +0.000 OA
BRANCH  11  13
ATOM     13  C   UNL     1       0.838   9.567  21.320  0.00  0.00    +0.000 C 
BRANCH  13  14
ATOM     14  O   UNL     1       0.861  10.996  21.338  0.00  0.00    +0.000 OA
BRANCH  14  15
ATOM     15  C   UNL     1      -0.339  11.565  21.703  0.00  0.00    +0.000 A 
ATOM     16  C   UNL     1      -1.022  11.201  22.871  0.00  0.00    +0.000 A 
ATOM     17  C   UNL     1      -2.233  11.808  23.211  0.00  0.00    +0.000 A 
ATOM     18  C   UNL     1      -2.763  12.805  22.402  0.00  0.00    +0.000 A 
ATOM     19  C   UNL     1      -2.082  13.200  21.253  0.00  0.00    +0.000 A 
ATOM     20  C   UNL     1      -0.872  12.585  20.903  0.00  0.00    +0.000 A 
ATOM     21 BR   UNL     1      -0.014  13.162  19.311  0.00  0.00    +0.000 Br
ENDBRANCH  14  15
ENDBRANCH  13  14
ENDBRANCH  11  13
ENDBRANCH   2   8
BRANCH   5  22
ATOM     22  C   UNL     1       1.053   3.195  20.516  0.00  0.00    +0.000 C 
ATOM     23  F   UNL     1       0.270   2.543  19.615  0.00  0.00    +0.000 F 
ATOM     24  F   UNL     1       1.556   2.240  21.343  0.00  0.00    +0.000 F 
ENDBRANCH   5  22
BRANCH   7  25
ATOM     25  C   UNL     1       3.737   3.960  16.980  0.00  0.00    +0.000 C 
ATOM     26  F   UNL     1       4.845   3.330  16.500  0.00  0.00    +0.000 F 
ATOM     27  F   UNL     1       2.731   3.042  16.893  0.00  0.00    +0.000 F 
ENDBRANCH   7  25
BRANCH   7  28
ATOM     28  O   UNL     1       5.328   4.559  18.778  0.00  0.00    +0.000 OA
ATOM     29  H   UNL     1       5.756   3.690  18.704  0.00  0.00    +0.000 HD
ENDBRANCH   7  28
TORSDOF 7
ENDMDL
MODEL 7
REMARK VINA RESULT:      -7.8      3.784      5.438
REMARK  Name = 
REMARK  7 active torsions:
REMARK  status: ('A' for Active; 'I' for Inactive)
REMARK    1  A    between atoms: C_2  and  C_3
REMARK    2  A    between atoms: C_6  and  C_7
REMARK    3  A    between atoms: C_7  and  O_8
REMARK    4  A    between atoms: O_8  and  C_9
REMARK    5  A    between atoms: C_19  and  C_20
REMARK    6  A    between atoms: C_24  and  O_25
REMARK    7  A    between atoms: C_24  and  C_26
REMARK                            x       y       z     vdW  Elec       q    Type
REMARK                         _______ _______ _______ _____ _____    ______ ____
ROOT
ATOM      1  O   UNL     1       3.808   7.146  17.752  0.00  0.00    +0.000 OA
ATOM      2  C   UNL     1       3.073   6.844  18.699  0.00  0.00    +0.000 C 
ATOM      3  N   UNL     1       3.101   5.550  19.232  0.00  0.00    +0.000 N 
ATOM      4  N   UNL     1       2.279   5.154  20.260  0.00  0.00    +0.000 NA
ATOM      5  C   UNL     1       2.428   3.875  20.392  0.00  0.00    +0.000 C 
ATOM      6  C   UNL     1       3.530   3.274  19.582  0.00  0.00    +0.000 C 
ATOM      7  C   UNL     1       3.762   4.409  18.583  0.00  0.00    +0.000 C 
ENDROOT
BRANCH   2   8
ATOM      8  C   UNL     1       2.204   7.820  19.348  0.00  0.00    +0.000 A 
ATOM      9  C   UNL     1       1.721   7.901  20.642  0.00  0.00    +0.000 A 
ATOM     10  C   UNL     1       0.846   9.018  20.685  0.00  0.00    +0.000 A 
ATOM     11  C   UNL     1       0.865   9.571  19.423  0.00  0.00    +0.000 A 
ATOM     12  O   UNL     1       1.725   8.881  18.633  0.00  0.00    +0.000 OA
BRANCH  11  13
ATOM     13  C   UNL     1       0.066  10.622  18.747  0.00  0.00    +0.000 C 
BRANCH  13  14
ATOM     14  O   UNL     1      -1.312  10.453  19.085  0.00  0.00    +0.000 OA
BRANCH  14  15
ATOM     15  C   UNL     1      -2.164  10.569  18.008  0.00  0.00    +0.000 A 
ATOM     16  C   UNL     1      -1.990   9.836  16.827  0.00  0.00    +0.000 A 
ATOM     17  C   UNL     1      -2.880   9.975  15.760  0.00  0.00    +0.000 A 
ATOM     18  C   UNL     1      -3.971  10.829  15.871  0.00  0.00    +0.000 A 
ATOM     19  C   UNL     1      -4.176  11.543  17.050  0.00  0.00    +0.000 A 
ATOM     20  C   UNL     1      -3.278  11.413  18.118  0.00  0.00    +0.000 A 
ATOM     21 BR   UNL     1      -3.611  12.434  19.683  0.00  0.00    +0.000 Br
ENDBRANCH  14  15
ENDBRANCH  13  14
ENDBRANCH  11  13
ENDBRANCH   2   8
BRANCH   5  22
ATOM     22  C   UNL     1       1.600   3.039  21.314  0.00  0.00    +0.000 C 
ATOM     23  F   UNL     1       0.761   2.225  20.618  0.00  0.00    +0.000 F 
ATOM     24  F   UNL     1       2.374   2.222  22.076  0.00  0.00    +0.000 F 
ENDBRANCH   5  22
BRANCH   7  25
ATOM     25  C   UNL     1       3.147   4.069  17.210  0.00  0.00    +0.000 C 
ATOM     26  F   UNL     1       4.134   3.915  16.285  0.00  0.00    +0.000 F 
ATOM     27  F   UNL     1       2.518   2.860  17.275  0.00  0.00    +0.000 F 
ENDBRANCH   7  25
BRANCH   7  28
ATOM     28  O   UNL     1       5.165   4.659  18.516  0.00  0.00    +0.000 OA
ATOM     29  H   UNL     1       5.284   5.597  18.741  0.00  0.00    +0.000 HD
ENDBRANCH   7  28
TORSDOF 7
ENDMDL
MODEL 8
REMARK VINA RESULT:      -7.7      5.537      8.551
REMARK  Name = 
REMARK  7 active torsions:
REMARK  status: ('A' for Active; 'I' for Inactive)
REMARK    1  A    between atoms: C_2  and  C_3
REMARK    2  A    between atoms: C_6  and  C_7
REMARK    3  A    between atoms: C_7  and  O_8
REMARK    4  A    between atoms: O_8  and  C_9
REMARK    5  A    between atoms: C_19  and  C_20
REMARK    6  A    between atoms: C_24  and  O_25
REMARK    7  A    between atoms: C_24  and  C_26
REMARK                            x       y       z     vdW  Elec       q    Type
REMARK                         _______ _______ _______ _____ _____    ______ ____
ROOT
ATOM      1  O   UNL     1       1.453  11.680  20.191  0.00  0.00    +0.000 OA
ATOM      2  C   UNL     1       0.782  10.744  19.744  0.00  0.00    +0.000 C 
ATOM      3  N   UNL     1      -0.289  10.993  18.876  0.00  0.00    +0.000 N 
ATOM      4  N   UNL     1      -1.088   9.991  18.380  0.00  0.00    +0.000 NA
ATOM      5  C   UNL     1      -2.073  10.563  17.765  0.00  0.00    +0.000 C 
ATOM      6  C   UNL     1      -1.952  12.043  17.606  0.00  0.00    +0.000 C 
ATOM      7  C   UNL     1      -0.864  12.325  18.642  0.00  0.00    +0.000 C 
ENDROOT
BRANCH   2   8
ATOM      8  C   UNL     1       1.105   9.351  20.031  0.00  0.00    +0.000 A 
ATOM      9  C   UNL     1       0.791   8.539  21.107  0.00  0.00    +0.000 A 
ATOM     10  C   UNL     1       1.447   7.299  20.892  0.00  0.00    +0.000 A 
ATOM     11  C   UNL     1       2.102   7.415  19.685  0.00  0.00    +0.000 A 
ATOM     12  O   UNL     1       1.851   8.631  19.141  0.00  0.00    +0.000 OA
BRANCH  11  13
ATOM     13  C   UNL     1       3.093   6.577  18.968  0.00  0.00    +0.000 C 
BRANCH  13  14
ATOM     14  O   UNL     1       2.426   5.830  17.949  0.00  0.00    +0.000 OA
BRANCH  14  15
ATOM     15  C   UNL     1       2.307   4.487  18.234  0.00  0.00    +0.000 A 
ATOM     16  C   UNL     1       1.270   3.973  19.023  0.00  0.00    +0.000 A 
ATOM     17  C   UNL     1       1.178   2.604  19.283  0.00  0.00    +0.000 A 
ATOM     18  C   UNL     1       2.107   1.728  18.735  0.00  0.00    +0.000 A 
ATOM     19  C   UNL     1       3.128   2.219  17.923  0.00  0.00    +0.000 A 
ATOM     20  C   UNL     1       3.228   3.594  17.669  0.00  0.00    +0.000 A 
ATOM     21 BR   UNL     1       4.658   4.188  16.572  0.00  0.00    +0.000 Br
ENDBRANCH  14  15
ENDBRANCH  13  14
ENDBRANCH  11  13
ENDBRANCH   2   8
BRANCH   5  22
ATOM     22  C   UNL     1      -3.241   9.817  17.205  0.00  0.00    +0.000 C 
ATOM     23  F   UNL     1      -2.925   9.227  16.020  0.00  0.00    +0.000 F 
ATOM     24  F   UNL     1      -3.634   8.813  18.035  0.00  0.00    +0.000 F 
ENDBRANCH   5  22
BRANCH   7  25
ATOM     25  C   UNL     1      -1.467  12.943  19.920  0.00  0.00    +0.000 C 
ATOM     26  F   UNL     1      -1.082  14.244  20.032  0.00  0.00    +0.000 F 
ATOM     27  F   UNL     1      -2.827  12.974  19.818  0.00  0.00    +0.000 F 
ENDBRANCH   7  25
BRANCH   7  28
ATOM     28  O   UNL     1       0.122  13.158  18.034  0.00  0.00    +0.000 OA
ATOM     29  H   UNL     1      -0.338  13.974  17.773  0.00  0.00    +0.000 HD
ENDBRANCH   7  28
TORSDOF 7
ENDMDL
MODEL 9
REMARK VINA RESULT:      -7.6      5.298      8.429
REMARK  Name = 
REMARK  7 active torsions:
REMARK  status: ('A' for Active; 'I' for Inactive)
REMARK    1  A    between atoms: C_2  and  C_3
REMARK    2  A    between atoms: C_6  and  C_7
REMARK    3  A    between atoms: C_7  and  O_8
REMARK    4  A    between atoms: O_8  and  C_9
REMARK    5  A    between atoms: C_19  and  C_20
REMARK    6  A    between atoms: C_24  and  O_25
REMARK    7  A    between atoms: C_24  and  C_26
REMARK                            x       y       z     vdW  Elec       q    Type
REMARK                         _______ _______ _______ _____ _____    ______ ____
ROOT
ATOM      1  O   UNL     1       1.642  11.769  19.555  0.00  0.00    +0.000 OA
ATOM      2  C   UNL     1       1.013  10.832  19.052  0.00  0.00    +0.000 C 
ATOM      3  N   UNL     1      -0.281  11.032  18.559  0.00  0.00    +0.000 N 
ATOM      4  N   UNL     1      -1.036  10.015  18.025  0.00  0.00    +0.000 NA
ATOM      5  C   UNL     1      -2.225  10.488  17.830  0.00  0.00    +0.000 C 
ATOM      6  C   UNL     1      -2.366  11.961  18.036  0.00  0.00    +0.000 C 
ATOM      7  C   UNL     1      -1.083  12.235  18.821  0.00  0.00    +0.000 C 
ENDROOT
BRANCH   2   8
ATOM      8  C   UNL     1       1.600   9.506  18.884  0.00  0.00    +0.000 A 
ATOM      9  C   UNL     1       2.246   8.918  17.812  0.00  0.00    +0.000 A 
ATOM     10  C   UNL     1       2.525   7.577  18.185  0.00  0.00    +0.000 A 
ATOM     11  C   UNL     1       2.058   7.431  19.473  0.00  0.00    +0.000 A 
ATOM     12  O   UNL     1       1.550   8.608  19.913  0.00  0.00    +0.000 OA
BRANCH  11  13
ATOM     13  C   UNL     1       1.875   6.269  20.376  0.00  0.00    +0.000 C 
BRANCH  13  14
ATOM     14  O   UNL     1       3.013   5.411  20.273  0.00  0.00    +0.000 OA
BRANCH  14  15
ATOM     15  C   UNL     1       2.817   4.325  19.449  0.00  0.00    +0.000 A 
ATOM     16  C   UNL     1       1.604   3.625  19.400  0.00  0.00    +0.000 A 
ATOM     17  C   UNL     1       1.440   2.534  18.544  0.00  0.00    +0.000 A 
ATOM     18  C   UNL     1       2.478   2.146  17.706  0.00  0.00    +0.000 A 
ATOM     19  C   UNL     1       3.680   2.850  17.719  0.00  0.00    +0.000 A 
ATOM     20  C   UNL     1       3.851   3.938  18.585  0.00  0.00    +0.000 A 
ATOM     21 BR   UNL     1       5.524   4.834  18.561  0.00  0.00    +0.000 Br
ENDBRANCH  14  15
ENDBRANCH  13  14
ENDBRANCH  11  13
ENDBRANCH   2   8
BRANCH   5  22
ATOM     22  C   UNL     1      -3.383   9.653  17.390  0.00  0.00    +0.000 C 
ATOM     23  F   UNL     1      -4.556  10.331  17.519  0.00  0.00    +0.000 F 
ATOM     24  F   UNL     1      -3.283   9.315  16.077  0.00  0.00    +0.000 F 
ENDBRANCH   5  22
BRANCH   7  25
ATOM     25  C   UNL     1      -1.387  12.430  20.321  0.00  0.00    +0.000 C 
ATOM     26  F   UNL     1      -1.182  11.263  20.991  0.00  0.00    +0.000 F 
ATOM     27  F   UNL     1      -0.500  13.317  20.857  0.00  0.00    +0.000 F 
ENDBRANCH   7  25
BRANCH   7  28
ATOM     28  O   UNL     1      -0.437  13.363  18.234  0.00  0.00    +0.000 OA
ATOM     29  H   UNL     1      -0.103  13.898  18.973  0.00  0.00    +0.000 HD
ENDBRANCH   7  28
TORSDOF 7
ENDMDL
