MODEL 1
REMARK VINA RESULT:      -7.7      0.000      0.000
REMARK  Name = 
REMARK  6 active torsions:
REMARK  status: ('A' for Active; 'I' for Inactive)
REMARK    1  A    between atoms: C_1  and  C_2
REMARK    2  A    between atoms: C_2  and  C_16
REMARK    3  A    between atoms: N_3  and  N_4
REMARK    4  A    between atoms: C_5  and  C_7
REMARK    5  A    between atoms: C_19  and  N_20
REMARK    6  A    between atoms: C_21  and  C_23
REMARK                            x       y       z     vdW  Elec       q    Type
REMARK                         _______ _______ _______ _____ _____    ______ ____
ROOT
ATOM      1  C   UNL     1       2.030   3.603  21.651  0.00  0.00    +0.000 C 
ATOM      2  C   UNL     1       2.246   4.822  20.771  0.00  0.00    +0.000 C 
ATOM      3  N   UNL     1       1.795   5.948  21.246  0.00  0.00    +0.000 NA
ENDROOT
BRANCH   2   4
ATOM      4  C   UNL     1       2.986   4.608  19.487  0.00  0.00    +0.000 A 
ATOM      5  C   UNL     1       4.344   4.909  19.414  0.00  0.00    +0.000 A 
ATOM      6  C   UNL     1       5.051   4.724  18.222  0.00  0.00    +0.000 A 
ATOM      7  C   UNL     1       4.424   4.217  17.080  0.00  0.00    +0.000 A 
ATOM      8  C   UNL     1       3.057   3.929  17.147  0.00  0.00    +0.000 A 
ATOM      9  C   UNL     1       2.338   4.153  18.330  0.00  0.00    +0.000 A 
BRANCH   7  10
ATOM     10  N   UNL     1       5.098   3.993  15.861  0.00  0.00    +0.000 N 
ATOM     11  C   UNL     1       5.576   4.963  14.976  0.00  0.00    +0.000 C 
ATOM     12  O   UNL     1       5.477   6.183  15.139  0.00  0.00    +0.000 OA
ATOM     13  H   UNL     1       5.256   3.021  15.592  0.00  0.00    +0.000 HD
BRANCH  11  14
ATOM     14  C   UNL     1       6.263   4.379  13.730  0.00  0.00    +0.000 C 
ATOM     15  F   UNL     1       7.243   5.207  13.258  0.00  0.00    +0.000 F 
ATOM     16  F   UNL     1       6.859   3.182  13.976  0.00  0.00    +0.000 F 
ATOM     17  F   UNL     1       5.396   4.187  12.699  0.00  0.00    +0.000 F 
ENDBRANCH  11  14
ENDBRANCH   7  10
ENDBRANCH   2   4
BRANCH   3  18
ATOM     18  N   UNL     1       1.826   7.075  20.485  0.00  0.00    +0.000 N 
ATOM     19  C   UNL     1       0.924   8.096  20.751  0.00  0.00    +0.000 C 
ATOM     20  O   UNL     1       0.038   8.056  21.599  0.00  0.00    +0.000 OA
ATOM     21  H   UNL     1       2.583   7.193  19.827  0.00  0.00    +0.000 HD
BRANCH  19  22
ATOM     22  C   UNL     1       1.144   9.366  20.000  0.00  0.00    +0.000 A 
ATOM     23  C   UNL     1       1.662   9.389  18.685  0.00  0.00    +0.000 A 
ATOM     24  C   UNL     1       1.865  10.606  18.024  0.00  0.00    +0.000 A 
ATOM     25  C   UNL     1       1.543  11.767  18.695  0.00  0.00    +0.000 A 
ATOM     26  C   UNL     1       1.033  11.747  19.971  0.00  0.00    +0.000 A 
ATOM     27  C   UNL     1       0.817  10.567  20.648  0.00  0.00    +0.000 A 
ATOM     28  O   UNL     1       0.786  12.996  20.449  0.00  0.00    +0.000 OA
ATOM     29  C   UNL     1       1.225  13.806  19.340  0.00  0.00    +0.000 C 
ATOM     30  O   UNL     1       1.676  13.030  18.209  0.00  0.00    +0.000 OA
ENDBRANCH  19  22
ENDBRANCH   3  18
TORSDOF 5
ENDMDL
MODEL 2
REMARK VINA RESULT:      -7.7      4.047      7.955
REMARK  Name = 
REMARK  6 active torsions:
REMARK  status: ('A' for Active; 'I' for Inactive)
REMARK    1  A    between atoms: C_1  and  C_2
REMARK    2  A    between atoms: C_2  and  C_16
REMARK    3  A    between atoms: N_3  and  N_4
REMARK    4  A    between atoms: C_5  and  C_7
REMARK    5  A    between atoms: C_19  and  N_20
REMARK    6  A    between atoms: C_21  and  C_23
REMARK                            x       y       z     vdW  Elec       q    Type
REMARK                         _______ _______ _______ _____ _____    ______ ____
ROOT
ATOM      1  C   UNL     1       1.468   3.054  21.326  0.00  0.00    +0.000 C 
ATOM      2  C   UNL     1       2.437   3.659  20.325  0.00  0.00    +0.000 C 
ATOM      3  N   UNL     1       3.315   2.838  19.823  0.00  0.00    +0.000 NA
ENDROOT
BRANCH   2   4
ATOM      4  C   UNL     1       2.252   5.106  19.993  0.00  0.00    +0.000 A 
ATOM      5  C   UNL     1       1.855   5.999  20.986  0.00  0.00    +0.000 A 
ATOM      6  C   UNL     1       1.669   7.354  20.693  0.00  0.00    +0.000 A 
ATOM      7  C   UNL     1       1.893   7.853  19.407  0.00  0.00    +0.000 A 
ATOM      8  C   UNL     1       2.277   6.956  18.405  0.00  0.00    +0.000 A 
ATOM      9  C   UNL     1       2.424   5.591  18.688  0.00  0.00    +0.000 A 
BRANCH   7  10
ATOM     10  N   UNL     1       1.740   9.214  19.067  0.00  0.00    +0.000 N 
ATOM     11  C   UNL     1       0.694  10.060  19.444  0.00  0.00    +0.000 C 
ATOM     12  O   UNL     1      -0.267   9.732  20.147  0.00  0.00    +0.000 OA
ATOM     13  H   UNL     1       2.467   9.629  18.484  0.00  0.00    +0.000 HD
BRANCH  11  14
ATOM     14  C   UNL     1       0.828  11.491  18.899  0.00  0.00    +0.000 C 
ATOM     15  F   UNL     1       1.949  11.639  18.132  0.00  0.00    +0.000 F 
ATOM     16  F   UNL     1      -0.223  11.850  18.112  0.00  0.00    +0.000 F 
ATOM     17  F   UNL     1       0.917  12.420  19.889  0.00  0.00    +0.000 F 
ENDBRANCH  11  14
ENDBRANCH   7  10
ENDBRANCH   2   4
BRANCH   3  18
ATOM     18  N   UNL     1       4.306   3.302  19.015  0.00  0.00    +0.000 N 
ATOM     19  C   UNL     1       4.181   3.157  17.640  0.00  0.00    +0.000 C 
ATOM     20  O   UNL     1       3.260   2.583  17.069  0.00  0.00    +0.000 OA
ATOM     21  H   UNL     1       5.047   3.852  19.426  0.00  0.00    +0.000 HD
BRANCH  19  22
ATOM     22  C   UNL     1       5.213   3.855  16.820  0.00  0.00    +0.000 A 
ATOM     23  C   UNL     1       6.066   4.846  17.357  0.00  0.00    +0.000 A 
ATOM     24  C   UNL     1       7.011   5.485  16.544  0.00  0.00    +0.000 A 
ATOM     25  C   UNL     1       7.078   5.114  15.218  0.00  0.00    +0.000 A 
ATOM     26  C   UNL     1       6.255   4.146  14.695  0.00  0.00    +0.000 A 
ATOM     27  C   UNL     1       5.318   3.495  15.467  0.00  0.00    +0.000 A 
ATOM     28  O   UNL     1       6.482   3.933  13.371  0.00  0.00    +0.000 OA
ATOM     29  C   UNL     1       7.523   4.897  13.113  0.00  0.00    +0.000 C 
ATOM     30  O   UNL     1       7.930   5.628  14.291  0.00  0.00    +0.000 OA
ENDBRANCH  19  22
ENDBRANCH   3  18
TORSDOF 5
ENDMDL
MODEL 3
REMARK VINA RESULT:      -7.6      5.072      6.337
REMARK  Name = 
REMARK  6 active torsions:
REMARK  status: ('A' for Active; 'I' for Inactive)
REMARK    1  A    between atoms: C_1  and  C_2
REMARK    2  A    between atoms: C_2  and  C_16
REMARK    3  A    between atoms: N_3  and  N_4
REMARK    4  A    between atoms: C_5  and  C_7
REMARK    5  A    between atoms: C_19  and  N_20
REMARK    6  A    between atoms: C_21  and  C_23
REMARK                            x       y       z     vdW  Elec       q    Type
REMARK                         _______ _______ _______ _____ _____    ______ ____
ROOT
ATOM      1  C   UNL     1       6.948   4.232  16.133  0.00  0.00    +0.000 C 
ATOM      2  C   UNL     1       6.188   5.375  16.785  0.00  0.00    +0.000 C 
ATOM      3  N   UNL     1       4.889   5.288  16.740  0.00  0.00    +0.000 NA
ENDROOT
BRANCH   2   4
ATOM      4  C   UNL     1       7.005   6.443  17.442  0.00  0.00    +0.000 A 
ATOM      5  C   UNL     1       7.057   7.717  16.882  0.00  0.00    +0.000 A 
ATOM      6  C   UNL     1       7.821   8.726  17.477  0.00  0.00    +0.000 A 
ATOM      7  C   UNL     1       8.536   8.493  18.654  0.00  0.00    +0.000 A 
ATOM      8  C   UNL     1       8.497   7.210  19.210  0.00  0.00    +0.000 A 
ATOM      9  C   UNL     1       7.765   6.187  18.592  0.00  0.00    +0.000 A 
BRANCH   7  10
ATOM     10  N   UNL     1       9.303   9.483  19.304  0.00  0.00    +0.000 N 
ATOM     11  C   UNL     1       9.407  10.831  18.949  0.00  0.00    +0.000 C 
ATOM     12  O   UNL     1       8.826  11.361  17.997  0.00  0.00    +0.000 OA
ATOM     13  H   UNL     1       9.843   9.190  20.119  0.00  0.00    +0.000 HD
BRANCH  11  14
ATOM     14  C   UNL     1      10.334  11.644  19.867  0.00  0.00    +0.000 C 
ATOM     15  F   UNL     1       9.996  11.503  21.184  0.00  0.00    +0.000 F 
ATOM     16  F   UNL     1      11.636  11.260  19.764  0.00  0.00    +0.000 F 
ATOM     17  F   UNL     1      10.291  12.977  19.602  0.00  0.00    +0.000 F 
ENDBRANCH  11  14
ENDBRANCH   7  10
ENDBRANCH   2   4
BRANCH   3  18
ATOM     18  N   UNL     1       4.116   6.316  17.182  0.00  0.00    +0.000 N 
ATOM     19  C   UNL     1       3.032   6.043  18.004  0.00  0.00    +0.000 C 
ATOM     20  O   UNL     1       2.659   4.923  18.336  0.00  0.00    +0.000 OA
ATOM     21  H   UNL     1       4.424   7.262  17.005  0.00  0.00    +0.000 HD
BRANCH  19  22
ATOM     22  C   UNL     1       2.352   7.232  18.595  0.00  0.00    +0.000 A 
ATOM     23  C   UNL     1       1.954   8.342  17.816  0.00  0.00    +0.000 A 
ATOM     24  C   UNL     1       1.331   9.443  18.417  0.00  0.00    +0.000 A 
ATOM     25  C   UNL     1       1.122   9.403  19.779  0.00  0.00    +0.000 A 
ATOM     26  C   UNL     1       1.502   8.322  20.538  0.00  0.00    +0.000 A 
ATOM     27  C   UNL     1       2.113   7.221  19.978  0.00  0.00    +0.000 A 
ATOM     28  O   UNL     1       1.207   8.485  21.855  0.00  0.00    +0.000 OA
ATOM     29  C   UNL     1       0.624   9.803  21.845  0.00  0.00    +0.000 C 
ATOM     30  O   UNL     1       0.536  10.379  20.523  0.00  0.00    +0.000 OA
ENDBRANCH  19  22
ENDBRANCH   3  18
TORSDOF 5
ENDMDL
MODEL 4
REMARK VINA RESULT:      -7.5      1.915      2.517
REMARK  Name = 
REMARK  6 active torsions:
REMARK  status: ('A' for Active; 'I' for Inactive)
REMARK    1  A    between atoms: C_1  and  C_2
REMARK    2  A    between atoms: C_2  and  C_16
REMARK    3  A    between atoms: N_3  and  N_4
REMARK    4  A    between atoms: C_5  and  C_7
REMARK    5  A    between atoms: C_19  and  N_20
REMARK    6  A    between atoms: C_21  and  C_23
REMARK                            x       y       z     vdW  Elec       q    Type
REMARK                         _______ _______ _______ _____ _____    ______ ____
ROOT
ATOM      1  C   UNL     1       4.407   2.202  19.986  0.00  0.00    +0.000 C 
ATOM      2  C   UNL     1       4.318   3.667  19.592  0.00  0.00    +0.000 C 
ATOM      3  N   UNL     1       3.640   4.429  20.402  0.00  0.00    +0.000 NA
ENDROOT
BRANCH   2   4
ATOM      4  C   UNL     1       5.049   4.081  18.353  0.00  0.00    +0.000 A 
ATOM      5  C   UNL     1       6.349   4.573  18.450  0.00  0.00    +0.000 A 
ATOM      6  C   UNL     1       7.046   4.973  17.305  0.00  0.00    +0.000 A 
ATOM      7  C   UNL     1       6.469   4.873  16.036  0.00  0.00    +0.000 A 
ATOM      8  C   UNL     1       5.159   4.394  15.939  0.00  0.00    +0.000 A 
ATOM      9  C   UNL     1       4.445   4.032  17.089  0.00  0.00    +0.000 A 
BRANCH   7  10
ATOM     10  N   UNL     1       7.139   5.243  14.850  0.00  0.00    +0.000 N 
ATOM     11  C   UNL     1       7.006   4.649  13.592  0.00  0.00    +0.000 C 
ATOM     12  O   UNL     1       6.265   3.696  13.332  0.00  0.00    +0.000 OA
ATOM     13  H   UNL     1       7.791   6.026  14.912  0.00  0.00    +0.000 HD
BRANCH  11  14
ATOM     14  C   UNL     1       7.886   5.292  12.508  0.00  0.00    +0.000 C 
ATOM     15  F   UNL     1       7.416   6.521  12.137  0.00  0.00    +0.000 F 
ATOM     16  F   UNL     1       9.168   5.482  12.921  0.00  0.00    +0.000 F 
ATOM     17  F   UNL     1       7.941   4.546  11.372  0.00  0.00    +0.000 F 
ENDBRANCH  11  14
ENDBRANCH   7  10
ENDBRANCH   2   4
BRANCH   3  18
ATOM     18  N   UNL     1       3.393   5.727  20.078  0.00  0.00    +0.000 N 
ATOM     19  C   UNL     1       2.296   6.030  19.285  0.00  0.00    +0.000 C 
ATOM     20  O   UNL     1       1.533   5.209  18.787  0.00  0.00    +0.000 OA
ATOM     21  H   UNL     1       3.942   6.448  20.524  0.00  0.00    +0.000 HD
BRANCH  19  22
ATOM     22  C   UNL     1       1.989   7.482  19.131  0.00  0.00    +0.000 A 
ATOM     23  C   UNL     1       2.194   8.176  17.917  0.00  0.00    +0.000 A 
ATOM     24  C   UNL     1       1.905   9.543  17.824  0.00  0.00    +0.000 A 
ATOM     25  C   UNL     1       1.419  10.178  18.947  0.00  0.00    +0.000 A 
ATOM     26  C   UNL     1       1.212   9.504  20.127  0.00  0.00    +0.000 A 
ATOM     27  C   UNL     1       1.482   8.159  20.251  0.00  0.00    +0.000 A 
ATOM     28  O   UNL     1       0.731  10.314  21.108  0.00  0.00    +0.000 OA
ATOM     29  C   UNL     1       0.685  11.580  20.420  0.00  0.00    +0.000 C 
ATOM     30  O   UNL     1       1.088  11.494  19.036  0.00  0.00    +0.000 OA
ENDBRANCH  19  22
ENDBRANCH   3  18
TORSDOF 5
ENDMDL
MODEL 5
REMARK VINA RESULT:      -7.5      0.209      1.198
REMARK  Name = 
REMARK  6 active torsions:
REMARK  status: ('A' for Active; 'I' for Inactive)
REMARK    1  A    between atoms: C_1  and  C_2
REMARK    2  A    between atoms: C_2  and  C_16
REMARK    3  A    between atoms: N_3  and  N_4
REMARK    4  A    between atoms: C_5  and  C_7
REMARK    5  A    between atoms: C_19  and  N_20
REMARK    6  A    between atoms: C_21  and  C_23
REMARK                            x       y       z     vdW  Elec       q    Type
REMARK                         _______ _______ _______ _____ _____    ______ ____
ROOT
ATOM      1  C   UNL     1       2.022   3.546  21.640  0.00  0.00    +0.000 C 
ATOM      2  C   UNL     1       2.223   4.764  20.755  0.00  0.00    +0.000 C 
ATOM      3  N   UNL     1       1.706   5.875  21.197  0.00  0.00    +0.000 NA
ENDROOT
BRANCH   2   4
ATOM      4  C   UNL     1       3.024   4.569  19.506  0.00  0.00    +0.000 A 
ATOM      5  C   UNL     1       2.397   4.120  18.345  0.00  0.00    +0.000 A 
ATOM      6  C   UNL     1       3.130   3.924  17.170  0.00  0.00    +0.000 A 
ATOM      7  C   UNL     1       4.501   4.188  17.121  0.00  0.00    +0.000 A 
ATOM      8  C   UNL     1       5.135   4.624  18.289  0.00  0.00    +0.000 A 
ATOM      9  C   UNL     1       4.410   4.782  19.478  0.00  0.00    +0.000 A 
BRANCH   7  10
ATOM     10  N   UNL     1       5.279   4.026  15.955  0.00  0.00    +0.000 N 
ATOM     11  C   UNL     1       5.621   5.016  15.030  0.00  0.00    +0.000 C 
ATOM     12  O   UNL     1       5.286   6.203  15.105  0.00  0.00    +0.000 OA
ATOM     13  H   UNL     1       5.632   3.088  15.761  0.00  0.00    +0.000 HD
BRANCH  11  14
ATOM     14  C   UNL     1       6.481   4.504  13.863  0.00  0.00    +0.000 C 
ATOM     15  F   UNL     1       6.836   3.195  14.031  0.00  0.00    +0.000 F 
ATOM     16  F   UNL     1       5.834   4.575  12.669  0.00  0.00    +0.000 F 
ATOM     17  F   UNL     1       7.642   5.200  13.727  0.00  0.00    +0.000 F 
ENDBRANCH  11  14
ENDBRANCH   7  10
ENDBRANCH   2   4
BRANCH   3  18
ATOM     18  N   UNL     1       1.720   6.995  20.424  0.00  0.00    +0.000 N 
ATOM     19  C   UNL     1       0.982   8.101  20.821  0.00  0.00    +0.000 C 
ATOM     20  O   UNL     1       0.251   8.149  21.805  0.00  0.00    +0.000 OA
ATOM     21  H   UNL     1       2.365   7.037  19.647  0.00  0.00    +0.000 HD
BRANCH  19  22
ATOM     22  C   UNL     1       1.198   9.343  20.024  0.00  0.00    +0.000 A 
ATOM     23  C   UNL     1       1.726   9.320  18.713  0.00  0.00    +0.000 A 
ATOM     24  C   UNL     1       1.925  10.513  18.008  0.00  0.00    +0.000 A 
ATOM     25  C   UNL     1       1.589  11.696  18.632  0.00  0.00    +0.000 A 
ATOM     26  C   UNL     1       1.068  11.720  19.903  0.00  0.00    +0.000 A 
ATOM     27  C   UNL     1       0.856  10.565  20.623  0.00  0.00    +0.000 A 
ATOM     28  O   UNL     1       0.808  12.985  20.332  0.00  0.00    +0.000 OA
ATOM     29  C   UNL     1       1.250  13.755  19.197  0.00  0.00    +0.000 C 
ATOM     30  O   UNL     1       1.716  12.940  18.099  0.00  0.00    +0.000 OA
ENDBRANCH  19  22
ENDBRANCH   3  18
TORSDOF 5
ENDMDL
MODEL 6
REMARK VINA RESULT:      -7.5      5.079      6.303
REMARK  Name = 
REMARK  6 active torsions:
REMARK  status: ('A' for Active; 'I' for Inactive)
REMARK    1  A    between atoms: C_1  and  C_2
REMARK    2  A    between atoms: C_2  and  C_16
REMARK    3  A    between atoms: N_3  and  N_4
REMARK    4  A    between atoms: C_5  and  C_7
REMARK    5  A    between atoms: C_19  and  N_20
REMARK    6  A    between atoms: C_21  and  C_23
REMARK                            x       y       z     vdW  Elec       q    Type
REMARK                         _______ _______ _______ _____ _____    ______ ____
ROOT
ATOM      1  C   UNL     1       6.928   4.238  16.119  0.00  0.00    +0.000 C 
ATOM      2  C   UNL     1       6.170   5.336  16.845  0.00  0.00    +0.000 C 
ATOM      3  N   UNL     1       4.874   5.208  16.867  0.00  0.00    +0.000 NA
ENDROOT
BRANCH   2   4
ATOM      4  C   UNL     1       6.988   6.412  17.489  0.00  0.00    +0.000 A 
ATOM      5  C   UNL     1       7.043   7.678  16.911  0.00  0.00    +0.000 A 
ATOM      6  C   UNL     1       7.808   8.694  17.494  0.00  0.00    +0.000 A 
ATOM      7  C   UNL     1       8.521   8.475  18.675  0.00  0.00    +0.000 A 
ATOM      8  C   UNL     1       8.479   7.200  19.248  0.00  0.00    +0.000 A 
ATOM      9  C   UNL     1       7.746   6.170  18.643  0.00  0.00    +0.000 A 
BRANCH   7  10
ATOM     10  N   UNL     1       9.289   9.472  19.312  0.00  0.00    +0.000 N 
ATOM     11  C   UNL     1       9.413  10.810  18.927  0.00  0.00    +0.000 C 
ATOM     12  O   UNL     1       8.853  11.323  17.953  0.00  0.00    +0.000 OA
ATOM     13  H   UNL     1       9.812   9.193  20.143  0.00  0.00    +0.000 HD
BRANCH  11  14
ATOM     14  C   UNL     1      10.336  11.635  19.839  0.00  0.00    +0.000 C 
ATOM     15  F   UNL     1      11.648  11.287  19.681  0.00  0.00    +0.000 F 
ATOM     16  F   UNL     1      10.260  12.969  19.587  0.00  0.00    +0.000 F 
ATOM     17  F   UNL     1      10.052  11.463  21.159  0.00  0.00    +0.000 F 
ENDBRANCH  11  14
ENDBRANCH   7  10
ENDBRANCH   2   4
BRANCH   3  18
ATOM     18  N   UNL     1       4.095   6.198  17.381  0.00  0.00    +0.000 N 
ATOM     19  C   UNL     1       3.090   5.870  18.281  0.00  0.00    +0.000 C 
ATOM     20  O   UNL     1       2.793   4.732  18.627  0.00  0.00    +0.000 OA
ATOM     21  H   UNL     1       4.346   7.158  17.192  0.00  0.00    +0.000 HD
BRANCH  19  22
ATOM     22  C   UNL     1       2.408   7.023  18.937  0.00  0.00    +0.000 A 
ATOM     23  C   UNL     1       2.015   6.998  20.294  0.00  0.00    +0.000 A 
ATOM     24  C   UNL     1       1.364   8.099  20.865  0.00  0.00    +0.000 A 
ATOM     25  C   UNL     1       1.126   9.195  20.063  0.00  0.00    +0.000 A 
ATOM     26  C   UNL     1       1.514   9.225  18.745  0.00  0.00    +0.000 A 
ATOM     27  C   UNL     1       2.160   8.161  18.154  0.00  0.00    +0.000 A 
ATOM     28  O   UNL     1       1.184  10.394  18.134  0.00  0.00    +0.000 OA
ATOM     29  C   UNL     1       0.518  11.086  19.210  0.00  0.00    +0.000 C 
ATOM     30  O   UNL     1       0.508  10.343  20.448  0.00  0.00    +0.000 OA
ENDBRANCH  19  22
ENDBRANCH   3  18
TORSDOF 5
ENDMDL
MODEL 7
REMARK VINA RESULT:      -7.5      4.267      8.126
REMARK  Name = 
REMARK  6 active torsions:
REMARK  status: ('A' for Active; 'I' for Inactive)
REMARK    1  A    between atoms: C_1  and  C_2
REMARK    2  A    between atoms: C_2  and  C_16
REMARK    3  A    between atoms: N_3  and  N_4
REMARK    4  A    between atoms: C_5  and  C_7
REMARK    5  A    between atoms: C_19  and  N_20
REMARK    6  A    between atoms: C_21  and  C_23
REMARK                            x       y       z     vdW  Elec       q    Type
REMARK                         _______ _______ _______ _____ _____    ______ ____
ROOT
ATOM      1  C   UNL     1       1.475   3.524  21.091  0.00  0.00    +0.000 C 
ATOM      2  C   UNL     1       2.167   4.190  19.914  0.00  0.00    +0.000 C 
ATOM      3  N   UNL     1       2.808   3.392  19.110  0.00  0.00    +0.000 NA
ENDROOT
BRANCH   2   4
ATOM      4  C   UNL     1       2.001   5.672  19.781  0.00  0.00    +0.000 A 
ATOM      5  C   UNL     1       1.499   6.410  20.851  0.00  0.00    +0.000 A 
ATOM      6  C   UNL     1       1.328   7.794  20.744  0.00  0.00    +0.000 A 
ATOM      7  C   UNL     1       1.672   8.476  19.574  0.00  0.00    +0.000 A 
ATOM      8  C   UNL     1       2.162   7.735  18.494  0.00  0.00    +0.000 A 
ATOM      9  C   UNL     1       2.294   6.343  18.586  0.00  0.00    +0.000 A 
BRANCH   7  10
ATOM     10  N   UNL     1       1.539   9.873  19.425  0.00  0.00    +0.000 N 
ATOM     11  C   UNL     1       0.467  10.557  18.845  0.00  0.00    +0.000 C 
ATOM     12  O   UNL     1      -0.542  10.024  18.373  0.00  0.00    +0.000 OA
ATOM     13  H   UNL     1       2.305  10.451  19.774  0.00  0.00    +0.000 HD
BRANCH  11  14
ATOM     14  C   UNL     1       0.639  12.085  18.836  0.00  0.00    +0.000 C 
ATOM     15  F   UNL     1       0.639  12.603  20.100  0.00  0.00    +0.000 F 
ATOM     16  F   UNL     1       1.809  12.474  18.262  0.00  0.00    +0.000 F 
ATOM     17  F   UNL     1      -0.362  12.717  18.164  0.00  0.00    +0.000 F 
ENDBRANCH  11  14
ENDBRANCH   7  10
ENDBRANCH   2   4
BRANCH   3  18
ATOM     18  N   UNL     1       3.564   3.898  18.098  0.00  0.00    +0.000 N 
ATOM     19  C   UNL     1       4.939   3.996  18.264  0.00  0.00    +0.000 C 
ATOM     20  O   UNL     1       5.551   3.711  19.288  0.00  0.00    +0.000 OA
ATOM     21  H   UNL     1       3.123   4.073  17.207  0.00  0.00    +0.000 HD
BRANCH  19  22
ATOM     22  C   UNL     1       5.711   4.382  17.048  0.00  0.00    +0.000 A 
ATOM     23  C   UNL     1       6.695   5.396  17.067  0.00  0.00    +0.000 A 
ATOM     24  C   UNL     1       7.386   5.735  15.896  0.00  0.00    +0.000 A 
ATOM     25  C   UNL     1       7.074   5.051  14.741  0.00  0.00    +0.000 A 
ATOM     26  C   UNL     1       6.123   4.060  14.722  0.00  0.00    +0.000 A 
ATOM     27  C   UNL     1       5.428   3.698  15.856  0.00  0.00    +0.000 A 
ATOM     28  O   UNL     1       5.968   3.514  13.486  0.00  0.00    +0.000 OA
ATOM     29  C   UNL     1       6.910   4.294  12.722  0.00  0.00    +0.000 C 
ATOM     30  O   UNL     1       7.641   5.249  13.521  0.00  0.00    +0.000 OA
ENDBRANCH  19  22
ENDBRANCH   3  18
TORSDOF 5
ENDMDL
MODEL 8
REMARK VINA RESULT:      -7.5      4.676      8.375
REMARK  Name = 
REMARK  6 active torsions:
REMARK  status: ('A' for Active; 'I' for Inactive)
REMARK    1  A    between atoms: C_1  and  C_2
REMARK    2  A    between atoms: C_2  and  C_16
REMARK    3  A    between atoms: N_3  and  N_4
REMARK    4  A    between atoms: C_5  and  C_7
REMARK    5  A    between atoms: C_19  and  N_20
REMARK    6  A    between atoms: C_21  and  C_23
REMARK                            x       y       z     vdW  Elec       q    Type
REMARK                         _______ _______ _______ _____ _____    ______ ____
ROOT
ATOM      1  C   UNL     1      -0.660   8.935  22.249  0.00  0.00    +0.000 C 
ATOM      2  C   UNL     1       0.488   8.849  21.259  0.00  0.00    +0.000 C 
ATOM      3  N   UNL     1       1.005   7.665  21.094  0.00  0.00    +0.000 NA
ENDROOT
BRANCH   2   4
ATOM      4  C   UNL     1       0.869  10.113  20.552  0.00  0.00    +0.000 A 
ATOM      5  C   UNL     1       0.869  11.321  21.246  0.00  0.00    +0.000 A 
ATOM      6  C   UNL     1       1.213  12.513  20.601  0.00  0.00    +0.000 A 
ATOM      7  C   UNL     1       1.583  12.525  19.254  0.00  0.00    +0.000 A 
ATOM      8  C   UNL     1       1.569  11.316  18.551  0.00  0.00    +0.000 A 
ATOM      9  C   UNL     1       1.184  10.127  19.186  0.00  0.00    +0.000 A 
BRANCH   7  10
ATOM     10  N   UNL     1       1.959  13.698  18.565  0.00  0.00    +0.000 N 
ATOM     11  C   UNL     1       3.058  14.517  18.840  0.00  0.00    +0.000 C 
ATOM     12  O   UNL     1       3.877  14.325  19.743  0.00  0.00    +0.000 OA
ATOM     13  H   UNL     1       1.369  13.984  17.782  0.00  0.00    +0.000 HD
BRANCH  11  14
ATOM     14  C   UNL     1       3.181  15.725  17.898  0.00  0.00    +0.000 C 
ATOM     15  F   UNL     1       4.104  16.627  18.348  0.00  0.00    +0.000 F 
ATOM     16  F   UNL     1       3.572  15.371  16.644  0.00  0.00    +0.000 F 
ATOM     17  F   UNL     1       2.011  16.408  17.771  0.00  0.00    +0.000 F 
ENDBRANCH  11  14
ENDBRANCH   7  10
ENDBRANCH   2   4
BRANCH   3  18
ATOM     18  N   UNL     1       2.116   7.501  20.325  0.00  0.00    +0.000 N 
ATOM     19  C   UNL     1       2.493   6.221  19.946  0.00  0.00    +0.000 C 
ATOM     20  O   UNL     1       1.935   5.185  20.294  0.00  0.00    +0.000 OA
ATOM     21  H   UNL     1       2.566   8.322  19.947  0.00  0.00    +0.000 HD
BRANCH  19  22
ATOM     22  C   UNL     1       3.606   6.141  18.956  0.00  0.00    +0.000 A 
ATOM     23  C   UNL     1       3.614   6.896  17.762  0.00  0.00    +0.000 A 
ATOM     24  C   UNL     1       4.674   6.778  16.855  0.00  0.00    +0.000 A 
ATOM     25  C   UNL     1       5.697   5.909  17.167  0.00  0.00    +0.000 A 
ATOM     26  C   UNL     1       5.696   5.178  18.331  0.00  0.00    +0.000 A 
ATOM     27  C   UNL     1       4.671   5.274  19.247  0.00  0.00    +0.000 A 
ATOM     28  O   UNL     1       6.793   4.383  18.445  0.00  0.00    +0.000 OA
ATOM     29  C   UNL     1       7.472   4.675  17.207  0.00  0.00    +0.000 C 
ATOM     30  O   UNL     1       6.798   5.669  16.405  0.00  0.00    +0.000 OA
ENDBRANCH  19  22
ENDBRANCH   3  18
TORSDOF 5
ENDMDL
MODEL 9
REMARK VINA RESULT:      -7.5      4.067      7.880
REMARK  Name = 
REMARK  6 active torsions:
REMARK  status: ('A' for Active; 'I' for Inactive)
REMARK    1  A    between atoms: C_1  and  C_2
REMARK    2  A    between atoms: C_2  and  C_16
REMARK    3  A    between atoms: N_3  and  N_4
REMARK    4  A    between atoms: C_5  and  C_7
REMARK    5  A    between atoms: C_19  and  N_20
REMARK    6  A    between atoms: C_21  and  C_23
REMARK                            x       y       z     vdW  Elec       q    Type
REMARK                         _______ _______ _______ _____ _____    ______ ____
ROOT
ATOM      1  C   UNL     1       1.136   3.206  21.152  0.00  0.00    +0.000 C 
ATOM      2  C   UNL     1       2.171   3.813  20.221  0.00  0.00    +0.000 C 
ATOM      3  N   UNL     1       2.997   2.971  19.669  0.00  0.00    +0.000 NA
ENDROOT
BRANCH   2   4
ATOM      4  C   UNL     1       2.103   5.293  20.005  0.00  0.00    +0.000 A 
ATOM      5  C   UNL     1       2.564   5.839  18.809  0.00  0.00    +0.000 A 
ATOM      6  C   UNL     1       2.516   7.219  18.592  0.00  0.00    +0.000 A 
ATOM      7  C   UNL     1       1.991   8.085  19.554  0.00  0.00    +0.000 A 
ATOM      8  C   UNL     1       1.541   7.541  20.762  0.00  0.00    +0.000 A 
ATOM      9  C   UNL     1       1.627   6.161  20.997  0.00  0.00    +0.000 A 
BRANCH   7  10
ATOM     10  N   UNL     1       1.901   9.482  19.374  0.00  0.00    +0.000 N 
ATOM     11  C   UNL     1       0.939  10.171  18.630  0.00  0.00    +0.000 C 
ATOM     12  O   UNL     1       0.008   9.645  18.013  0.00  0.00    +0.000 OA
ATOM     13  H   UNL     1       2.611  10.054  19.832  0.00  0.00    +0.000 HD
BRANCH  11  14
ATOM     14  C   UNL     1       1.130  11.697  18.633  0.00  0.00    +0.000 C 
ATOM     15  F   UNL     1       1.350  12.178  19.893  0.00  0.00    +0.000 F 
ATOM     16  F   UNL     1       2.195  12.090  17.882  0.00  0.00    +0.000 F 
ATOM     17  F   UNL     1       0.042  12.359  18.156  0.00  0.00    +0.000 F 
ENDBRANCH  11  14
ENDBRANCH   7  10
ENDBRANCH   2   4
BRANCH   3  18
ATOM     18  N   UNL     1       4.039   3.422  18.919  0.00  0.00    +0.000 N 
ATOM     19  C   UNL     1       4.029   3.205  17.548  0.00  0.00    +0.000 C 
ATOM     20  O   UNL     1       3.171   2.578  16.936  0.00  0.00    +0.000 OA
ATOM     21  H   UNL     1       4.731   4.011  19.359  0.00  0.00    +0.000 HD
BRANCH  19  22
ATOM     22  C   UNL     1       5.107   3.890  16.778  0.00  0.00    +0.000 A 
ATOM     23  C   UNL     1       5.977   4.836  17.367  0.00  0.00    +0.000 A 
ATOM     24  C   UNL     1       6.966   5.464  16.600  0.00  0.00    +0.000 A 
ATOM     25  C   UNL     1       7.059   5.129  15.266  0.00  0.00    +0.000 A 
ATOM     26  C   UNL     1       6.219   4.204  14.692  0.00  0.00    +0.000 A 
ATOM     27  C   UNL     1       5.239   3.564  15.418  0.00  0.00    +0.000 A 
ATOM     28  O   UNL     1       6.478   4.021  13.369  0.00  0.00    +0.000 OA
ATOM     29  C   UNL     1       7.557   4.956  13.169  0.00  0.00    +0.000 C 
ATOM     30  O   UNL     1       7.954   5.639  14.378  0.00  0.00    +0.000 OA
ENDBRANCH  19  22
ENDBRANCH   3  18
TORSDOF 5
ENDMDL
