MODEL 1
REMARK VINA RESULT:      -8.5      0.000      0.000
REMARK  Name = 
REMARK  6 active torsions:
REMARK  status: ('A' for Active; 'I' for Inactive)
REMARK    1  A    between atoms: C_1  and  C_2
REMARK    2  A    between atoms: C_2  and  C_3
REMARK    3  A    between atoms: C_2  and  C_4
REMARK    4  A    between atoms: C_4  and  C_5
REMARK    5  A    between atoms: C_17  and  C_18
REMARK    6  A    between atoms: C_21  and  C_22
REMARK                            x       y       z     vdW  Elec       q    Type
REMARK                         _______ _______ _______ _____ _____    ______ ____
ROOT
ATOM      1  C   UNL     1       5.715   6.248  16.163  0.00  0.00    +0.000 C 
ATOM      2  C   UNL     1       6.813   5.847  15.192  0.00  0.00    +0.000 C 
ATOM      3  O   UNL     1       6.611   4.467  14.921  0.00  0.00    +0.000 OA
ATOM      4  C   UNL     1       5.828   3.949  15.916  0.00  0.00    +0.000 C 
ATOM      5  O   UNL     1       5.639   2.747  15.996  0.00  0.00    +0.000 OA
ATOM      6  N   UNL     1       5.313   4.972  16.725  0.00  0.00    +0.000 N 
ATOM      7  C   UNL     1       4.392   4.832  17.762  0.00  0.00    +0.000 A 
ATOM      8  C   UNL     1       4.348   3.479  18.406  0.00  0.00    +0.000 A 
ATOM      9  C   UNL     1       3.607   3.374  19.510  0.00  0.00    +0.000 A 
ATOM     10  N   UNL     1       2.890   4.457  19.981  0.00  0.00    +0.000 N 
ATOM     11  N   UNL     1       2.150   4.494  21.109  0.00  0.00    +0.000 NA
ATOM     12  C   UNL     1       1.649   5.724  21.124  0.00  0.00    +0.000 A 
ATOM     13  C   UNL     1       2.036   6.501  20.010  0.00  0.00    +0.000 A 
ATOM     14  C   UNL     1       2.892   5.676  19.286  0.00  0.00    +0.000 A 
ATOM     15  N   UNL     1       3.679   5.855  18.165  0.00  0.00    +0.000 NA
ENDROOT
BRANCH  13  16
ATOM     16  C   UNL     1       1.643   7.865  19.704  0.00  0.00    +0.000 A 
ATOM     17  C   UNL     1       1.058   8.661  20.704  0.00  0.00    +0.000 A 
ATOM     18  C   UNL     1       0.581   9.944  20.414  0.00  0.00    +0.000 A 
ATOM     19  C   UNL     1       0.670  10.455  19.113  0.00  0.00    +0.000 A 
ATOM     20  C   UNL     1       1.253   9.660  18.115  0.00  0.00    +0.000 A 
ATOM     21  C   UNL     1       1.739   8.379  18.408  0.00  0.00    +0.000 A 
BRANCH  19  22
ATOM     22  C   UNL     1       0.158  11.788  18.808  0.00  0.00    +0.000 A 
ATOM     23  N   UNL     1       0.799  12.939  19.209  0.00  0.00    +0.000 NA
ATOM     24  C   UNL     1       0.036  13.900  18.746  0.00  0.00    +0.000 A 
ATOM     25  N   UNL     1      -1.024  13.356  18.098  0.00  0.00    +0.000 N 
ATOM     26  N   UNL     1      -0.973  12.017  18.116  0.00  0.00    +0.000 NA
ATOM     27  H   UNL     1      -1.798  13.816  17.634  0.00  0.00    +0.000 HD
ENDBRANCH  19  22
ENDBRANCH  13  16
BRANCH   1  28
ATOM     28  C   UNL     1       6.238   7.291  17.178  0.00  0.00    +0.000 C 
BRANCH  28  30
ATOM     29  C   UNL     1       8.383   8.374  18.046  0.00  0.00    +0.000 C 
ATOM     30  C   UNL     1       7.703   7.071  17.624  0.00  0.00    +0.000 C 
ATOM     31  C   UNL     1       7.773   6.058  18.770  0.00  0.00    +0.000 C 
ENDBRANCH  28  30
ENDBRANCH   1  28
TORSDOF 4
ENDMDL
MODEL 2
REMARK VINA RESULT:      -8.3      0.383      1.156
REMARK  Name = 
REMARK  6 active torsions:
REMARK  status: ('A' for Active; 'I' for Inactive)
REMARK    1  A    between atoms: C_1  and  C_2
REMARK    2  A    between atoms: C_2  and  C_3
REMARK    3  A    between atoms: C_2  and  C_4
REMARK    4  A    between atoms: C_4  and  C_5
REMARK    5  A    between atoms: C_17  and  C_18
REMARK    6  A    between atoms: C_21  and  C_22
REMARK                            x       y       z     vdW  Elec       q    Type
REMARK                         _______ _______ _______ _____ _____    ______ ____
ROOT
ATOM      1  C   UNL     1       5.698   6.234  16.154  0.00  0.00    +0.000 C 
ATOM      2  C   UNL     1       6.800   5.850  15.179  0.00  0.00    +0.000 C 
ATOM      3  O   UNL     1       6.597   4.477  14.879  0.00  0.00    +0.000 OA
ATOM      4  C   UNL     1       5.810   3.939  15.860  0.00  0.00    +0.000 C 
ATOM      5  O   UNL     1       5.619   2.737  15.914  0.00  0.00    +0.000 OA
ATOM      6  N   UNL     1       5.292   4.946  16.687  0.00  0.00    +0.000 N 
ATOM      7  C   UNL     1       4.366   4.786  17.717  0.00  0.00    +0.000 A 
ATOM      8  C   UNL     1       4.317   3.420  18.332  0.00  0.00    +0.000 A 
ATOM      9  C   UNL     1       3.571   3.293  19.430  0.00  0.00    +0.000 A 
ATOM     10  N   UNL     1       2.853   4.367  19.920  0.00  0.00    +0.000 N 
ATOM     11  N   UNL     1       2.108   4.382  21.046  0.00  0.00    +0.000 NA
ATOM     12  C   UNL     1       1.609   5.612  21.085  0.00  0.00    +0.000 A 
ATOM     13  C   UNL     1       2.002   6.411  19.988  0.00  0.00    +0.000 A 
ATOM     14  C   UNL     1       2.860   5.601  19.251  0.00  0.00    +0.000 A 
ATOM     15  N   UNL     1       3.653   5.802  18.138  0.00  0.00    +0.000 NA
ENDROOT
BRANCH  13  16
ATOM     16  C   UNL     1       1.612   7.782  19.709  0.00  0.00    +0.000 A 
ATOM     17  C   UNL     1       1.896   8.343  18.452  0.00  0.00    +0.000 A 
ATOM     18  C   UNL     1       1.621   9.690  18.187  0.00  0.00    +0.000 A 
ATOM     19  C   UNL     1       1.065  10.507  19.179  0.00  0.00    +0.000 A 
ATOM     20  C   UNL     1       0.783   9.946  20.433  0.00  0.00    +0.000 A 
ATOM     21  C   UNL     1       1.049   8.596  20.695  0.00  0.00    +0.000 A 
BRANCH  19  22
ATOM     22  C   UNL     1       0.792  11.916  18.907  0.00  0.00    +0.000 A 
ATOM     23  N   UNL     1      -0.476  12.390  18.652  0.00  0.00    +0.000 NA
ATOM     24  C   UNL     1      -0.297  13.675  18.464  0.00  0.00    +0.000 A 
ATOM     25  N   UNL     1       1.021  13.967  18.593  0.00  0.00    +0.000 N 
ATOM     26  N   UNL     1       1.739  12.871  18.879  0.00  0.00    +0.000 NA
ATOM     27  H   UNL     1       1.494  14.858  18.504  0.00  0.00    +0.000 HD
ENDBRANCH  19  22
ENDBRANCH  13  16
BRANCH   1  28
ATOM     28  C   UNL     1       6.218   7.254  17.192  0.00  0.00    +0.000 C 
BRANCH  28  30
ATOM     29  C   UNL     1       8.366   8.330  18.064  0.00  0.00    +0.000 C 
ATOM     30  C   UNL     1       7.685   7.031  17.630  0.00  0.00    +0.000 C 
ATOM     31  C   UNL     1       7.761   6.006  18.765  0.00  0.00    +0.000 C 
ENDBRANCH  28  30
ENDBRANCH   1  28
TORSDOF 4
ENDMDL
MODEL 3
REMARK VINA RESULT:      -7.3      3.484      6.976
REMARK  Name = 
REMARK  6 active torsions:
REMARK  status: ('A' for Active; 'I' for Inactive)
REMARK    1  A    between atoms: C_1  and  C_2
REMARK    2  A    between atoms: C_2  and  C_3
REMARK    3  A    between atoms: C_2  and  C_4
REMARK    4  A    between atoms: C_4  and  C_5
REMARK    5  A    between atoms: C_17  and  C_18
REMARK    6  A    between atoms: C_21  and  C_22
REMARK                            x       y       z     vdW  Elec       q    Type
REMARK                         _______ _______ _______ _____ _____    ______ ____
ROOT
ATOM      1  C   UNL     1       2.434   5.866  20.046  0.00  0.00    +0.000 C 
ATOM      2  C   UNL     1       1.106   5.580  20.727  0.00  0.00    +0.000 C 
ATOM      3  O   UNL     1       0.944   4.170  20.693  0.00  0.00    +0.000 OA
ATOM      4  C   UNL     1       1.774   3.670  19.727  0.00  0.00    +0.000 C 
ATOM      5  O   UNL     1       1.707   2.499  19.395  0.00  0.00    +0.000 OA
ATOM      6  N   UNL     1       2.650   4.663  19.265  0.00  0.00    +0.000 N 
ATOM      7  C   UNL     1       3.703   4.494  18.367  0.00  0.00    +0.000 A 
ATOM      8  C   UNL     1       3.576   3.325  17.437  0.00  0.00    +0.000 A 
ATOM      9  C   UNL     1       4.478   3.248  16.458  0.00  0.00    +0.000 A 
ATOM     10  N   UNL     1       5.494   4.181  16.363  0.00  0.00    +0.000 N 
ATOM     11  N   UNL     1       6.431   4.243  15.394  0.00  0.00    +0.000 NA
ATOM     12  C   UNL     1       7.182   5.282  15.740  0.00  0.00    +0.000 A 
ATOM     13  C   UNL     1       6.763   5.902  16.938  0.00  0.00    +0.000 A 
ATOM     14  C   UNL     1       5.622   5.202  17.317  0.00  0.00    +0.000 A 
ATOM     15  N   UNL     1       4.688   5.357  18.323  0.00  0.00    +0.000 NA
ENDROOT
BRANCH  13  16
ATOM     16  C   UNL     1       7.377   7.035  17.610  0.00  0.00    +0.000 A 
ATOM     17  C   UNL     1       7.249   8.321  17.060  0.00  0.00    +0.000 A 
ATOM     18  C   UNL     1       7.911   9.416  17.629  0.00  0.00    +0.000 A 
ATOM     19  C   UNL     1       8.722   9.244  18.757  0.00  0.00    +0.000 A 
ATOM     20  C   UNL     1       8.851   7.958  19.304  0.00  0.00    +0.000 A 
ATOM     21  C   UNL     1       8.181   6.865  18.740  0.00  0.00    +0.000 A 
BRANCH  19  22
ATOM     22  C   UNL     1       9.424  10.383  19.342  0.00  0.00    +0.000 A 
ATOM     23  N   UNL     1      10.245  11.208  18.605  0.00  0.00    +0.000 NA
ATOM     24  C   UNL     1      10.672  12.087  19.479  0.00  0.00    +0.000 A 
ATOM     25  N   UNL     1      10.140  11.804  20.694  0.00  0.00    +0.000 N 
ATOM     26  N   UNL     1       9.339  10.730  20.640  0.00  0.00    +0.000 NA
ATOM     27  H   UNL     1      10.269  12.279  21.579  0.00  0.00    +0.000 HD
ENDBRANCH  19  22
ENDBRANCH  13  16
BRANCH   1  28
ATOM     28  C   UNL     1       2.363   7.184  19.240  0.00  0.00    +0.000 C 
BRANCH  28  30
ATOM     29  C   UNL     1       1.631   8.676  21.181  0.00  0.00    +0.000 C 
ATOM     30  C   UNL     1       1.317   8.197  19.762  0.00  0.00    +0.000 C 
ATOM     31  C   UNL     1       1.216   9.402  18.822  0.00  0.00    +0.000 C 
ENDBRANCH  28  30
ENDBRANCH   1  28
TORSDOF 4
ENDMDL
MODEL 4
REMARK VINA RESULT:      -7.1      4.565      9.074
REMARK  Name = 
REMARK  6 active torsions:
REMARK  status: ('A' for Active; 'I' for Inactive)
REMARK    1  A    between atoms: C_1  and  C_2
REMARK    2  A    between atoms: C_2  and  C_3
REMARK    3  A    between atoms: C_2  and  C_4
REMARK    4  A    between atoms: C_4  and  C_5
REMARK    5  A    between atoms: C_17  and  C_18
REMARK    6  A    between atoms: C_21  and  C_22
REMARK                            x       y       z     vdW  Elec       q    Type
REMARK                         _______ _______ _______ _____ _____    ______ ____
ROOT
ATOM      1  C   UNL     1       3.348  14.467  20.766  0.00  0.00    +0.000 C 
ATOM      2  C   UNL     1       4.098  15.722  21.182  0.00  0.00    +0.000 C 
ATOM      3  O   UNL     1       3.215  16.442  22.031  0.00  0.00    +0.000 OA
ATOM      4  C   UNL     1       1.945  15.985  21.809  0.00  0.00    +0.000 C 
ATOM      5  O   UNL     1       0.986  16.552  22.304  0.00  0.00    +0.000 OA
ATOM      6  N   UNL     1       1.965  14.835  21.007  0.00  0.00    +0.000 N 
ATOM      7  C   UNL     1       0.875  14.035  20.668  0.00  0.00    +0.000 A 
ATOM      8  C   UNL     1      -0.460  14.715  20.707  0.00  0.00    +0.000 A 
ATOM      9  C   UNL     1      -1.490  14.024  20.218  0.00  0.00    +0.000 A 
ATOM     10  N   UNL     1      -1.314  12.734  19.755  0.00  0.00    +0.000 N 
ATOM     11  N   UNL     1      -2.260  11.954  19.190  0.00  0.00    +0.000 NA
ATOM     12  C   UNL     1      -1.624  10.817  18.930  0.00  0.00    +0.000 A 
ATOM     13  C   UNL     1      -0.269  10.828  19.330  0.00  0.00    +0.000 A 
ATOM     14  C   UNL     1      -0.060  12.110  19.828  0.00  0.00    +0.000 A 
ATOM     15  N   UNL     1       1.051  12.796  20.280  0.00  0.00    +0.000 NA
ENDROOT
BRANCH  13  16
ATOM     16  C   UNL     1       0.693   9.746  19.221  0.00  0.00    +0.000 A 
ATOM     17  C   UNL     1       1.243   9.427  17.968  0.00  0.00    +0.000 A 
ATOM     18  C   UNL     1       2.097   8.328  17.816  0.00  0.00    +0.000 A 
ATOM     19  C   UNL     1       2.411   7.519  18.914  0.00  0.00    +0.000 A 
ATOM     20  C   UNL     1       1.861   7.837  20.164  0.00  0.00    +0.000 A 
ATOM     21  C   UNL     1       1.014   8.942  20.318  0.00  0.00    +0.000 A 
BRANCH  19  22
ATOM     22  C   UNL     1       3.290   6.364  18.751  0.00  0.00    +0.000 A 
ATOM     23  N   UNL     1       4.219   6.274  17.738  0.00  0.00    +0.000 NA
ATOM     24  C   UNL     1       4.791   5.112  17.940  0.00  0.00    +0.000 A 
ATOM     25  N   UNL     1       4.230   4.519  19.023  0.00  0.00    +0.000 N 
ATOM     26  N   UNL     1       3.277   5.291  19.564  0.00  0.00    +0.000 NA
ATOM     27  H   UNL     1       4.435   3.621  19.442  0.00  0.00    +0.000 HD
ENDBRANCH  19  22
ENDBRANCH  13  16
BRANCH   1  28
ATOM     28  C   UNL     1       3.694  14.083  19.309  0.00  0.00    +0.000 C 
BRANCH  28  30
ATOM     29  C   UNL     1       5.707  14.713  17.867  0.00  0.00    +0.000 C 
ATOM     30  C   UNL     1       4.403  15.197  18.504  0.00  0.00    +0.000 C 
ATOM     31  C   UNL     1       3.477  15.755  17.419  0.00  0.00    +0.000 C 
ENDBRANCH  28  30
ENDBRANCH   1  28
TORSDOF 4
ENDMDL
MODEL 5
REMARK VINA RESULT:      -7.1      6.703     11.644
REMARK  Name = 
REMARK  6 active torsions:
REMARK  status: ('A' for Active; 'I' for Inactive)
REMARK    1  A    between atoms: C_1  and  C_2
REMARK    2  A    between atoms: C_2  and  C_3
REMARK    3  A    between atoms: C_2  and  C_4
REMARK    4  A    between atoms: C_4  and  C_5
REMARK    5  A    between atoms: C_17  and  C_18
REMARK    6  A    between atoms: C_21  and  C_22
REMARK                            x       y       z     vdW  Elec       q    Type
REMARK                         _______ _______ _______ _____ _____    ______ ____
ROOT
ATOM      1  C   UNL     1      -5.780  12.429  18.526  0.00  0.00    +0.000 C 
ATOM      2  C   UNL     1      -6.941  12.494  17.547  0.00  0.00    +0.000 C 
ATOM      3  O   UNL     1      -7.325  13.860  17.486  0.00  0.00    +0.000 OA
ATOM      4  C   UNL     1      -6.832  14.490  18.596  0.00  0.00    +0.000 C 
ATOM      5  O   UNL     1      -7.157  15.636  18.856  0.00  0.00    +0.000 OA
ATOM      6  N   UNL     1      -5.944  13.653  19.287  0.00  0.00    +0.000 N 
ATOM      7  C   UNL     1      -5.170  13.992  20.395  0.00  0.00    +0.000 A 
ATOM      8  C   UNL     1      -5.692  15.128  21.223  0.00  0.00    +0.000 A 
ATOM      9  C   UNL     1      -5.066  15.352  22.379  0.00  0.00    +0.000 A 
ATOM     10  N   UNL     1      -3.968  14.596  22.743  0.00  0.00    +0.000 N 
ATOM     11  N   UNL     1      -3.285  14.688  23.903  0.00  0.00    +0.000 NA
ATOM     12  C   UNL     1      -2.321  13.783  23.781  0.00  0.00    +0.000 A 
ATOM     13  C   UNL     1      -2.346  13.100  22.545  0.00  0.00    +0.000 A 
ATOM     14  C   UNL     1      -3.463  13.606  21.886  0.00  0.00    +0.000 A 
ATOM     15  N   UNL     1      -4.100  13.300  20.699  0.00  0.00    +0.000 NA
ENDROOT
BRANCH  13  16
ATOM     16  C   UNL     1      -1.423  12.080  22.079  0.00  0.00    +0.000 A 
ATOM     17  C   UNL     1      -0.924  12.141  20.767  0.00  0.00    +0.000 A 
ATOM     18  C   UNL     1      -0.111  11.121  20.259  0.00  0.00    +0.000 A 
ATOM     19  C   UNL     1       0.212  10.013  21.050  0.00  0.00    +0.000 A 
ATOM     20  C   UNL     1      -0.288   9.952  22.360  0.00  0.00    +0.000 A 
ATOM     21  C   UNL     1      -1.094  10.977  22.872  0.00  0.00    +0.000 A 
BRANCH  19  22
ATOM     22  C   UNL     1       1.048   8.942  20.515  0.00  0.00    +0.000 A 
ATOM     23  N   UNL     1       1.486   8.924  19.210  0.00  0.00    +0.000 NA
ATOM     24  C   UNL     1       2.192   7.822  19.131  0.00  0.00    +0.000 A 
ATOM     25  N   UNL     1       2.177   7.195  20.333  0.00  0.00    +0.000 N 
ATOM     26  N   UNL     1       1.462   7.883  21.235  0.00  0.00    +0.000 NA
ATOM     27  H   UNL     1       2.614   6.324  20.609  0.00  0.00    +0.000 HD
ENDBRANCH  19  22
ENDBRANCH  13  16
BRANCH   1  28
ATOM     28  C   UNL     1      -5.831  11.119  19.346  0.00  0.00    +0.000 C 
BRANCH  28  30
ATOM     29  C   UNL     1      -7.373   9.150  19.874  0.00  0.00    +0.000 C 
ATOM     30  C   UNL     1      -7.256  10.670  19.748  0.00  0.00    +0.000 C 
ATOM     31  C   UNL     1      -7.682  11.331  21.062  0.00  0.00    +0.000 C 
ENDBRANCH  28  30
ENDBRANCH   1  28
TORSDOF 4
ENDMDL
MODEL 6
REMARK VINA RESULT:      -7.0      6.381     11.188
REMARK  Name = 
REMARK  6 active torsions:
REMARK  status: ('A' for Active; 'I' for Inactive)
REMARK    1  A    between atoms: C_1  and  C_2
REMARK    2  A    between atoms: C_2  and  C_3
REMARK    3  A    between atoms: C_2  and  C_4
REMARK    4  A    between atoms: C_4  and  C_5
REMARK    5  A    between atoms: C_17  and  C_18
REMARK    6  A    between atoms: C_21  and  C_22
REMARK                            x       y       z     vdW  Elec       q    Type
REMARK                         _______ _______ _______ _____ _____    ______ ____
ROOT
ATOM      1  C   UNL     1      -5.741  12.162  18.365  0.00  0.00    +0.000 C 
ATOM      2  C   UNL     1      -7.037  12.361  17.597  0.00  0.00    +0.000 C 
ATOM      3  O   UNL     1      -7.368  13.735  17.737  0.00  0.00    +0.000 OA
ATOM      4  C   UNL     1      -6.680  14.231  18.811  0.00  0.00    +0.000 C 
ATOM      5  O   UNL     1      -6.911  15.350  19.234  0.00  0.00    +0.000 OA
ATOM      6  N   UNL     1      -5.731  13.302  19.262  0.00  0.00    +0.000 N 
ATOM      7  C   UNL     1      -4.778  13.501  20.259  0.00  0.00    +0.000 A 
ATOM      8  C   UNL     1      -5.115  14.555  21.271  0.00  0.00    +0.000 A 
ATOM      9  C   UNL     1      -4.306  14.639  22.329  0.00  0.00    +0.000 A 
ATOM     10  N   UNL     1      -3.198  13.821  22.433  0.00  0.00    +0.000 N 
ATOM     11  N   UNL     1      -2.337  13.771  23.471  0.00  0.00    +0.000 NA
ATOM     12  C   UNL     1      -1.444  12.860  23.105  0.00  0.00    +0.000 A 
ATOM     13  C   UNL     1      -1.692  12.313  21.826  0.00  0.00    +0.000 A 
ATOM     14  C   UNL     1      -2.876  12.915  21.410  0.00  0.00    +0.000 A 
ATOM     15  N   UNL     1      -3.704  12.753  20.316  0.00  0.00    +0.000 NA
ENDROOT
BRANCH  13  16
ATOM     16  C   UNL     1      -0.898  11.325  21.118  0.00  0.00    +0.000 A 
ATOM     17  C   UNL     1      -0.427  10.192  21.801  0.00  0.00    +0.000 A 
ATOM     18  C   UNL     1       0.421   9.273  21.172  0.00  0.00    +0.000 A 
ATOM     19  C   UNL     1       0.824   9.475  19.847  0.00  0.00    +0.000 A 
ATOM     20  C   UNL     1       0.354  10.607  19.165  0.00  0.00    +0.000 A 
ATOM     21  C   UNL     1      -0.502  11.522  19.792  0.00  0.00    +0.000 A 
BRANCH  19  22
ATOM     22  C   UNL     1       1.721   8.524  19.195  0.00  0.00    +0.000 A 
ATOM     23  N   UNL     1       2.132   7.357  19.800  0.00  0.00    +0.000 NA
ATOM     24  C   UNL     1       2.910   6.798  18.905  0.00  0.00    +0.000 A 
ATOM     25  N   UNL     1       2.974   7.593  17.808  0.00  0.00    +0.000 N 
ATOM     26  N   UNL     1       2.225   8.695  17.959  0.00  0.00    +0.000 NA
ATOM     27  H   UNL     1       3.487   7.459  16.946  0.00  0.00    +0.000 HD
ENDBRANCH  19  22
ENDBRANCH  13  16
BRANCH   1  28
ATOM     28  C   UNL     1      -5.717  10.774  19.046  0.00  0.00    +0.000 C 
BRANCH  28  30
ATOM     29  C   UNL     1      -7.133   8.765  19.747  0.00  0.00    +0.000 C 
ATOM     30  C   UNL     1      -7.098  10.281  19.541  0.00  0.00    +0.000 C 
ATOM     31  C   UNL     1      -7.490  10.987  20.841  0.00  0.00    +0.000 C 
ENDBRANCH  28  30
ENDBRANCH   1  28
TORSDOF 4
ENDMDL
MODEL 7
REMARK VINA RESULT:      -7.0      6.202      9.396
REMARK  Name = 
REMARK  6 active torsions:
REMARK  status: ('A' for Active; 'I' for Inactive)
REMARK    1  A    between atoms: C_1  and  C_2
REMARK    2  A    between atoms: C_2  and  C_3
REMARK    3  A    between atoms: C_2  and  C_4
REMARK    4  A    between atoms: C_4  and  C_5
REMARK    5  A    between atoms: C_17  and  C_18
REMARK    6  A    between atoms: C_21  and  C_22
REMARK                            x       y       z     vdW  Elec       q    Type
REMARK                         _______ _______ _______ _____ _____    ______ ____
ROOT
ATOM      1  C   UNL     1       1.529  16.392  20.029  0.00  0.00    +0.000 C 
ATOM      2  C   UNL     1       2.356  17.648  19.808  0.00  0.00    +0.000 C 
ATOM      3  O   UNL     1       2.926  17.519  18.514  0.00  0.00    +0.000 OA
ATOM      4  C   UNL     1       2.882  16.198  18.160  0.00  0.00    +0.000 C 
ATOM      5  O   UNL     1       3.452  15.804  17.157  0.00  0.00    +0.000 OA
ATOM      6  N   UNL     1       2.104  15.467  19.069  0.00  0.00    +0.000 N 
ATOM      7  C   UNL     1       1.745  14.124  18.969  0.00  0.00    +0.000 A 
ATOM      8  C   UNL     1       2.662  13.272  18.144  0.00  0.00    +0.000 A 
ATOM      9  C   UNL     1       2.439  11.958  18.180  0.00  0.00    +0.000 A 
ATOM     10  N   UNL     1       1.382  11.444  18.907  0.00  0.00    +0.000 N 
ATOM     11  N   UNL     1       1.084  10.137  19.066  0.00  0.00    +0.000 NA
ATOM     12  C   UNL     1      -0.010  10.146  19.819  0.00  0.00    +0.000 A 
ATOM     13  C   UNL     1      -0.452  11.446  20.149  0.00  0.00    +0.000 A 
ATOM     14  C   UNL     1       0.497  12.294  19.586  0.00  0.00    +0.000 A 
ATOM     15  N   UNL     1       0.708  13.660  19.622  0.00  0.00    +0.000 NA
ENDROOT
BRANCH  13  16
ATOM     16  C   UNL     1      -1.624  11.811  20.925  0.00  0.00    +0.000 A 
ATOM     17  C   UNL     1      -2.713  12.432  20.289  0.00  0.00    +0.000 A 
ATOM     18  C   UNL     1      -3.815  12.883  21.026  0.00  0.00    +0.000 A 
ATOM     19  C   UNL     1      -3.846  12.730  22.417  0.00  0.00    +0.000 A 
ATOM     20  C   UNL     1      -2.758  12.111  23.051  0.00  0.00    +0.000 A 
ATOM     21  C   UNL     1      -1.660  11.652  22.313  0.00  0.00    +0.000 A 
BRANCH  19  22
ATOM     22  C   UNL     1      -4.988  13.214  23.187  0.00  0.00    +0.000 A 
ATOM     23  N   UNL     1      -6.106  12.443  23.420  0.00  0.00    +0.000 NA
ATOM     24  C   UNL     1      -6.881  13.224  24.133  0.00  0.00    +0.000 A 
ATOM     25  N   UNL     1      -6.265  14.418  24.318  0.00  0.00    +0.000 N 
ATOM     26  N   UNL     1      -5.059  14.441  23.734  0.00  0.00    +0.000 NA
ATOM     27  H   UNL     1      -6.590  15.239  24.815  0.00  0.00    +0.000 HD
ENDBRANCH  19  22
ENDBRANCH  13  16
BRANCH   1  28
ATOM     28  C   UNL     1       1.597  15.947  21.508  0.00  0.00    +0.000 C 
BRANCH  28  30
ATOM     29  C   UNL     1      -0.431  15.036  22.769  0.00  0.00    +0.000 C 
ATOM     30  C   UNL     1       0.336  16.288  22.337  0.00  0.00    +0.000 C 
ATOM     31  C   UNL     1       0.706  17.116  23.570  0.00  0.00    +0.000 C 
ENDBRANCH  28  30
ENDBRANCH   1  28
TORSDOF 4
ENDMDL
MODEL 8
REMARK VINA RESULT:      -6.9      7.780     11.174
REMARK  Name = 
REMARK  6 active torsions:
REMARK  status: ('A' for Active; 'I' for Inactive)
REMARK    1  A    between atoms: C_1  and  C_2
REMARK    2  A    between atoms: C_2  and  C_3
REMARK    3  A    between atoms: C_2  and  C_4
REMARK    4  A    between atoms: C_4  and  C_5
REMARK    5  A    between atoms: C_17  and  C_18
REMARK    6  A    between atoms: C_21  and  C_22
REMARK                            x       y       z     vdW  Elec       q    Type
REMARK                         _______ _______ _______ _____ _____    ______ ____
ROOT
ATOM      1  C   UNL     1      -5.951  13.527  21.151  0.00  0.00    +0.000 C 
ATOM      2  C   UNL     1      -7.093  14.244  21.852  0.00  0.00    +0.000 C 
ATOM      3  O   UNL     1      -6.487  15.125  22.787  0.00  0.00    +0.000 OA
ATOM      4  C   UNL     1      -5.205  14.698  23.004  0.00  0.00    +0.000 C 
ATOM      5  O   UNL     1      -4.525  15.197  23.884  0.00  0.00    +0.000 OA
ATOM      6  N   UNL     1      -4.854  13.699  22.086  0.00  0.00    +0.000 N 
ATOM      7  C   UNL     1      -3.600  13.110  21.932  0.00  0.00    +0.000 A 
ATOM      8  C   UNL     1      -2.718  13.149  23.144  0.00  0.00    +0.000 A 
ATOM      9  C   UNL     1      -1.590  12.440  23.076  0.00  0.00    +0.000 A 
ATOM     10  N   UNL     1      -1.256  11.759  21.921  0.00  0.00    +0.000 N 
ATOM     11  N   UNL     1      -0.176  10.968  21.746  0.00  0.00    +0.000 NA
ATOM     12  C   UNL     1      -0.279  10.559  20.486  0.00  0.00    +0.000 A 
ATOM     13  C   UNL     1      -1.408  11.083  19.817  0.00  0.00    +0.000 A 
ATOM     14  C   UNL     1      -2.072  11.833  20.782  0.00  0.00    +0.000 A 
ATOM     15  N   UNL     1      -3.275  12.513  20.812  0.00  0.00    +0.000 NA
ENDROOT
BRANCH  13  16
ATOM     16  C   UNL     1      -1.796  10.865  18.435  0.00  0.00    +0.000 A 
ATOM     17  C   UNL     1      -2.897  11.559  17.904  0.00  0.00    +0.000 A 
ATOM     18  C   UNL     1      -3.354  11.298  16.607  0.00  0.00    +0.000 A 
ATOM     19  C   UNL     1      -2.725  10.329  15.817  0.00  0.00    +0.000 A 
ATOM     20  C   UNL     1      -1.627   9.635  16.348  0.00  0.00    +0.000 A 
ATOM     21  C   UNL     1      -1.164   9.904  17.642  0.00  0.00    +0.000 A 
BRANCH  19  22
ATOM     22  C   UNL     1      -3.212  10.046  14.469  0.00  0.00    +0.000 A 
ATOM     23  N   UNL     1      -4.553   9.994  14.160  0.00  0.00    +0.000 NA
ATOM     24  C   UNL     1      -4.568   9.721  12.878  0.00  0.00    +0.000 A 
ATOM     25  N   UNL     1      -3.293   9.604  12.430  0.00  0.00    +0.000 N 
ATOM     26  N   UNL     1      -2.408   9.810  13.416  0.00  0.00    +0.000 NA
ATOM     27  H   UNL     1      -2.956   9.394  11.498  0.00  0.00    +0.000 HD
ENDBRANCH  19  22
ENDBRANCH  13  16
BRANCH   1  28
ATOM     28  C   UNL     1      -6.338  12.063  20.835  0.00  0.00    +0.000 C 
BRANCH  28  30
ATOM     29  C   UNL     1      -6.377  12.896  18.419  0.00  0.00    +0.000 C 
ATOM     30  C   UNL     1      -6.882  11.840  19.404  0.00  0.00    +0.000 C 
ATOM     31  C   UNL     1      -6.513  10.444  18.897  0.00  0.00    +0.000 C 
ENDBRANCH  28  30
ENDBRANCH   1  28
TORSDOF 4
ENDMDL
MODEL 9
REMARK VINA RESULT:      -6.9      5.643     10.236
REMARK  Name = 
REMARK  6 active torsions:
REMARK  status: ('A' for Active; 'I' for Inactive)
REMARK    1  A    between atoms: C_1  and  C_2
REMARK    2  A    between atoms: C_2  and  C_3
REMARK    3  A    between atoms: C_2  and  C_4
REMARK    4  A    between atoms: C_4  and  C_5
REMARK    5  A    between atoms: C_17  and  C_18
REMARK    6  A    between atoms: C_21  and  C_22
REMARK                            x       y       z     vdW  Elec       q    Type
REMARK                         _______ _______ _______ _____ _____    ______ ____
ROOT
ATOM      1  C   UNL     1       1.678  15.995  21.303  0.00  0.00    +0.000 C 
ATOM      2  C   UNL     1       2.420  17.290  21.015  0.00  0.00    +0.000 C 
ATOM      3  O   UNL     1       2.299  18.080  22.188  0.00  0.00    +0.000 OA
ATOM      4  C   UNL     1       1.251  17.595  22.922  0.00  0.00    +0.000 C 
ATOM      5  O   UNL     1       0.845  18.199  23.900  0.00  0.00    +0.000 OA
ATOM      6  N   UNL     1       0.804  16.374  22.398  0.00  0.00    +0.000 N 
ATOM      7  C   UNL     1      -0.168  15.537  22.945  0.00  0.00    +0.000 A 
ATOM      8  C   UNL     1      -1.166  16.208  23.840  0.00  0.00    +0.000 A 
ATOM      9  C   UNL     1      -2.203  15.466  24.230  0.00  0.00    +0.000 A 
ATOM     10  N   UNL     1      -2.298  14.139  23.856  0.00  0.00    +0.000 N 
ATOM     11  N   UNL     1      -3.318  13.301  24.139  0.00  0.00    +0.000 NA
ATOM     12  C   UNL     1      -2.950  12.150  23.589  0.00  0.00    +0.000 A 
ATOM     13  C   UNL     1      -1.688  12.209  22.957  0.00  0.00    +0.000 A 
ATOM     14  C   UNL     1      -1.287  13.534  23.094  0.00  0.00    +0.000 A 
ATOM     15  N   UNL     1      -0.215  14.268  22.623  0.00  0.00    +0.000 NA
ENDROOT
BRANCH  13  16
ATOM     16  C   UNL     1      -0.981  11.128  22.292  0.00  0.00    +0.000 A 
ATOM     17  C   UNL     1      -0.422  10.090  23.055  0.00  0.00    +0.000 A 
ATOM     18  C   UNL     1       0.347   9.087  22.453  0.00  0.00    +0.000 A 
ATOM     19  C   UNL     1       0.582   9.109  21.073  0.00  0.00    +0.000 A 
ATOM     20  C   UNL     1       0.025  10.147  20.311  0.00  0.00    +0.000 A 
ATOM     21  C   UNL     1      -0.753  11.145  20.913  0.00  0.00    +0.000 A 
BRANCH  19  22
ATOM     22  C   UNL     1       1.397   8.072  20.446  0.00  0.00    +0.000 A 
ATOM     23  N   UNL     1       1.982   8.234  19.210  0.00  0.00    +0.000 NA
ATOM     24  C   UNL     1       2.613   7.101  19.012  0.00  0.00    +0.000 A 
ATOM     25  N   UNL     1       2.414   6.286  20.077  0.00  0.00    +0.000 N 
ATOM     26  N   UNL     1       1.650   6.875  21.008  0.00  0.00    +0.000 NA
ATOM     27  H   UNL     1       2.755   5.347  20.239  0.00  0.00    +0.000 HD
ENDBRANCH  19  22
ENDBRANCH  13  16
BRANCH   1  28
ATOM     28  C   UNL     1       0.969  15.476  20.030  0.00  0.00    +0.000 C 
BRANCH  28  30
ATOM     29  C   UNL     1       2.315  13.331  20.368  0.00  0.00    +0.000 C 
ATOM     30  C   UNL     1       1.670  14.275  19.353  0.00  0.00    +0.000 C 
ATOM     31  C   UNL     1       0.683  13.496  18.479  0.00  0.00    +0.000 C 
ENDBRANCH  28  30
ENDBRANCH   1  28
TORSDOF 4
ENDMDL
