MODEL 1
REMARK VINA RESULT:      -6.8      0.000      0.000
REMARK  Name = 
REMARK  5 active torsions:
REMARK  status: ('A' for Active; 'I' for Inactive)
REMARK    1  A    between atoms: C_1  and  C_2
REMARK    2  A    between atoms: C_2  and  C_3
REMARK    3  A    between atoms: C_4  and  C_5
REMARK    4  A    between atoms: C_5  and  O_7
REMARK    5  A    between atoms: O_7  and  C_8
REMARK                            x       y       z     vdW  Elec       q    Type
REMARK                         _______ _______ _______ _____ _____    ______ ____
ROOT
ATOM      1  C   UNL     1       4.341   4.903  17.721  0.00  0.00    +0.000 A 
ATOM      2  C   UNL     1       3.834   4.291  18.883  0.00  0.00    +0.000 A 
ATOM      3  N   UNL     1       3.019   4.986  19.771  0.00  0.00    +0.000 N 
ATOM      4  O   UNL     1       2.649   4.496  20.890  0.00  0.00    +0.000 OA
ATOM      5  C   UNL     1       2.633   6.309  19.458  0.00  0.00    +0.000 A 
ATOM      6  C   UNL     1       1.774   7.041  20.311  0.00  0.00    +0.000 A 
ATOM      7  C   UNL     1       1.403   8.356  20.018  0.00  0.00    +0.000 A 
ATOM      8 CL   UNL     1       0.352   9.162  21.124  0.00  0.00    +0.000 Cl
ATOM      9  C   UNL     1       1.887   8.968  18.860  0.00  0.00    +0.000 A 
ATOM     10 CL   UNL     1       1.486  10.591  18.432  0.00  0.00    +0.000 Cl
ATOM     11  C   UNL     1       2.731   8.258  18.004  0.00  0.00    +0.000 A 
ATOM     12  C   UNL     1       3.116   6.925  18.288  0.00  0.00    +0.000 A 
ATOM     13  N   UNL     1       3.982   6.218  17.429  0.00  0.00    +0.000 N 
ATOM     14  O   UNL     1       4.432   6.793  16.386  0.00  0.00    +0.000 OA
ENDROOT
BRANCH   1  16
ATOM     15  C   UNL     1       6.757   4.554  17.158  0.00  0.00    +0.000 C 
ATOM     16  C   UNL     1       5.314   4.247  16.773  0.00  0.00    +0.000 C 
ENDBRANCH   1  16
BRANCH   2  17
ATOM     17  C   UNL     1       4.184   2.909  19.256  0.00  0.00    +0.000 C 
ATOM     18  O   UNL     1       5.048   2.641  20.074  0.00  0.00    +0.000 OA
BRANCH  17  19
ATOM     19  O   UNL     1       3.486   2.021  18.512  0.00  0.00    +0.000 OA
ATOM     20  C   UNL     1       2.111   1.879  18.883  0.00  0.00    +0.000 C 
ENDBRANCH  17  19
ENDBRANCH   2  17
TORSDOF 3
ENDMDL
MODEL 2
REMARK VINA RESULT:      -6.6      1.190      3.321
REMARK  Name = 
REMARK  5 active torsions:
REMARK  status: ('A' for Active; 'I' for Inactive)
REMARK    1  A    between atoms: C_1  and  C_2
REMARK    2  A    between atoms: C_2  and  C_3
REMARK    3  A    between atoms: C_4  and  C_5
REMARK    4  A    between atoms: C_5  and  O_7
REMARK    5  A    between atoms: O_7  and  C_8
REMARK                            x       y       z     vdW  Elec       q    Type
REMARK                         _______ _______ _______ _____ _____    ______ ____
ROOT
ATOM      1  C   UNL     1       4.103   4.384  19.144  0.00  0.00    +0.000 A 
ATOM      2  C   UNL     1       4.644   5.033  18.017  0.00  0.00    +0.000 A 
ATOM      3  N   UNL     1       4.197   6.290  17.623  0.00  0.00    +0.000 N 
ATOM      4  O   UNL     1       4.580   6.844  16.539  0.00  0.00    +0.000 OA
ATOM      5  C   UNL     1       3.236   6.958  18.414  0.00  0.00    +0.000 A 
ATOM      6  C   UNL     1       2.781   8.254  18.074  0.00  0.00    +0.000 A 
ATOM      7  C   UNL     1       1.818   8.913  18.842  0.00  0.00    +0.000 A 
ATOM      8 CL   UNL     1       1.330  10.491  18.341  0.00  0.00    +0.000 Cl
ATOM      9  C   UNL     1       1.287   8.286  19.970  0.00  0.00    +0.000 A 
ATOM     10 CL   UNL     1       0.086   9.027  20.964  0.00  0.00    +0.000 Cl
ATOM     11  C   UNL     1       1.728   7.010  20.324  0.00  0.00    +0.000 A 
ATOM     12  C   UNL     1       2.704   6.329  19.556  0.00  0.00    +0.000 A 
ATOM     13  N   UNL     1       3.135   5.033  19.908  0.00  0.00    +0.000 N 
ATOM     14  O   UNL     1       2.628   4.464  20.929  0.00  0.00    +0.000 OA
ENDROOT
BRANCH   1  16
ATOM     15  C   UNL     1       3.627   1.947  18.817  0.00  0.00    +0.000 C 
ATOM     16  C   UNL     1       4.460   2.980  19.567  0.00  0.00    +0.000 C 
ENDBRANCH   1  16
BRANCH   2  17
ATOM     17  C   UNL     1       5.660   4.398  17.161  0.00  0.00    +0.000 C 
ATOM     18  O   UNL     1       6.855   4.443  17.403  0.00  0.00    +0.000 OA
BRANCH  17  19
ATOM     19  O   UNL     1       5.089   3.854  16.062  0.00  0.00    +0.000 OA
ATOM     20  C   UNL     1       5.906   3.880  14.888  0.00  0.00    +0.000 C 
ENDBRANCH  17  19
ENDBRANCH   2  17
TORSDOF 3
ENDMDL
MODEL 3
REMARK VINA RESULT:      -6.5      1.095      3.439
REMARK  Name = 
REMARK  5 active torsions:
REMARK  status: ('A' for Active; 'I' for Inactive)
REMARK    1  A    between atoms: C_1  and  C_2
REMARK    2  A    between atoms: C_2  and  C_3
REMARK    3  A    between atoms: C_4  and  C_5
REMARK    4  A    between atoms: C_5  and  O_7
REMARK    5  A    between atoms: O_7  and  C_8
REMARK                            x       y       z     vdW  Elec       q    Type
REMARK                         _______ _______ _______ _____ _____    ______ ____
ROOT
ATOM      1  C   UNL     1       3.690   4.366  19.411  0.00  0.00    +0.000 A 
ATOM      2  C   UNL     1       4.227   4.966  18.256  0.00  0.00    +0.000 A 
ATOM      3  N   UNL     1       3.833   6.236  17.850  0.00  0.00    +0.000 N 
ATOM      4  O   UNL     1       4.209   6.750  16.744  0.00  0.00    +0.000 OA
ATOM      5  C   UNL     1       2.933   6.968  18.658  0.00  0.00    +0.000 A 
ATOM      6  C   UNL     1       2.535   8.279  18.306  0.00  0.00    +0.000 A 
ATOM      7  C   UNL     1       1.632   9.002  19.090  0.00  0.00    +0.000 A 
ATOM      8 CL   UNL     1       1.210  10.593  18.573  0.00  0.00    +0.000 Cl
ATOM      9  C   UNL     1       1.106   8.424  20.247  0.00  0.00    +0.000 A 
ATOM     10 CL   UNL     1      -0.023   9.244  21.262  0.00  0.00    +0.000 Cl
ATOM     11  C   UNL     1       1.492   7.133  20.612  0.00  0.00    +0.000 A 
ATOM     12  C   UNL     1       2.407   6.388  19.828  0.00  0.00    +0.000 A 
ATOM     13  N   UNL     1       2.782   5.079  20.192  0.00  0.00    +0.000 N 
ATOM     14  O   UNL     1       2.280   4.555  21.239  0.00  0.00    +0.000 OA
ENDROOT
BRANCH   1  16
ATOM     15  C   UNL     1       3.152   1.943  19.073  0.00  0.00    +0.000 C 
ATOM     16  C   UNL     1       3.988   2.954  19.850  0.00  0.00    +0.000 C 
ENDBRANCH   1  16
BRANCH   2  17
ATOM     17  C   UNL     1       5.182   4.263  17.381  0.00  0.00    +0.000 C 
ATOM     18  O   UNL     1       4.834   3.552  16.453  0.00  0.00    +0.000 OA
BRANCH  17  19
ATOM     19  O   UNL     1       6.452   4.452  17.809  0.00  0.00    +0.000 OA
ATOM     20  C   UNL     1       7.410   4.658  16.767  0.00  0.00    +0.000 C 
ENDBRANCH  17  19
ENDBRANCH   2  17
TORSDOF 3
ENDMDL
MODEL 4
REMARK VINA RESULT:      -6.5      1.150      1.226
REMARK  Name = 
REMARK  5 active torsions:
REMARK  status: ('A' for Active; 'I' for Inactive)
REMARK    1  A    between atoms: C_1  and  C_2
REMARK    2  A    between atoms: C_2  and  C_3
REMARK    3  A    between atoms: C_4  and  C_5
REMARK    4  A    between atoms: C_5  and  O_7
REMARK    5  A    between atoms: O_7  and  C_8
REMARK                            x       y       z     vdW  Elec       q    Type
REMARK                         _______ _______ _______ _____ _____    ______ ____
ROOT
ATOM      1  C   UNL     1       3.772   5.959  17.771  0.00  0.00    +0.000 A 
ATOM      2  C   UNL     1       3.499   5.098  18.852  0.00  0.00    +0.000 A 
ATOM      3  N   UNL     1       2.721   5.513  19.928  0.00  0.00    +0.000 N 
ATOM      4  O   UNL     1       2.562   4.800  20.975  0.00  0.00    +0.000 OA
ATOM      5  C   UNL     1       2.132   6.798  19.897  0.00  0.00    +0.000 A 
ATOM      6  C   UNL     1       1.302   7.248  20.950  0.00  0.00    +0.000 A 
ATOM      7  C   UNL     1       0.731   8.523  20.934  0.00  0.00    +0.000 A 
ATOM      8 CL   UNL     1      -0.266   8.976  22.268  0.00  0.00    +0.000 Cl
ATOM      9  C   UNL     1       0.982   9.378  19.860  0.00  0.00    +0.000 A 
ATOM     10 CL   UNL     1       0.325  10.971  19.770  0.00  0.00    +0.000 Cl
ATOM     11  C   UNL     1       1.795   8.948  18.809  0.00  0.00    +0.000 A 
ATOM     12  C   UNL     1       2.380   7.659  18.811  0.00  0.00    +0.000 A 
ATOM     13  N   UNL     1       3.213   7.235  17.755  0.00  0.00    +0.000 N 
ATOM     14  O   UNL     1       3.451   8.032  16.790  0.00  0.00    +0.000 OA
ENDROOT
BRANCH   1  16
ATOM     15  C   UNL     1       6.135   6.000  16.940  0.00  0.00    +0.000 C 
ATOM     16  C   UNL     1       4.693   5.615  16.626  0.00  0.00    +0.000 C 
ENDBRANCH   1  16
BRANCH   2  17
ATOM     17  C   UNL     1       4.068   3.742  18.936  0.00  0.00    +0.000 C 
ATOM     18  O   UNL     1       5.159   3.509  19.429  0.00  0.00    +0.000 OA
BRANCH  17  19
ATOM     19  O   UNL     1       3.260   2.846  18.324  0.00  0.00    +0.000 OA
ATOM     20  C   UNL     1       3.572   1.476  18.596  0.00  0.00    +0.000 C 
ENDBRANCH  17  19
ENDBRANCH   2  17
TORSDOF 3
ENDMDL
MODEL 5
REMARK VINA RESULT:      -6.5      3.809      5.103
REMARK  Name = 
REMARK  5 active torsions:
REMARK  status: ('A' for Active; 'I' for Inactive)
REMARK    1  A    between atoms: C_1  and  C_2
REMARK    2  A    between atoms: C_2  and  C_3
REMARK    3  A    between atoms: C_4  and  C_5
REMARK    4  A    between atoms: C_5  and  O_7
REMARK    5  A    between atoms: O_7  and  C_8
REMARK                            x       y       z     vdW  Elec       q    Type
REMARK                         _______ _______ _______ _____ _____    ______ ____
ROOT
ATOM      1  C   UNL     1       6.245   5.069  17.724  0.00  0.00    +0.000 A 
ATOM      2  C   UNL     1       5.551   4.798  16.528  0.00  0.00    +0.000 A 
ATOM      3  N   UNL     1       4.330   4.132  16.535  0.00  0.00    +0.000 N 
ATOM      4  O   UNL     1       3.743   3.765  15.463  0.00  0.00    +0.000 OA
ATOM      5  C   UNL     1       3.740   3.790  17.773  0.00  0.00    +0.000 A 
ATOM      6  C   UNL     1       2.480   3.148  17.830  0.00  0.00    +0.000 A 
ATOM      7  C   UNL     1       1.899   2.790  19.049  0.00  0.00    +0.000 A 
ATOM      8 CL   UNL     1       0.361   2.010  19.010  0.00  0.00    +0.000 Cl
ATOM      9  C   UNL     1       2.570   3.069  20.241  0.00  0.00    +0.000 A 
ATOM     10 CL   UNL     1       1.926   2.650  21.787  0.00  0.00    +0.000 Cl
ATOM     11  C   UNL     1       3.811   3.707  20.204  0.00  0.00    +0.000 A 
ATOM     12  C   UNL     1       4.413   4.076  18.976  0.00  0.00    +0.000 A 
ATOM     13  N   UNL     1       5.674   4.706  18.942  0.00  0.00    +0.000 N 
ATOM     14  O   UNL     1       6.285   4.937  20.036  0.00  0.00    +0.000 OA
ENDROOT
BRANCH   1  16
ATOM     15  C   UNL     1       7.546   7.209  17.710  0.00  0.00    +0.000 C 
ATOM     16  C   UNL     1       7.619   5.688  17.785  0.00  0.00    +0.000 C 
ENDBRANCH   1  16
BRANCH   2  17
ATOM     17  C   UNL     1       6.104   5.144  15.207  0.00  0.00    +0.000 C 
ATOM     18  O   UNL     1       5.902   6.217  14.663  0.00  0.00    +0.000 OA
BRANCH  17  19
ATOM     19  O   UNL     1       6.771   4.093  14.677  0.00  0.00    +0.000 OA
ATOM     20  C   UNL     1       6.466   3.822  13.306  0.00  0.00    +0.000 C 
ENDBRANCH  17  19
ENDBRANCH   2  17
TORSDOF 3
ENDMDL
MODEL 6
REMARK VINA RESULT:      -6.5      0.552      1.082
REMARK  Name = 
REMARK  5 active torsions:
REMARK  status: ('A' for Active; 'I' for Inactive)
REMARK    1  A    between atoms: C_1  and  C_2
REMARK    2  A    between atoms: C_2  and  C_3
REMARK    3  A    between atoms: C_4  and  C_5
REMARK    4  A    between atoms: C_5  and  O_7
REMARK    5  A    between atoms: O_7  and  C_8
REMARK                            x       y       z     vdW  Elec       q    Type
REMARK                         _______ _______ _______ _____ _____    ______ ____
ROOT
ATOM      1  C   UNL     1       4.381   4.832  17.470  0.00  0.00    +0.000 A 
ATOM      2  C   UNL     1       3.827   4.189  18.594  0.00  0.00    +0.000 A 
ATOM      3  N   UNL     1       3.014   4.873  19.492  0.00  0.00    +0.000 N 
ATOM      4  O   UNL     1       2.603   4.350  20.581  0.00  0.00    +0.000 OA
ATOM      5  C   UNL     1       2.678   6.220  19.226  0.00  0.00    +0.000 A 
ATOM      6  C   UNL     1       1.823   6.944  20.090  0.00  0.00    +0.000 A 
ATOM      7  C   UNL     1       1.500   8.281  19.844  0.00  0.00    +0.000 A 
ATOM      8 CL   UNL     1       0.449   9.075  20.959  0.00  0.00    +0.000 Cl
ATOM      9  C   UNL     1       2.030   8.924  18.724  0.00  0.00    +0.000 A 
ATOM     10 CL   UNL     1       1.690  10.575  18.355  0.00  0.00    +0.000 Cl
ATOM     11  C   UNL     1       2.871   8.223  17.858  0.00  0.00    +0.000 A 
ATOM     12  C   UNL     1       3.207   6.867  18.094  0.00  0.00    +0.000 A 
ATOM     13  N   UNL     1       4.070   6.168  17.225  0.00  0.00    +0.000 N 
ATOM     14  O   UNL     1       4.563   6.772  16.217  0.00  0.00    +0.000 OA
ENDROOT
BRANCH   1  16
ATOM     15  C   UNL     1       6.797   4.454  16.930  0.00  0.00    +0.000 C 
ATOM     16  C   UNL     1       5.354   4.184  16.517  0.00  0.00    +0.000 C 
ENDBRANCH   1  16
BRANCH   2  17
ATOM     17  C   UNL     1       4.125   2.783  18.917  0.00  0.00    +0.000 C 
ATOM     18  O   UNL     1       3.499   1.847  18.448  0.00  0.00    +0.000 OA
BRANCH  17  19
ATOM     19  O   UNL     1       5.104   2.702  19.847  0.00  0.00    +0.000 OA
ATOM     20  C   UNL     1       4.953   1.632  20.784  0.00  0.00    +0.000 C 
ENDBRANCH  17  19
ENDBRANCH   2  17
TORSDOF 3
ENDMDL
MODEL 7
REMARK VINA RESULT:      -6.1      3.420      5.854
REMARK  Name = 
REMARK  5 active torsions:
REMARK  status: ('A' for Active; 'I' for Inactive)
REMARK    1  A    between atoms: C_1  and  C_2
REMARK    2  A    between atoms: C_2  and  C_3
REMARK    3  A    between atoms: C_4  and  C_5
REMARK    4  A    between atoms: C_5  and  O_7
REMARK    5  A    between atoms: O_7  and  C_8
REMARK                            x       y       z     vdW  Elec       q    Type
REMARK                         _______ _______ _______ _____ _____    ______ ____
ROOT
ATOM      1  C   UNL     1       1.258   9.207  19.352  0.00  0.00    +0.000 A 
ATOM      2  C   UNL     1       1.143   8.252  20.380  0.00  0.00    +0.000 A 
ATOM      3  N   UNL     1       1.814   7.035  20.316  0.00  0.00    +0.000 N 
ATOM      4  O   UNL     1       1.630   6.105  21.169  0.00  0.00    +0.000 OA
ATOM      5  C   UNL     1       2.687   6.788  19.232  0.00  0.00    +0.000 A 
ATOM      6  C   UNL     1       3.421   5.581  19.145  0.00  0.00    +0.000 A 
ATOM      7  C   UNL     1       4.272   5.323  18.068  0.00  0.00    +0.000 A 
ATOM      8 CL   UNL     1       5.122   3.820  18.055  0.00  0.00    +0.000 Cl
ATOM      9  C   UNL     1       4.407   6.270  17.051  0.00  0.00    +0.000 A 
ATOM     10 CL   UNL     1       5.428   6.022  15.682  0.00  0.00    +0.000 Cl
ATOM     11  C   UNL     1       3.694   7.468  17.124  0.00  0.00    +0.000 A 
ATOM     12  C   UNL     1       2.828   7.745  18.209  0.00  0.00    +0.000 A 
ATOM     13  N   UNL     1       2.098   8.950  18.270  0.00  0.00    +0.000 N 
ATOM     14  O   UNL     1       2.214   9.798  17.327  0.00  0.00    +0.000 OA
ENDROOT
BRANCH   1  16
ATOM     15  C   UNL     1      -0.878  10.301  18.634  0.00  0.00    +0.000 C 
ATOM     16  C   UNL     1       0.477  10.498  19.303  0.00  0.00    +0.000 C 
ENDBRANCH   1  16
BRANCH   2  17
ATOM     17  C   UNL     1       0.263   8.457  21.544  0.00  0.00    +0.000 C 
ATOM     18  O   UNL     1      -0.898   8.083  21.573  0.00  0.00    +0.000 OA
BRANCH  17  19
ATOM     19  O   UNL     1       0.894   9.175  22.501  0.00  0.00    +0.000 OA
ATOM     20  C   UNL     1       0.052   9.622  23.567  0.00  0.00    +0.000 C 
ENDBRANCH  17  19
ENDBRANCH   2  17
TORSDOF 3
ENDMDL
MODEL 8
REMARK VINA RESULT:      -6.0      4.689      5.936
REMARK  Name = 
REMARK  5 active torsions:
REMARK  status: ('A' for Active; 'I' for Inactive)
REMARK    1  A    between atoms: C_1  and  C_2
REMARK    2  A    between atoms: C_2  and  C_3
REMARK    3  A    between atoms: C_4  and  C_5
REMARK    4  A    between atoms: C_5  and  O_7
REMARK    5  A    between atoms: O_7  and  C_8
REMARK                            x       y       z     vdW  Elec       q    Type
REMARK                         _______ _______ _______ _____ _____    ______ ____
ROOT
ATOM      1  C   UNL     1       6.427   5.495  17.758  0.00  0.00    +0.000 A 
ATOM      2  C   UNL     1       5.378   4.560  17.845  0.00  0.00    +0.000 A 
ATOM      3  N   UNL     1       4.906   3.895  16.717  0.00  0.00    +0.000 N 
ATOM      4  O   UNL     1       3.878   3.139  16.747  0.00  0.00    +0.000 OA
ATOM      5  C   UNL     1       5.545   4.110  15.475  0.00  0.00    +0.000 A 
ATOM      6  C   UNL     1       5.125   3.427  14.309  0.00  0.00    +0.000 A 
ATOM      7  C   UNL     1       5.741   3.647  13.074  0.00  0.00    +0.000 A 
ATOM      8 CL   UNL     1       5.153   2.764  11.713  0.00  0.00    +0.000 Cl
ATOM      9  C   UNL     1       6.792   4.559  12.980  0.00  0.00    +0.000 A 
ATOM     10 CL   UNL     1       7.596   4.897  11.491  0.00  0.00    +0.000 Cl
ATOM     11  C   UNL     1       7.223   5.238  14.122  0.00  0.00    +0.000 A 
ATOM     12  C   UNL     1       6.610   5.026  15.380  0.00  0.00    +0.000 A 
ATOM     13  N   UNL     1       7.038   5.725  16.527  0.00  0.00    +0.000 N 
ATOM     14  O   UNL     1       7.986   6.570  16.424  0.00  0.00    +0.000 OA
ENDROOT
BRANCH   1  16
ATOM     15  C   UNL     1       8.023   5.616  19.685  0.00  0.00    +0.000 C 
ATOM     16  C   UNL     1       6.917   6.330  18.916  0.00  0.00    +0.000 C 
ENDBRANCH   1  16
BRANCH   2  17
ATOM     17  C   UNL     1       4.683   4.279  19.113  0.00  0.00    +0.000 C 
ATOM     18  O   UNL     1       3.768   4.966  19.535  0.00  0.00    +0.000 OA
BRANCH  17  19
ATOM     19  O   UNL     1       5.256   3.233  19.751  0.00  0.00    +0.000 OA
ATOM     20  C   UNL     1       4.347   2.197  20.137  0.00  0.00    +0.000 C 
ENDBRANCH  17  19
ENDBRANCH   2  17
TORSDOF 3
ENDMDL
MODEL 9
REMARK VINA RESULT:      -6.0      3.700      5.099
REMARK  Name = 
REMARK  5 active torsions:
REMARK  status: ('A' for Active; 'I' for Inactive)
REMARK    1  A    between atoms: C_1  and  C_2
REMARK    2  A    between atoms: C_2  and  C_3
REMARK    3  A    between atoms: C_4  and  C_5
REMARK    4  A    between atoms: C_5  and  O_7
REMARK    5  A    between atoms: O_7  and  C_8
REMARK                            x       y       z     vdW  Elec       q    Type
REMARK                         _______ _______ _______ _____ _____    ______ ____
ROOT
ATOM      1  C   UNL     1       6.441   5.074  17.938  0.00  0.00    +0.000 A 
ATOM      2  C   UNL     1       5.857   4.794  16.687  0.00  0.00    +0.000 A 
ATOM      3  N   UNL     1       4.641   4.126  16.590  0.00  0.00    +0.000 N 
ATOM      4  O   UNL     1       4.153   3.751  15.472  0.00  0.00    +0.000 OA
ATOM      5  C   UNL     1       3.944   3.791  17.773  0.00  0.00    +0.000 A 
ATOM      6  C   UNL     1       2.686   3.146  17.722  0.00  0.00    +0.000 A 
ATOM      7  C   UNL     1       1.999   2.796  18.888  0.00  0.00    +0.000 A 
ATOM      8 CL   UNL     1       0.471   2.012  18.717  0.00  0.00    +0.000 Cl
ATOM      9  C   UNL     1       2.561   3.083  20.133  0.00  0.00    +0.000 A 
ATOM     10 CL   UNL     1       1.783   2.673  21.618  0.00  0.00    +0.000 Cl
ATOM     11  C   UNL     1       3.799   3.724  20.201  0.00  0.00    +0.000 A 
ATOM     12  C   UNL     1       4.507   4.086  19.029  0.00  0.00    +0.000 A 
ATOM     13  N   UNL     1       5.765   4.718  19.103  0.00  0.00    +0.000 N 
ATOM     14  O   UNL     1       6.276   4.958  20.245  0.00  0.00    +0.000 OA
ENDROOT
BRANCH   1  16
ATOM     15  C   UNL     1       7.735   7.217  18.029  0.00  0.00    +0.000 C 
ATOM     16  C   UNL     1       7.804   5.697  18.117  0.00  0.00    +0.000 C 
ENDBRANCH   1  16
BRANCH   2  17
ATOM     17  C   UNL     1       6.525   5.133  15.419  0.00  0.00    +0.000 C 
ATOM     18  O   UNL     1       7.558   4.601  15.048  0.00  0.00    +0.000 OA
BRANCH  17  19
ATOM     19  O   UNL     1       5.885   6.151  14.798  0.00  0.00    +0.000 OA
ATOM     20  C   UNL     1       5.069   6.956  15.655  0.00  0.00    +0.000 C 
ENDBRANCH  17  19
ENDBRANCH   2  17
TORSDOF 3
ENDMDL
