MODEL 1
REMARK VINA RESULT:      -7.0      0.000      0.000
REMARK  Name = 
REMARK  6 active torsions:
REMARK  status: ('A' for Active; 'I' for Inactive)
REMARK    1  A    between atoms: C_1  and  C_2
REMARK    2  A    between atoms: N_7  and  C_8
REMARK    3  A    between atoms: C_8  and  C_9
REMARK    4  A    between atoms: C_9  and  C_10
REMARK    5  A    between atoms: C_10  and  O_11
REMARK    6  A    between atoms: O_11  and  C_12
REMARK                            x       y       z     vdW  Elec       q    Type
REMARK                         _______ _______ _______ _____ _____    ______ ____
ROOT
ATOM      1  C   UNL     1       7.227   4.977  17.298  0.00  0.00    +0.000 C 
ENDROOT
BRANCH   1   8
ATOM      2  C   UNL     1       5.458   2.891  11.920  0.00  0.00    +0.000 C 
ATOM      3  C   UNL     1       6.265   3.757  12.839  0.00  0.00    +0.000 A 
ATOM      4  C   UNL     1       7.212   4.623  12.341  0.00  0.00    +0.000 A 
ATOM      5  C   UNL     1       7.916   5.334  13.281  0.00  0.00    +0.000 A 
ATOM      6  N   UNL     1       7.729   5.201  14.600  0.00  0.00    +0.000 NA
ATOM      7  C   UNL     1       6.790   4.332  15.006  0.00  0.00    +0.000 A 
ATOM      8  N   UNL     1       6.588   4.095  16.349  0.00  0.00    +0.000 N 
ATOM      9  N   UNL     1       6.025   3.621  14.162  0.00  0.00    +0.000 NA
ATOM     10  H   UNL     1       5.652   3.754  16.520  0.00  0.00    +0.000 HD
ENDBRANCH   1   8
BRANCH   1  11
ATOM     11  C   UNL     1       6.230   5.375  18.390  0.00  0.00    +0.000 C 
BRANCH  11  12
ATOM     12  C   UNL     1       4.888   5.759  17.784  0.00  0.00    +0.000 C 
BRANCH  12  13
ATOM     13  O   UNL     1       3.888   4.809  18.155  0.00  0.00    +0.000 OA
BRANCH  13  14
ATOM     14  C   UNL     1       2.562   5.358  18.200  0.00  0.00    +0.000 C 
ATOM     15  C   UNL     1       1.494   4.322  17.814  0.00  0.00    +0.000 C 
ATOM     16  C   UNL     1       1.438   3.173  18.820  0.00  0.00    +0.000 C 
ATOM     17  C   UNL     1       1.142   3.701  20.219  0.00  0.00    +0.000 C 
ATOM     18  C   UNL     1       2.175   4.739  20.649  0.00  0.00    +0.000 C 
ATOM     19  C   UNL     1       2.302   5.872  19.624  0.00  0.00    +0.000 C 
ENDBRANCH  13  14
ENDBRANCH  12  13
ENDBRANCH  11  12
ENDBRANCH   1  11
TORSDOF 5
ENDMDL
MODEL 2
REMARK VINA RESULT:      -6.9      0.859      1.388
REMARK  Name = 
REMARK  6 active torsions:
REMARK  status: ('A' for Active; 'I' for Inactive)
REMARK    1  A    between atoms: C_1  and  C_2
REMARK    2  A    between atoms: N_7  and  C_8
REMARK    3  A    between atoms: C_8  and  C_9
REMARK    4  A    between atoms: C_9  and  C_10
REMARK    5  A    between atoms: C_10  and  O_11
REMARK    6  A    between atoms: O_11  and  C_12
REMARK                            x       y       z     vdW  Elec       q    Type
REMARK                         _______ _______ _______ _____ _____    ______ ____
ROOT
ATOM      1  C   UNL     1       7.035   5.584  16.894  0.00  0.00    +0.000 C 
ENDROOT
BRANCH   1   8
ATOM      2  C   UNL     1       5.606   2.670  11.807  0.00  0.00    +0.000 C 
ATOM      3  C   UNL     1       6.351   3.679  12.627  0.00  0.00    +0.000 A 
ATOM      4  C   UNL     1       7.319   4.474  12.057  0.00  0.00    +0.000 A 
ATOM      5  C   UNL     1       7.961   5.332  12.916  0.00  0.00    +0.000 A 
ATOM      6  N   UNL     1       7.696   5.400  14.227  0.00  0.00    +0.000 NA
ATOM      7  C   UNL     1       6.741   4.589  14.707  0.00  0.00    +0.000 A 
ATOM      8  N   UNL     1       6.460   4.557  16.056  0.00  0.00    +0.000 N 
ATOM      9  N   UNL     1       6.032   3.745  13.939  0.00  0.00    +0.000 NA
ATOM     10  H   UNL     1       5.518   4.231  16.223  0.00  0.00    +0.000 HD
ENDBRANCH   1   8
BRANCH   1  11
ATOM     11  C   UNL     1       6.011   6.036  17.940  0.00  0.00    +0.000 C 
BRANCH  11  12
ATOM     12  C   UNL     1       5.799   4.956  18.991  0.00  0.00    +0.000 C 
BRANCH  12  13
ATOM     13  O   UNL     1       4.613   4.214  18.706  0.00  0.00    +0.000 OA
BRANCH  13  14
ATOM     14  C   UNL     1       3.518   4.521  19.582  0.00  0.00    +0.000 C 
ATOM     15  C   UNL     1       2.363   5.215  18.842  0.00  0.00    +0.000 C 
ATOM     16  C   UNL     1       1.734   4.294  17.796  0.00  0.00    +0.000 C 
ATOM     17  C   UNL     1       1.218   3.017  18.449  0.00  0.00    +0.000 C 
ATOM     18  C   UNL     1       2.329   2.291  19.202  0.00  0.00    +0.000 C 
ATOM     19  C   UNL     1       3.023   3.211  20.213  0.00  0.00    +0.000 C 
ENDBRANCH  13  14
ENDBRANCH  12  13
ENDBRANCH  11  12
ENDBRANCH   1  11
TORSDOF 5
ENDMDL
MODEL 3
REMARK VINA RESULT:      -6.7      0.968      1.368
REMARK  Name = 
REMARK  6 active torsions:
REMARK  status: ('A' for Active; 'I' for Inactive)
REMARK    1  A    between atoms: C_1  and  C_2
REMARK    2  A    between atoms: N_7  and  C_8
REMARK    3  A    between atoms: C_8  and  C_9
REMARK    4  A    between atoms: C_9  and  C_10
REMARK    5  A    between atoms: C_10  and  O_11
REMARK    6  A    between atoms: O_11  and  C_12
REMARK                            x       y       z     vdW  Elec       q    Type
REMARK                         _______ _______ _______ _____ _____    ______ ____
ROOT
ATOM      1  C   UNL     1       6.946   4.919  17.257  0.00  0.00    +0.000 C 
ENDROOT
BRANCH   1   8
ATOM      2  C   UNL     1       5.592   2.793  11.775  0.00  0.00    +0.000 C 
ATOM      3  C   UNL     1       6.306   3.685  12.744  0.00  0.00    +0.000 A 
ATOM      4  C   UNL     1       7.246   4.592  12.307  0.00  0.00    +0.000 A 
ATOM      5  C   UNL     1       7.862   5.325  13.290  0.00  0.00    +0.000 A 
ATOM      6  N   UNL     1       7.600   5.178  14.596  0.00  0.00    +0.000 NA
ATOM      7  C   UNL     1       6.675   4.269  14.941  0.00  0.00    +0.000 A 
ATOM      8  N   UNL     1       6.402   4.017  16.268  0.00  0.00    +0.000 N 
ATOM      9  N   UNL     1       5.992   3.533  14.049  0.00  0.00    +0.000 NA
ATOM     10  H   UNL     1       5.472   3.637  16.381  0.00  0.00    +0.000 HD
ENDBRANCH   1   8
BRANCH   1  11
ATOM     11  C   UNL     1       5.818   5.743  17.886  0.00  0.00    +0.000 C 
BRANCH  11  12
ATOM     12  C   UNL     1       4.463   5.112  17.600  0.00  0.00    +0.000 C 
BRANCH  12  13
ATOM     13  O   UNL     1       4.375   3.826  18.216  0.00  0.00    +0.000 OA
BRANCH  13  14
ATOM     14  C   UNL     1       3.307   3.015  17.705  0.00  0.00    +0.000 C 
ATOM     15  C   UNL     1       2.979   1.837  18.637  0.00  0.00    +0.000 C 
ATOM     16  C   UNL     1       2.445   2.320  19.986  0.00  0.00    +0.000 C 
ATOM     17  C   UNL     1       1.196   3.171  19.792  0.00  0.00    +0.000 C 
ATOM     18  C   UNL     1       1.468   4.355  18.868  0.00  0.00    +0.000 C 
ATOM     19  C   UNL     1       2.067   3.905  17.532  0.00  0.00    +0.000 C 
ENDBRANCH  13  14
ENDBRANCH  12  13
ENDBRANCH  11  12
ENDBRANCH   1  11
TORSDOF 5
ENDMDL
MODEL 4
REMARK VINA RESULT:      -6.6      1.232      1.884
REMARK  Name = 
REMARK  6 active torsions:
REMARK  status: ('A' for Active; 'I' for Inactive)
REMARK    1  A    between atoms: C_1  and  C_2
REMARK    2  A    between atoms: N_7  and  C_8
REMARK    3  A    between atoms: C_8  and  C_9
REMARK    4  A    between atoms: C_9  and  C_10
REMARK    5  A    between atoms: C_10  and  O_11
REMARK    6  A    between atoms: O_11  and  C_12
REMARK                            x       y       z     vdW  Elec       q    Type
REMARK                         _______ _______ _______ _____ _____    ______ ____
ROOT
ATOM      1  C   UNL     1       6.324   5.817  16.782  0.00  0.00    +0.000 C 
ENDROOT
BRANCH   1   8
ATOM      2  C   UNL     1       5.582   2.580  11.745  0.00  0.00    +0.000 C 
ATOM      3  C   UNL     1       6.250   3.603  12.611  0.00  0.00    +0.000 A 
ATOM      4  C   UNL     1       7.366   4.279  12.172  0.00  0.00    +0.000 A 
ATOM      5  C   UNL     1       7.914   5.161  13.069  0.00  0.00    +0.000 A 
ATOM      6  N   UNL     1       7.428   5.360  14.301  0.00  0.00    +0.000 NA
ATOM      7  C   UNL     1       6.340   4.659  14.656  0.00  0.00    +0.000 A 
ATOM      8  N   UNL     1       5.824   4.763  15.930  0.00  0.00    +0.000 N 
ATOM      9  N   UNL     1       5.712   3.802  13.835  0.00  0.00    +0.000 NA
ATOM     10  H   UNL     1       4.844   4.517  15.946  0.00  0.00    +0.000 HD
ENDBRANCH   1   8
BRANCH   1  11
ATOM     11  C   UNL     1       5.703   5.696  18.177  0.00  0.00    +0.000 C 
BRANCH  11  12
ATOM     12  C   UNL     1       5.294   4.259  18.465  0.00  0.00    +0.000 C 
BRANCH  12  13
ATOM     13  O   UNL     1       4.201   4.230  19.384  0.00  0.00    +0.000 OA
BRANCH  13  14
ATOM     14  C   UNL     1       3.823   2.905  19.786  0.00  0.00    +0.000 C 
ATOM     15  C   UNL     1       2.774   2.919  20.910  0.00  0.00    +0.000 C 
ATOM     16  C   UNL     1       1.457   3.538  20.440  0.00  0.00    +0.000 C 
ATOM     17  C   UNL     1       0.903   2.771  19.246  0.00  0.00    +0.000 C 
ATOM     18  C   UNL     1       1.911   2.724  18.100  0.00  0.00    +0.000 C 
ATOM     19  C   UNL     1       3.264   2.170  18.559  0.00  0.00    +0.000 C 
ENDBRANCH  13  14
ENDBRANCH  12  13
ENDBRANCH  11  12
ENDBRANCH   1  11
TORSDOF 5
ENDMDL
MODEL 5
REMARK VINA RESULT:      -6.6      0.979      1.720
REMARK  Name = 
REMARK  6 active torsions:
REMARK  status: ('A' for Active; 'I' for Inactive)
REMARK    1  A    between atoms: C_1  and  C_2
REMARK    2  A    between atoms: N_7  and  C_8
REMARK    3  A    between atoms: C_8  and  C_9
REMARK    4  A    between atoms: C_9  and  C_10
REMARK    5  A    between atoms: C_10  and  O_11
REMARK    6  A    between atoms: O_11  and  C_12
REMARK                            x       y       z     vdW  Elec       q    Type
REMARK                         _______ _______ _______ _____ _____    ______ ____
ROOT
ATOM      1  C   UNL     1       7.045   5.019  18.228  0.00  0.00    +0.000 C 
ENDROOT
BRANCH   1   8
ATOM      2  C   UNL     1       7.842   5.451  12.263  0.00  0.00    +0.000 C 
ATOM      3  C   UNL     1       7.236   4.886  13.512  0.00  0.00    +0.000 A 
ATOM      4  C   UNL     1       6.273   3.905  13.447  0.00  0.00    +0.000 A 
ATOM      5  C   UNL     1       5.763   3.496  14.654  0.00  0.00    +0.000 A 
ATOM      6  N   UNL     1       6.145   4.010  15.830  0.00  0.00    +0.000 NA
ATOM      7  C   UNL     1       7.085   4.967  15.809  0.00  0.00    +0.000 A 
ATOM      8  N   UNL     1       7.480   5.589  16.974  0.00  0.00    +0.000 N 
ATOM      9  N   UNL     1       7.670   5.405  14.681  0.00  0.00    +0.000 NA
ATOM     10  H   UNL     1       8.410   5.972  16.884  0.00  0.00    +0.000 HD
ENDBRANCH   1   8
BRANCH   1  11
ATOM     11  C   UNL     1       5.763   5.713  18.698  0.00  0.00    +0.000 C 
BRANCH  11  12
ATOM     12  C   UNL     1       4.953   4.798  19.604  0.00  0.00    +0.000 C 
BRANCH  12  13
ATOM     13  O   UNL     1       3.930   4.140  18.856  0.00  0.00    +0.000 OA
BRANCH  13  14
ATOM     14  C   UNL     1       2.729   4.914  18.720  0.00  0.00    +0.000 C 
ATOM     15  C   UNL     1       1.667   4.190  17.875  0.00  0.00    +0.000 C 
ATOM     16  C   UNL     1       1.189   2.907  18.554  0.00  0.00    +0.000 C 
ATOM     17  C   UNL     1       0.611   3.213  19.931  0.00  0.00    +0.000 C 
ATOM     18  C   UNL     1       1.628   3.937  20.810  0.00  0.00    +0.000 C 
ATOM     19  C   UNL     1       2.175   5.195  20.126  0.00  0.00    +0.000 C 
ENDBRANCH  13  14
ENDBRANCH  12  13
ENDBRANCH  11  12
ENDBRANCH   1  11
TORSDOF 5
ENDMDL
MODEL 6
REMARK VINA RESULT:      -6.5      1.346      2.296
REMARK  Name = 
REMARK  6 active torsions:
REMARK  status: ('A' for Active; 'I' for Inactive)
REMARK    1  A    between atoms: C_1  and  C_2
REMARK    2  A    between atoms: N_7  and  C_8
REMARK    3  A    between atoms: C_8  and  C_9
REMARK    4  A    between atoms: C_9  and  C_10
REMARK    5  A    between atoms: C_10  and  O_11
REMARK    6  A    between atoms: O_11  and  C_12
REMARK                            x       y       z     vdW  Elec       q    Type
REMARK                         _______ _______ _______ _____ _____    ______ ____
ROOT
ATOM      1  C   UNL     1       6.981   4.834  18.383  0.00  0.00    +0.000 C 
ENDROOT
BRANCH   1   8
ATOM      2  C   UNL     1       7.923   5.531  12.464  0.00  0.00    +0.000 C 
ATOM      3  C   UNL     1       7.280   4.918  13.671  0.00  0.00    +0.000 A 
ATOM      4  C   UNL     1       6.306   3.955  13.538  0.00  0.00    +0.000 A 
ATOM      5  C   UNL     1       5.763   3.497  14.713  0.00  0.00    +0.000 A 
ATOM      6  N   UNL     1       6.124   3.951  15.920  0.00  0.00    +0.000 NA
ATOM      7  C   UNL     1       7.077   4.894  15.965  0.00  0.00    +0.000 A 
ATOM      8  N   UNL     1       7.453   5.455  17.167  0.00  0.00    +0.000 N 
ATOM      9  N   UNL     1       7.694   5.375  14.873  0.00  0.00    +0.000 NA
ATOM     10  H   UNL     1       8.390   5.829  17.116  0.00  0.00    +0.000 HD
ENDBRANCH   1   8
BRANCH   1  11
ATOM     11  C   UNL     1       5.949   5.739  19.063  0.00  0.00    +0.000 C 
BRANCH  11  12
ATOM     12  C   UNL     1       4.535   5.336  18.671  0.00  0.00    +0.000 C 
BRANCH  12  13
ATOM     13  O   UNL     1       3.854   4.770  19.791  0.00  0.00    +0.000 OA
BRANCH  13  14
ATOM     14  C   UNL     1       3.655   3.352  19.687  0.00  0.00    +0.000 C 
ATOM     15  C   UNL     1       2.866   2.790  20.881  0.00  0.00    +0.000 C 
ATOM     16  C   UNL     1       1.443   3.347  20.926  0.00  0.00    +0.000 C 
ATOM     17  C   UNL     1       0.701   3.021  19.635  0.00  0.00    +0.000 C 
ATOM     18  C   UNL     1       1.447   3.556  18.416  0.00  0.00    +0.000 C 
ATOM     19  C   UNL     1       2.899   3.067  18.380  0.00  0.00    +0.000 C 
ENDBRANCH  13  14
ENDBRANCH  12  13
ENDBRANCH  11  12
ENDBRANCH   1  11
TORSDOF 5
ENDMDL
MODEL 7
REMARK VINA RESULT:      -6.5      0.998      1.946
REMARK  Name = 
REMARK  6 active torsions:
REMARK  status: ('A' for Active; 'I' for Inactive)
REMARK    1  A    between atoms: C_1  and  C_2
REMARK    2  A    between atoms: N_7  and  C_8
REMARK    3  A    between atoms: C_8  and  C_9
REMARK    4  A    between atoms: C_9  and  C_10
REMARK    5  A    between atoms: C_10  and  O_11
REMARK    6  A    between atoms: O_11  and  C_12
REMARK                            x       y       z     vdW  Elec       q    Type
REMARK                         _______ _______ _______ _____ _____    ______ ____
ROOT
ATOM      1  C   UNL     1       5.555   4.107  17.208  0.00  0.00    +0.000 C 
ENDROOT
BRANCH   1   8
ATOM      2  C   UNL     1       8.688   6.091  12.448  0.00  0.00    +0.000 C 
ATOM      3  C   UNL     1       7.704   5.204  13.148  0.00  0.00    +0.000 A 
ATOM      4  C   UNL     1       7.004   4.242  12.456  0.00  0.00    +0.000 A 
ATOM      5  C   UNL     1       6.102   3.519  13.196  0.00  0.00    +0.000 A 
ATOM      6  N   UNL     1       5.884   3.724  14.502  0.00  0.00    +0.000 NA
ATOM      7  C   UNL     1       6.604   4.684  15.104  0.00  0.00    +0.000 A 
ATOM      8  N   UNL     1       6.387   4.995  16.429  0.00  0.00    +0.000 N 
ATOM      9  N   UNL     1       7.536   5.417  14.472  0.00  0.00    +0.000 NA
ATOM     10  H   UNL     1       7.207   5.419  16.841  0.00  0.00    +0.000 HD
ENDBRANCH   1   8
BRANCH   1  11
ATOM     11  C   UNL     1       5.627   4.493  18.689  0.00  0.00    +0.000 C 
BRANCH  11  12
ATOM     12  C   UNL     1       4.523   5.478  19.046  0.00  0.00    +0.000 C 
BRANCH  12  13
ATOM     13  O   UNL     1       3.528   4.837  19.844  0.00  0.00    +0.000 OA
BRANCH  13  14
ATOM     14  C   UNL     1       2.184   5.146  19.445  0.00  0.00    +0.000 C 
ATOM     15  C   UNL     1       1.880   4.662  18.018  0.00  0.00    +0.000 C 
ATOM     16  C   UNL     1       1.939   3.137  17.918  0.00  0.00    +0.000 C 
ATOM     17  C   UNL     1       0.951   2.499  18.886  0.00  0.00    +0.000 C 
ATOM     18  C   UNL     1       1.209   2.952  20.321  0.00  0.00    +0.000 C 
ATOM     19  C   UNL     1       1.221   4.480  20.439  0.00  0.00    +0.000 C 
ENDBRANCH  13  14
ENDBRANCH  12  13
ENDBRANCH  11  12
ENDBRANCH   1  11
TORSDOF 5
ENDMDL
MODEL 8
REMARK VINA RESULT:      -6.5      0.867      1.482
REMARK  Name = 
REMARK  6 active torsions:
REMARK  status: ('A' for Active; 'I' for Inactive)
REMARK    1  A    between atoms: C_1  and  C_2
REMARK    2  A    between atoms: N_7  and  C_8
REMARK    3  A    between atoms: C_8  and  C_9
REMARK    4  A    between atoms: C_9  and  C_10
REMARK    5  A    between atoms: C_10  and  O_11
REMARK    6  A    between atoms: O_11  and  C_12
REMARK                            x       y       z     vdW  Elec       q    Type
REMARK                         _______ _______ _______ _____ _____    ______ ____
ROOT
ATOM      1  C   UNL     1       6.670   4.889  17.506  0.00  0.00    +0.000 C 
ENDROOT
BRANCH   1   8
ATOM      2  C   UNL     1       5.524   2.896  11.927  0.00  0.00    +0.000 C 
ATOM      3  C   UNL     1       6.225   3.742  12.946  0.00  0.00    +0.000 A 
ATOM      4  C   UNL     1       7.229   4.607  12.575  0.00  0.00    +0.000 A 
ATOM      5  C   UNL     1       7.824   5.298  13.602  0.00  0.00    +0.000 A 
ATOM      6  N   UNL     1       7.483   5.148  14.888  0.00  0.00    +0.000 NA
ATOM      7  C   UNL     1       6.498   4.281  15.169  0.00  0.00    +0.000 A 
ATOM      8  N   UNL     1       6.140   4.027  16.475  0.00  0.00    +0.000 N 
ATOM      9  N   UNL     1       5.831   3.589  14.230  0.00  0.00    +0.000 NA
ATOM     10  H   UNL     1       5.188   3.691  16.531  0.00  0.00    +0.000 HD
ENDBRANCH   1   8
BRANCH   1  11
ATOM     11  C   UNL     1       5.585   5.862  17.979  0.00  0.00    +0.000 C 
BRANCH  11  12
ATOM     12  C   UNL     1       4.234   5.498  17.381  0.00  0.00    +0.000 C 
BRANCH  12  13
ATOM     13  O   UNL     1       3.247   5.402  18.409  0.00  0.00    +0.000 OA
BRANCH  13  14
ATOM     14  C   UNL     1       3.510   4.362  19.363  0.00  0.00    +0.000 C 
ATOM     15  C   UNL     1       2.603   4.470  20.599  0.00  0.00    +0.000 C 
ATOM     16  C   UNL     1       1.133   4.257  20.237  0.00  0.00    +0.000 C 
ATOM     17  C   UNL     1       0.935   2.893  19.586  0.00  0.00    +0.000 C 
ATOM     18  C   UNL     1       1.819   2.734  18.352  0.00  0.00    +0.000 C 
ATOM     19  C   UNL     1       3.293   3.007  18.671  0.00  0.00    +0.000 C 
ENDBRANCH  13  14
ENDBRANCH  12  13
ENDBRANCH  11  12
ENDBRANCH   1  11
TORSDOF 5
ENDMDL
MODEL 9
REMARK VINA RESULT:      -6.5      4.035      6.359
REMARK  Name = 
REMARK  6 active torsions:
REMARK  status: ('A' for Active; 'I' for Inactive)
REMARK    1  A    between atoms: C_1  and  C_2
REMARK    2  A    between atoms: N_7  and  C_8
REMARK    3  A    between atoms: C_8  and  C_9
REMARK    4  A    between atoms: C_9  and  C_10
REMARK    5  A    between atoms: C_10  and  O_11
REMARK    6  A    between atoms: O_11  and  C_12
REMARK                            x       y       z     vdW  Elec       q    Type
REMARK                         _______ _______ _______ _____ _____    ______ ____
ROOT
ATOM      1  C   UNL     1       3.672   5.911  17.741  0.00  0.00    +0.000 C 
ENDROOT
BRANCH   1   8
ATOM      2  C   UNL     1       0.464   9.422  21.454  0.00  0.00    +0.000 C 
ATOM      3  C   UNL     1       1.132   9.074  20.159  0.00  0.00    +0.000 A 
ATOM      4  C   UNL     1       1.056   9.920  19.076  0.00  0.00    +0.000 A 
ATOM      5  C   UNL     1       1.672   9.475  17.933  0.00  0.00    +0.000 A 
ATOM      6  N   UNL     1       2.298   8.295  17.843  0.00  0.00    +0.000 NA
ATOM      7  C   UNL     1       2.325   7.525  18.942  0.00  0.00    +0.000 A 
ATOM      8  N   UNL     1       2.894   6.270  18.904  0.00  0.00    +0.000 N 
ATOM      9  N   UNL     1       1.784   7.891  20.116  0.00  0.00    +0.000 NA
ATOM     10  H   UNL     1       3.191   5.979  19.826  0.00  0.00    +0.000 HD
ENDBRANCH   1   8
BRANCH   1  11
ATOM     11  C   UNL     1       5.056   5.417  18.173  0.00  0.00    +0.000 C 
BRANCH  11  12
ATOM     12  C   UNL     1       4.979   3.999  18.718  0.00  0.00    +0.000 C 
BRANCH  12  13
ATOM     13  O   UNL     1       4.139   3.957  19.872  0.00  0.00    +0.000 OA
BRANCH  13  14
ATOM     14  C   UNL     1       3.609   2.652  20.150  0.00  0.00    +0.000 C 
ATOM     15  C   UNL     1       2.554   2.683  21.268  0.00  0.00    +0.000 C 
ATOM     16  C   UNL     1       1.321   3.487  20.855  0.00  0.00    +0.000 C 
ATOM     17  C   UNL     1       0.699   2.900  19.593  0.00  0.00    +0.000 C 
ATOM     18  C   UNL     1       1.710   2.844  18.451  0.00  0.00    +0.000 C 
ATOM     19  C   UNL     1       2.986   2.100  18.859  0.00  0.00    +0.000 C 
ENDBRANCH  13  14
ENDBRANCH  12  13
ENDBRANCH  11  12
ENDBRANCH   1  11
TORSDOF 5
ENDMDL
