MODEL 1
REMARK VINA RESULT:      -7.1      0.000      0.000
REMARK  Name = 
REMARK  7 active torsions:
REMARK  status: ('A' for Active; 'I' for Inactive)
REMARK    1  A    between atoms: C_1  and  C_2
REMARK    2  A    between atoms: C_2  and  C_3
REMARK    3  A    between atoms: C_3  and  N_4
REMARK    4  A    between atoms: N_4  and  C_5
REMARK    5  A    between atoms: N_4  and  C_8
REMARK    6  A    between atoms: C_5  and  C_6
REMARK    7  A    between atoms: C_6  and  C_7
REMARK                            x       y       z     vdW  Elec       q    Type
REMARK                         _______ _______ _______ _____ _____    ______ ____
ROOT
ATOM      1  C   UNL     1       2.077   4.659  18.302  0.00  0.00    +0.000 C 
ATOM      2  C   UNL     1       2.433   5.716  19.376  0.00  0.00    +0.000 C 
ATOM      3  C   UNL     1       3.854   5.522  19.909  0.00  0.00    +0.000 C 
ATOM      4  C   UNL     1       4.885   5.317  18.822  0.00  0.00    +0.000 A 
ATOM      5  C   UNL     1       6.241   5.370  19.178  0.00  0.00    +0.000 A 
ATOM      6  C   UNL     1       7.251   5.149  18.243  0.00  0.00    +0.000 A 
ATOM      7  C   UNL     1       6.863   4.868  16.933  0.00  0.00    +0.000 A 
ATOM      8  N   UNL     1       7.634   4.612  15.821  0.00  0.00    +0.000 N 
ATOM      9  C   UNL     1       6.838   4.392  14.730  0.00  0.00    +0.000 A 
ATOM     10  C   UNL     1       5.531   4.503  15.141  0.00  0.00    +0.000 A 
ATOM     11  C   UNL     1       5.525   4.796  16.535  0.00  0.00    +0.000 A 
ATOM     12  C   UNL     1       4.500   5.011  17.493  0.00  0.00    +0.000 A 
ATOM     13  C   UNL     1       3.031   4.983  17.116  0.00  0.00    +0.000 C 
ATOM     14  H   UNL     1       8.644   4.594  15.821  0.00  0.00    +0.000 HD
ENDROOT
BRANCH   1  15
ATOM     15  N   UNL     1       2.152   3.249  18.777  0.00  0.00    +0.000 NA
BRANCH  15  16
ATOM     16  C   UNL     1       2.616   2.283  17.757  0.00  0.00    +0.000 C 
BRANCH  16  18
ATOM     17  C   UNL     1       4.462   1.859  19.438  0.00  0.00    +0.000 C 
ATOM     18  C   UNL     1       3.786   1.370  18.162  0.00  0.00    +0.000 C 
ENDBRANCH  16  18
ENDBRANCH  15  16
BRANCH  15  19
ATOM     19  C   UNL     1       0.946   2.786  19.489  0.00  0.00    +0.000 C 
BRANCH  19  20
ATOM     20  C   UNL     1       0.900   3.171  20.975  0.00  0.00    +0.000 C 
ATOM     21  C   UNL     1       2.138   2.718  21.738  0.00  0.00    +0.000 C 
ENDBRANCH  19  20
ENDBRANCH  15  19
ENDBRANCH   1  15
TORSDOF 5
ENDMDL
MODEL 2
REMARK VINA RESULT:      -6.7      1.355      3.248
REMARK  Name = 
REMARK  7 active torsions:
REMARK  status: ('A' for Active; 'I' for Inactive)
REMARK    1  A    between atoms: C_1  and  C_2
REMARK    2  A    between atoms: C_2  and  C_3
REMARK    3  A    between atoms: C_3  and  N_4
REMARK    4  A    between atoms: N_4  and  C_5
REMARK    5  A    between atoms: N_4  and  C_8
REMARK    6  A    between atoms: C_5  and  C_6
REMARK    7  A    between atoms: C_6  and  C_7
REMARK                            x       y       z     vdW  Elec       q    Type
REMARK                         _______ _______ _______ _____ _____    ______ ____
ROOT
ATOM      1  C   UNL     1       3.473   3.199  19.210  0.00  0.00    +0.000 C 
ATOM      2  C   UNL     1       3.395   2.332  17.930  0.00  0.00    +0.000 C 
ATOM      3  C   UNL     1       3.532   3.182  16.664  0.00  0.00    +0.000 C 
ATOM      4  C   UNL     1       4.675   4.170  16.720  0.00  0.00    +0.000 A 
ATOM      5  C   UNL     1       5.040   4.825  15.534  0.00  0.00    +0.000 A 
ATOM      6  C   UNL     1       6.055   5.782  15.512  0.00  0.00    +0.000 A 
ATOM      7  C   UNL     1       6.694   6.068  16.718  0.00  0.00    +0.000 A 
ATOM      8  N   UNL     1       7.714   6.954  16.985  0.00  0.00    +0.000 N 
ATOM      9  C   UNL     1       8.046   6.911  18.312  0.00  0.00    +0.000 A 
ATOM     10  C   UNL     1       7.226   5.987  18.915  0.00  0.00    +0.000 A 
ATOM     11  C   UNL     1       6.358   5.448  17.923  0.00  0.00    +0.000 A 
ATOM     12  C   UNL     1       5.317   4.482  17.944  0.00  0.00    +0.000 A 
ATOM     13  C   UNL     1       4.929   3.747  19.213  0.00  0.00    +0.000 C 
ATOM     14  H   UNL     1       8.150   7.546  16.292  0.00  0.00    +0.000 HD
ENDROOT
BRANCH   1  15
ATOM     15  N   UNL     1       2.425   4.254  19.304  0.00  0.00    +0.000 NA
BRANCH  15  16
ATOM     16  C   UNL     1       2.805   5.423  20.127  0.00  0.00    +0.000 C 
BRANCH  16  18
ATOM     17  C   UNL     1       2.524   6.867  18.065  0.00  0.00    +0.000 C 
ATOM     18  C   UNL     1       2.397   6.803  19.582  0.00  0.00    +0.000 C 
ENDBRANCH  16  18
ENDBRANCH  15  16
BRANCH  15  19
ATOM     19  C   UNL     1       1.081   3.742  19.632  0.00  0.00    +0.000 C 
BRANCH  19  20
ATOM     20  C   UNL     1       1.079   2.452  20.465  0.00  0.00    +0.000 C 
ATOM     21  C   UNL     1       1.446   2.694  21.924  0.00  0.00    +0.000 C 
ENDBRANCH  19  20
ENDBRANCH  15  19
ENDBRANCH   1  15
TORSDOF 5
ENDMDL
MODEL 3
REMARK VINA RESULT:      -6.4      1.303      1.719
REMARK  Name = 
REMARK  7 active torsions:
REMARK  status: ('A' for Active; 'I' for Inactive)
REMARK    1  A    between atoms: C_1  and  C_2
REMARK    2  A    between atoms: C_2  and  C_3
REMARK    3  A    between atoms: C_3  and  N_4
REMARK    4  A    between atoms: N_4  and  C_5
REMARK    5  A    between atoms: N_4  and  C_8
REMARK    6  A    between atoms: C_5  and  C_6
REMARK    7  A    between atoms: C_6  and  C_7
REMARK                            x       y       z     vdW  Elec       q    Type
REMARK                         _______ _______ _______ _____ _____    ______ ____
ROOT
ATOM      1  C   UNL     1       1.956   3.111  17.682  0.00  0.00    +0.000 C 
ATOM      2  C   UNL     1       1.157   4.437  17.682  0.00  0.00    +0.000 C 
ATOM      3  C   UNL     1       2.006   5.608  18.182  0.00  0.00    +0.000 C 
ATOM      4  C   UNL     1       3.380   5.670  17.554  0.00  0.00    +0.000 A 
ATOM      5  C   UNL     1       4.147   6.828  17.754  0.00  0.00    +0.000 A 
ATOM      6  C   UNL     1       5.440   6.944  17.244  0.00  0.00    +0.000 A 
ATOM      7  C   UNL     1       5.947   5.861  16.526  0.00  0.00    +0.000 A 
ATOM      8  N   UNL     1       7.173   5.703  15.920  0.00  0.00    +0.000 N 
ATOM      9  C   UNL     1       7.251   4.477  15.316  0.00  0.00    +0.000 A 
ATOM     10  C   UNL     1       6.059   3.828  15.539  0.00  0.00    +0.000 A 
ATOM     11  C   UNL     1       5.223   4.686  16.310  0.00  0.00    +0.000 A 
ATOM     12  C   UNL     1       3.912   4.567  16.840  0.00  0.00    +0.000 A 
ATOM     13  C   UNL     1       3.061   3.332  16.609  0.00  0.00    +0.000 C 
ATOM     14  H   UNL     1       7.904   6.401  15.923  0.00  0.00    +0.000 HD
ENDROOT
BRANCH   1  15
ATOM     15  N   UNL     1       2.476   2.705  19.018  0.00  0.00    +0.000 NA
BRANCH  15  16
ATOM     16  C   UNL     1       3.526   1.665  18.976  0.00  0.00    +0.000 C 
BRANCH  16  18
ATOM     17  C   UNL     1       5.140   3.448  19.769  0.00  0.00    +0.000 C 
ATOM     18  C   UNL     1       4.813   1.959  19.766  0.00  0.00    +0.000 C 
ENDBRANCH  16  18
ENDBRANCH  15  16
BRANCH  15  19
ATOM     19  C   UNL     1       1.425   2.412  20.011  0.00  0.00    +0.000 C 
BRANCH  19  20
ATOM     20  C   UNL     1       1.707   2.966  21.415  0.00  0.00    +0.000 C 
ATOM     21  C   UNL     1       2.114   4.434  21.398  0.00  0.00    +0.000 C 
ENDBRANCH  19  20
ENDBRANCH  15  19
ENDBRANCH   1  15
TORSDOF 5
ENDMDL
MODEL 4
REMARK VINA RESULT:      -6.1      1.966      5.889
REMARK  Name = 
REMARK  7 active torsions:
REMARK  status: ('A' for Active; 'I' for Inactive)
REMARK    1  A    between atoms: C_1  and  C_2
REMARK    2  A    between atoms: C_2  and  C_3
REMARK    3  A    between atoms: C_3  and  N_4
REMARK    4  A    between atoms: N_4  and  C_5
REMARK    5  A    between atoms: N_4  and  C_8
REMARK    6  A    between atoms: C_5  and  C_6
REMARK    7  A    between atoms: C_6  and  C_7
REMARK                            x       y       z     vdW  Elec       q    Type
REMARK                         _______ _______ _______ _____ _____    ______ ____
ROOT
ATOM      1  C   UNL     1       4.622   4.808  16.622  0.00  0.00    +0.000 C 
ATOM      2  C   UNL     1       4.035   3.387  16.796  0.00  0.00    +0.000 C 
ATOM      3  C   UNL     1       3.853   3.028  18.273  0.00  0.00    +0.000 C 
ATOM      4  C   UNL     1       3.186   4.117  19.082  0.00  0.00    +0.000 A 
ATOM      5  C   UNL     1       2.754   3.807  20.380  0.00  0.00    +0.000 A 
ATOM      6  C   UNL     1       2.170   4.767  21.205  0.00  0.00    +0.000 A 
ATOM      7  C   UNL     1       2.032   6.057  20.691  0.00  0.00    +0.000 A 
ATOM      8  N   UNL     1       1.500   7.185  21.274  0.00  0.00    +0.000 N 
ATOM      9  C   UNL     1       1.558   8.241  20.407  0.00  0.00    +0.000 A 
ATOM     10  C   UNL     1       2.142   7.794  19.245  0.00  0.00    +0.000 A 
ATOM     11  C   UNL     1       2.456   6.414  19.409  0.00  0.00    +0.000 A 
ATOM     12  C   UNL     1       3.060   5.435  18.576  0.00  0.00    +0.000 A 
ATOM     13  C   UNL     1       3.508   5.751  17.161  0.00  0.00    +0.000 C 
ATOM     14  H   UNL     1       1.120   7.217  22.210  0.00  0.00    +0.000 HD
ENDROOT
BRANCH   1  15
ATOM     15  N   UNL     1       5.952   5.008  17.264  0.00  0.00    +0.000 NA
BRANCH  15  16
ATOM     16  C   UNL     1       6.199   6.384  17.746  0.00  0.00    +0.000 C 
BRANCH  16  18
ATOM     17  C   UNL     1       8.024   8.138  17.850  0.00  0.00    +0.000 C 
ATOM     18  C   UNL     1       7.636   6.704  18.193  0.00  0.00    +0.000 C 
ENDBRANCH  16  18
ENDBRANCH  15  16
BRANCH  15  19
ATOM     19  C   UNL     1       7.084   4.466  16.488  0.00  0.00    +0.000 C 
BRANCH  19  20
ATOM     20  C   UNL     1       7.140   4.943  15.030  0.00  0.00    +0.000 C 
ATOM     21  C   UNL     1       6.524   3.943  14.060  0.00  0.00    +0.000 C 
ENDBRANCH  19  20
ENDBRANCH  15  19
ENDBRANCH   1  15
TORSDOF 5
ENDMDL
MODEL 5
REMARK VINA RESULT:      -6.1      2.947      5.648
REMARK  Name = 
REMARK  7 active torsions:
REMARK  status: ('A' for Active; 'I' for Inactive)
REMARK    1  A    between atoms: C_1  and  C_2
REMARK    2  A    between atoms: C_2  and  C_3
REMARK    3  A    between atoms: C_3  and  N_4
REMARK    4  A    between atoms: N_4  and  C_5
REMARK    5  A    between atoms: N_4  and  C_8
REMARK    6  A    between atoms: C_5  and  C_6
REMARK    7  A    between atoms: C_6  and  C_7
REMARK                            x       y       z     vdW  Elec       q    Type
REMARK                         _______ _______ _______ _____ _____    ______ ____
ROOT
ATOM      1  C   UNL     1       3.230   5.077  19.150  0.00  0.00    +0.000 C 
ATOM      2  C   UNL     1       4.160   5.813  18.154  0.00  0.00    +0.000 C 
ATOM      3  C   UNL     1       3.413   6.908  17.390  0.00  0.00    +0.000 C 
ATOM      4  C   UNL     1       2.567   7.794  18.275  0.00  0.00    +0.000 A 
ATOM      5  C   UNL     1       2.035   8.969  17.721  0.00  0.00    +0.000 A 
ATOM      6  C   UNL     1       1.209   9.816  18.459  0.00  0.00    +0.000 A 
ATOM      7  C   UNL     1       0.927   9.450  19.776  0.00  0.00    +0.000 A 
ATOM      8  N   UNL     1       0.155  10.088  20.720  0.00  0.00    +0.000 N 
ATOM      9  C   UNL     1       0.154   9.380  21.891  0.00  0.00    +0.000 A 
ATOM     10  C   UNL     1       0.934   8.264  21.702  0.00  0.00    +0.000 A 
ATOM     11  C   UNL     1       1.427   8.287  20.366  0.00  0.00    +0.000 A 
ATOM     12  C   UNL     1       2.258   7.422  19.607  0.00  0.00    +0.000 A 
ATOM     13  C   UNL     1       2.861   6.163  20.201  0.00  0.00    +0.000 C 
ATOM     14  H   UNL     1      -0.336  10.957  20.562  0.00  0.00    +0.000 HD
ENDROOT
BRANCH   1  15
ATOM     15  N   UNL     1       2.054   4.414  18.519  0.00  0.00    +0.000 NA
BRANCH  15  16
ATOM     16  C   UNL     1       0.982   4.039  19.467  0.00  0.00    +0.000 C 
BRANCH  16  18
ATOM     17  C   UNL     1       1.674   2.876  21.607  0.00  0.00    +0.000 C 
ATOM     18  C   UNL     1       1.148   2.691  20.189  0.00  0.00    +0.000 C 
ENDBRANCH  16  18
ENDBRANCH  15  16
BRANCH  15  19
ATOM     19  C   UNL     1       2.402   3.319  17.594  0.00  0.00    +0.000 C 
BRANCH  19  20
ATOM     20  C   UNL     1       3.794   2.714  17.823  0.00  0.00    +0.000 C 
ATOM     21  C   UNL     1       3.735   1.304  18.396  0.00  0.00    +0.000 C 
ENDBRANCH  19  20
ENDBRANCH  15  19
ENDBRANCH   1  15
TORSDOF 5
ENDMDL
MODEL 6
REMARK VINA RESULT:      -5.9      1.526      3.466
REMARK  Name = 
REMARK  7 active torsions:
REMARK  status: ('A' for Active; 'I' for Inactive)
REMARK    1  A    between atoms: C_1  and  C_2
REMARK    2  A    between atoms: C_2  and  C_3
REMARK    3  A    between atoms: C_3  and  N_4
REMARK    4  A    between atoms: N_4  and  C_5
REMARK    5  A    between atoms: N_4  and  C_8
REMARK    6  A    between atoms: C_5  and  C_6
REMARK    7  A    between atoms: C_6  and  C_7
REMARK                            x       y       z     vdW  Elec       q    Type
REMARK                         _______ _______ _______ _____ _____    ______ ____
ROOT
ATOM      1  C   UNL     1       4.144   3.174  19.523  0.00  0.00    +0.000 C 
ATOM      2  C   UNL     1       3.881   2.429  18.192  0.00  0.00    +0.000 C 
ATOM      3  C   UNL     1       3.706   3.405  17.025  0.00  0.00    +0.000 C 
ATOM      4  C   UNL     1       4.763   4.484  16.976  0.00  0.00    +0.000 A 
ATOM      5  C   UNL     1       4.842   5.281  15.823  0.00  0.00    +0.000 A 
ATOM      6  C   UNL     1       5.761   6.325  15.718  0.00  0.00    +0.000 A 
ATOM      7  C   UNL     1       6.601   6.552  16.808  0.00  0.00    +0.000 A 
ATOM      8  N   UNL     1       7.587   7.498  16.978  0.00  0.00    +0.000 N 
ATOM      9  C   UNL     1       8.173   7.360  18.206  0.00  0.00    +0.000 A 
ATOM     10  C   UNL     1       7.556   6.311  18.845  0.00  0.00    +0.000 A 
ATOM     11  C   UNL     1       6.552   5.791  17.979  0.00  0.00    +0.000 A 
ATOM     12  C   UNL     1       5.608   4.736  18.085  0.00  0.00    +0.000 A 
ATOM     13  C   UNL     1       5.529   3.851  19.315  0.00  0.00    +0.000 C 
ATOM     14  H   UNL     1       7.836   8.191  16.286  0.00  0.00    +0.000 HD
ENDROOT
BRANCH   1  15
ATOM     15  N   UNL     1       3.061   4.114  19.928  0.00  0.00    +0.000 NA
BRANCH  15  16
ATOM     16  C   UNL     1       1.757   3.864  19.273  0.00  0.00    +0.000 C 
BRANCH  16  18
ATOM     17  C   UNL     1       1.240   2.737  21.481  0.00  0.00    +0.000 C 
ATOM     18  C   UNL     1       0.740   3.030  20.072  0.00  0.00    +0.000 C 
ENDBRANCH  16  18
ENDBRANCH  15  16
BRANCH  15  19
ATOM     19  C   UNL     1       3.451   5.536  19.892  0.00  0.00    +0.000 C 
BRANCH  19  20
ATOM     20  C   UNL     1       2.361   6.479  19.363  0.00  0.00    +0.000 C 
ATOM     21  C   UNL     1       2.825   7.304  18.170  0.00  0.00    +0.000 C 
ENDBRANCH  19  20
ENDBRANCH  15  19
ENDBRANCH   1  15
TORSDOF 5
ENDMDL
MODEL 7
REMARK VINA RESULT:      -5.8      1.408      3.519
REMARK  Name = 
REMARK  7 active torsions:
REMARK  status: ('A' for Active; 'I' for Inactive)
REMARK    1  A    between atoms: C_1  and  C_2
REMARK    2  A    between atoms: C_2  and  C_3
REMARK    3  A    between atoms: C_3  and  N_4
REMARK    4  A    between atoms: N_4  and  C_5
REMARK    5  A    between atoms: N_4  and  C_8
REMARK    6  A    between atoms: C_5  and  C_6
REMARK    7  A    between atoms: C_6  and  C_7
REMARK                            x       y       z     vdW  Elec       q    Type
REMARK                         _______ _______ _______ _____ _____    ______ ____
ROOT
ATOM      1  C   UNL     1       3.881   3.166  19.783  0.00  0.00    +0.000 C 
ATOM      2  C   UNL     1       3.938   2.011  18.753  0.00  0.00    +0.000 C 
ATOM      3  C   UNL     1       3.939   2.537  17.315  0.00  0.00    +0.000 C 
ATOM      4  C   UNL     1       4.914   3.670  17.087  0.00  0.00    +0.000 A 
ATOM      5  C   UNL     1       5.172   4.064  15.765  0.00  0.00    +0.000 A 
ATOM      6  C   UNL     1       6.024   5.128  15.473  0.00  0.00    +0.000 A 
ATOM      7  C   UNL     1       6.613   5.793  16.549  0.00  0.00    +0.000 A 
ATOM      8  N   UNL     1       7.482   6.861  16.555  0.00  0.00    +0.000 N 
ATOM      9  C   UNL     1       7.817   7.193  17.839  0.00  0.00    +0.000 A 
ATOM     10  C   UNL     1       7.153   6.332  18.679  0.00  0.00    +0.000 A 
ATOM     11  C   UNL     1       6.378   5.442  17.880  0.00  0.00    +0.000 A 
ATOM     12  C   UNL     1       5.501   4.365  18.173  0.00  0.00    +0.000 A 
ATOM     13  C   UNL     1       5.234   3.911  19.596  0.00  0.00    +0.000 C 
ATOM     14  H   UNL     1       7.820   7.325  15.723  0.00  0.00    +0.000 HD
ENDROOT
BRANCH   1  15
ATOM     15  N   UNL     1       2.681   4.041  19.661  0.00  0.00    +0.000 NA
BRANCH  15  16
ATOM     16  C   UNL     1       2.768   5.308  20.418  0.00  0.00    +0.000 C 
BRANCH  16  18
ATOM     17  C   UNL     1       1.837   7.663  20.369  0.00  0.00    +0.000 C 
ATOM     18  C   UNL     1       2.620   6.604  19.602  0.00  0.00    +0.000 C 
ENDBRANCH  16  18
ENDBRANCH  15  16
BRANCH  15  19
ATOM     19  C   UNL     1       1.400   3.341  19.871  0.00  0.00    +0.000 C 
BRANCH  19  20
ATOM     20  C   UNL     1       0.530   3.217  18.611  0.00  0.00    +0.000 C 
ATOM     21  C   UNL     1       1.053   4.056  17.452  0.00  0.00    +0.000 C 
ENDBRANCH  19  20
ENDBRANCH  15  19
ENDBRANCH   1  15
TORSDOF 5
ENDMDL
MODEL 8
REMARK VINA RESULT:      -5.6      2.454      6.062
REMARK  Name = 
REMARK  7 active torsions:
REMARK  status: ('A' for Active; 'I' for Inactive)
REMARK    1  A    between atoms: C_1  and  C_2
REMARK    2  A    between atoms: C_2  and  C_3
REMARK    3  A    between atoms: C_3  and  N_4
REMARK    4  A    between atoms: N_4  and  C_5
REMARK    5  A    between atoms: N_4  and  C_8
REMARK    6  A    between atoms: C_5  and  C_6
REMARK    7  A    between atoms: C_6  and  C_7
REMARK                            x       y       z     vdW  Elec       q    Type
REMARK                         _______ _______ _______ _____ _____    ______ ____
ROOT
ATOM      1  C   UNL     1       4.955   6.214  16.600  0.00  0.00    +0.000 C 
ATOM      2  C   UNL     1       4.517   4.729  16.580  0.00  0.00    +0.000 C 
ATOM      3  C   UNL     1       4.222   4.210  17.990  0.00  0.00    +0.000 C 
ATOM      4  C   UNL     1       3.356   5.139  18.808  0.00  0.00    +0.000 A 
ATOM      5  C   UNL     1       2.827   4.659  20.016  0.00  0.00    +0.000 A 
ATOM      6  C   UNL     1       2.055   5.468  20.848  0.00  0.00    +0.000 A 
ATOM      7  C   UNL     1       1.827   6.781  20.436  0.00  0.00    +0.000 A 
ATOM      8  N   UNL     1       1.112   7.785  21.049  0.00  0.00    +0.000 N 
ATOM      9  C   UNL     1       1.142   8.923  20.289  0.00  0.00    +0.000 A 
ATOM     10  C   UNL     1       1.891   8.654  19.168  0.00  0.00    +0.000 A 
ATOM     11  C   UNL     1       2.340   7.305  19.247  0.00  0.00    +0.000 A 
ATOM     12  C   UNL     1       3.135   6.481  18.408  0.00  0.00    +0.000 A 
ATOM     13  C   UNL     1       3.691   6.979  17.087  0.00  0.00    +0.000 C 
ATOM     14  H   UNL     1       0.635   7.685  21.934  0.00  0.00    +0.000 HD
ENDROOT
BRANCH   1  15
ATOM     15  N   UNL     1       6.179   6.484  17.405  0.00  0.00    +0.000 NA
BRANCH  15  16
ATOM     16  C   UNL     1       6.566   7.911  17.472  0.00  0.00    +0.000 C 
BRANCH  16  18
ATOM     17  C   UNL     1       8.388   9.491  18.244  0.00  0.00    +0.000 C 
ATOM     18  C   UNL     1       8.075   8.211  17.478  0.00  0.00    +0.000 C 
ENDBRANCH  16  18
ENDBRANCH  15  16
BRANCH  15  19
ATOM     19  C   UNL     1       7.318   5.602  17.089  0.00  0.00    +0.000 C 
BRANCH  19  20
ATOM     20  C   UNL     1       7.830   4.776  18.277  0.00  0.00    +0.000 C 
ATOM     21  C   UNL     1       7.450   5.382  19.622  0.00  0.00    +0.000 C 
ENDBRANCH  19  20
ENDBRANCH  15  19
ENDBRANCH   1  15
TORSDOF 5
ENDMDL
MODEL 9
REMARK VINA RESULT:      -5.6      2.003      5.881
REMARK  Name = 
REMARK  7 active torsions:
REMARK  status: ('A' for Active; 'I' for Inactive)
REMARK    1  A    between atoms: C_1  and  C_2
REMARK    2  A    between atoms: C_2  and  C_3
REMARK    3  A    between atoms: C_3  and  N_4
REMARK    4  A    between atoms: N_4  and  C_5
REMARK    5  A    between atoms: N_4  and  C_8
REMARK    6  A    between atoms: C_5  and  C_6
REMARK    7  A    between atoms: C_6  and  C_7
REMARK                            x       y       z     vdW  Elec       q    Type
REMARK                         _______ _______ _______ _____ _____    ______ ____
ROOT
ATOM      1  C   UNL     1       5.445   6.964  16.373  0.00  0.00    +0.000 C 
ATOM      2  C   UNL     1       5.259   5.863  15.302  0.00  0.00    +0.000 C 
ATOM      3  C   UNL     1       5.197   4.469  15.931  0.00  0.00    +0.000 C 
ATOM      4  C   UNL     1       4.275   4.385  17.126  0.00  0.00    +0.000 A 
ATOM      5  C   UNL     1       3.957   3.114  17.629  0.00  0.00    +0.000 A 
ATOM      6  C   UNL     1       3.149   2.954  18.754  0.00  0.00    +0.000 A 
ATOM      7  C   UNL     1       2.667   4.111  19.368  0.00  0.00    +0.000 A 
ATOM      8  N   UNL     1       1.861   4.249  20.476  0.00  0.00    +0.000 N 
ATOM      9  C   UNL     1       1.627   5.573  20.730  0.00  0.00    +0.000 A 
ATOM     10  C   UNL     1       2.293   6.305  19.776  0.00  0.00    +0.000 A 
ATOM     11  C   UNL     1       2.965   5.396  18.908  0.00  0.00    +0.000 A 
ATOM     12  C   UNL     1       3.797   5.554  17.769  0.00  0.00    +0.000 A 
ATOM     13  C   UNL     1       4.127   6.921  17.200  0.00  0.00    +0.000 C 
ATOM     14  H   UNL     1       1.499   3.476  21.016  0.00  0.00    +0.000 HD
ENDROOT
BRANCH   1  15
ATOM     15  N   UNL     1       6.682   6.824  17.192  0.00  0.00    +0.000 NA
BRANCH  15  16
ATOM     16  C   UNL     1       7.591   7.990  17.133  0.00  0.00    +0.000 C 
BRANCH  16  18
ATOM     17  C   UNL     1       8.782   9.791  18.456  0.00  0.00    +0.000 C 
ATOM     18  C   UNL     1       8.352   8.329  18.426  0.00  0.00    +0.000 C 
ENDBRANCH  16  18
ENDBRANCH  15  16
BRANCH  15  19
ATOM     19  C   UNL     1       7.389   5.543  17.003  0.00  0.00    +0.000 C 
BRANCH  19  20
ATOM     20  C   UNL     1       7.771   4.831  18.309  0.00  0.00    +0.000 C 
ATOM     21  C   UNL     1       6.894   5.245  19.483  0.00  0.00    +0.000 C 
ENDBRANCH  19  20
ENDBRANCH  15  19
ENDBRANCH   1  15
TORSDOF 5
ENDMDL
