MODEL 1
REMARK VINA RESULT:      -7.1      0.000      0.000
REMARK  Name = 
REMARK  4 active torsions:
REMARK  status: ('A' for Active; 'I' for Inactive)
REMARK    1  A    between atoms: C_1  and  O_2
REMARK    2  A    between atoms: O_2  and  C_3
REMARK    3  A    between atoms: C_6  and  C_7
REMARK    4  A    between atoms: C_13  and  C_14
REMARK                            x       y       z     vdW  Elec       q    Type
REMARK                         _______ _______ _______ _____ _____    ______ ____
ROOT
ATOM      1  C   UNL     1       3.693   5.581  18.747  0.00  0.00    +0.000 A 
ATOM      2  C   UNL     1       2.868   6.792  18.879  0.00  0.00    +0.000 A 
ATOM      3  C   UNL     1       1.956   6.876  19.868  0.00  0.00    +0.000 A 
ATOM      4  N   UNL     1       1.782   5.822  20.733  0.00  0.00    +0.000 N 
ATOM      5  C   UNL     1       2.485   4.637  20.682  0.00  0.00    +0.000 A 
ATOM      6  S   UNL     1       2.112   3.466  21.823  0.00  0.00    +0.000 S 
ATOM      7  C   UNL     1       3.513   4.542  19.604  0.00  0.00    +0.000 A 
ATOM      8  C   UNL     1       1.095   8.089  20.101  0.00  0.00    +0.000 C 
ATOM      9  C   UNL     1       1.582   9.324  19.345  0.00  0.00    +0.000 C 
ATOM     10  C   UNL     1       1.950   8.964  17.912  0.00  0.00    +0.000 C 
ATOM     11  C   UNL     1       3.065   7.917  17.883  0.00  0.00    +0.000 C 
ATOM     12  H   UNL     1       1.085   5.896  21.470  0.00  0.00    +0.000 HD
ENDROOT
BRANCH   1  16
ATOM     13  C   UNL     1       6.728   5.253  15.720  0.00  0.00    +0.000 A 
ATOM     14  C   UNL     1       7.016   5.860  16.943  0.00  0.00    +0.000 A 
ATOM     15  C   UNL     1       6.040   5.960  17.939  0.00  0.00    +0.000 A 
ATOM     16  C   UNL     1       4.748   5.470  17.707  0.00  0.00    +0.000 A 
ATOM     17  C   UNL     1       4.456   4.875  16.472  0.00  0.00    +0.000 A 
ATOM     18  C   UNL     1       5.441   4.770  15.482  0.00  0.00    +0.000 A 
BRANCH  13  20
ATOM     19  C   UNL     1       7.411   4.918  13.478  0.00  0.00    +0.000 C 
ATOM     20  O   UNL     1       7.759   5.229  14.822  0.00  0.00    +0.000 OA
ENDBRANCH  13  20
ENDBRANCH   1  16
BRANCH   7  21
ATOM     21  C   UNL     1       4.356   3.287  19.448  0.00  0.00    +0.000 C 
ATOM     22  N   UNL     1       5.055   2.245  19.317  0.00  0.00    +0.000 NA
ENDBRANCH   7  21
TORSDOF 3
ENDMDL
MODEL 2
REMARK VINA RESULT:      -7.0      0.518      1.171
REMARK  Name = 
REMARK  4 active torsions:
REMARK  status: ('A' for Active; 'I' for Inactive)
REMARK    1  A    between atoms: C_1  and  O_2
REMARK    2  A    between atoms: O_2  and  C_3
REMARK    3  A    between atoms: C_6  and  C_7
REMARK    4  A    between atoms: C_13  and  C_14
REMARK                            x       y       z     vdW  Elec       q    Type
REMARK                         _______ _______ _______ _____ _____    ______ ____
ROOT
ATOM      1  C   UNL     1       3.578   5.202  19.043  0.00  0.00    +0.000 A 
ATOM      2  C   UNL     1       2.773   6.421  19.211  0.00  0.00    +0.000 A 
ATOM      3  C   UNL     1       1.827   6.472  20.171  0.00  0.00    +0.000 A 
ATOM      4  N   UNL     1       1.601   5.378  20.971  0.00  0.00    +0.000 N 
ATOM      5  C   UNL     1       2.282   4.181  20.881  0.00  0.00    +0.000 A 
ATOM      6  S   UNL     1       1.845   2.960  21.943  0.00  0.00    +0.000 S 
ATOM      7  C   UNL     1       3.347   4.122  19.836  0.00  0.00    +0.000 A 
ATOM      8  C   UNL     1       0.982   7.689  20.439  0.00  0.00    +0.000 C 
ATOM      9  C   UNL     1       1.520   8.952  19.767  0.00  0.00    +0.000 C 
ATOM     10  C   UNL     1       1.933   8.661  18.332  0.00  0.00    +0.000 C 
ATOM     11  C   UNL     1       3.027   7.593  18.285  0.00  0.00    +0.000 C 
ATOM     12  H   UNL     1       0.880   5.427  21.686  0.00  0.00    +0.000 HD
ENDROOT
BRANCH   1  16
ATOM     13  C   UNL     1       6.751   4.978  16.151  0.00  0.00    +0.000 A 
ATOM     14  C   UNL     1       5.463   4.556  15.817  0.00  0.00    +0.000 A 
ATOM     15  C   UNL     1       4.421   4.638  16.746  0.00  0.00    +0.000 A 
ATOM     16  C   UNL     1       4.668   5.123  18.036  0.00  0.00    +0.000 A 
ATOM     17  C   UNL     1       5.965   5.531  18.375  0.00  0.00    +0.000 A 
ATOM     18  C   UNL     1       7.002   5.456  17.437  0.00  0.00    +0.000 A 
BRANCH  13  20
ATOM     19  C   UNL     1       7.194   4.844  13.830  0.00  0.00    +0.000 C 
ATOM     20  O   UNL     1       7.687   4.835  15.164  0.00  0.00    +0.000 OA
ENDBRANCH  13  20
ENDBRANCH   1  16
BRANCH   7  21
ATOM     21  C   UNL     1       4.170   2.860  19.642  0.00  0.00    +0.000 C 
ATOM     22  N   UNL     1       4.854   1.812  19.482  0.00  0.00    +0.000 NA
ENDBRANCH   7  21
TORSDOF 3
ENDMDL
MODEL 3
REMARK VINA RESULT:      -6.6      2.671      5.632
REMARK  Name = 
REMARK  4 active torsions:
REMARK  status: ('A' for Active; 'I' for Inactive)
REMARK    1  A    between atoms: C_1  and  O_2
REMARK    2  A    between atoms: O_2  and  C_3
REMARK    3  A    between atoms: C_6  and  C_7
REMARK    4  A    between atoms: C_13  and  C_14
REMARK                            x       y       z     vdW  Elec       q    Type
REMARK                         _______ _______ _______ _____ _____    ______ ____
ROOT
ATOM      1  C   UNL     1       3.616   5.529  18.445  0.00  0.00    +0.000 A 
ATOM      2  C   UNL     1       4.937   5.644  17.811  0.00  0.00    +0.000 A 
ATOM      3  C   UNL     1       5.620   4.530  17.481  0.00  0.00    +0.000 A 
ATOM      4  N   UNL     1       5.091   3.292  17.758  0.00  0.00    +0.000 N 
ATOM      5  C   UNL     1       3.875   3.074  18.370  0.00  0.00    +0.000 A 
ATOM      6  S   UNL     1       3.415   1.484  18.634  0.00  0.00    +0.000 S 
ATOM      7  C   UNL     1       3.100   4.302  18.720  0.00  0.00    +0.000 A 
ATOM      8  C   UNL     1       6.962   4.552  16.796  0.00  0.00    +0.000 C 
ATOM      9  C   UNL     1       7.314   5.918  16.211  0.00  0.00    +0.000 C 
ATOM     10  C   UNL     1       6.991   7.026  17.204  0.00  0.00    +0.000 C 
ATOM     11  C   UNL     1       5.502   7.026  17.555  0.00  0.00    +0.000 C 
ATOM     12  H   UNL     1       5.621   2.460  17.510  0.00  0.00    +0.000 HD
ENDROOT
BRANCH   1  16
ATOM     13  C   UNL     1       1.261   9.005  19.371  0.00  0.00    +0.000 A 
ATOM     14  C   UNL     1       1.669   8.139  20.388  0.00  0.00    +0.000 A 
ATOM     15  C   UNL     1       2.446   7.014  20.098  0.00  0.00    +0.000 A 
ATOM     16  C   UNL     1       2.804   6.730  18.774  0.00  0.00    +0.000 A 
ATOM     17  C   UNL     1       2.380   7.590  17.754  0.00  0.00    +0.000 A 
ATOM     18  C   UNL     1       1.610   8.721  18.051  0.00  0.00    +0.000 A 
BRANCH  13  20
ATOM     19  C   UNL     1      -0.537  10.465  18.882  0.00  0.00    +0.000 C 
ATOM     20  O   UNL     1       0.494  10.061  19.776  0.00  0.00    +0.000 OA
ENDBRANCH  13  20
ENDBRANCH   1  16
BRANCH   7  21
ATOM     21  C   UNL     1       1.742   4.192  19.394  0.00  0.00    +0.000 C 
ATOM     22  N   UNL     1       0.615   4.099  19.953  0.00  0.00    +0.000 NA
ENDBRANCH   7  21
TORSDOF 3
ENDMDL
MODEL 4
REMARK VINA RESULT:      -6.6      2.660      5.653
REMARK  Name = 
REMARK  4 active torsions:
REMARK  status: ('A' for Active; 'I' for Inactive)
REMARK    1  A    between atoms: C_1  and  O_2
REMARK    2  A    between atoms: O_2  and  C_3
REMARK    3  A    between atoms: C_6  and  C_7
REMARK    4  A    between atoms: C_13  and  C_14
REMARK                            x       y       z     vdW  Elec       q    Type
REMARK                         _______ _______ _______ _____ _____    ______ ____
ROOT
ATOM      1  C   UNL     1       3.607   5.528  18.449  0.00  0.00    +0.000 A 
ATOM      2  C   UNL     1       4.932   5.646  17.823  0.00  0.00    +0.000 A 
ATOM      3  C   UNL     1       5.622   4.534  17.500  0.00  0.00    +0.000 A 
ATOM      4  N   UNL     1       5.097   3.295  17.779  0.00  0.00    +0.000 N 
ATOM      5  C   UNL     1       3.877   3.074  18.384  0.00  0.00    +0.000 A 
ATOM      6  S   UNL     1       3.423   1.483  18.652  0.00  0.00    +0.000 S 
ATOM      7  C   UNL     1       3.095   4.299  18.726  0.00  0.00    +0.000 A 
ATOM      8  C   UNL     1       6.967   4.559  16.824  0.00  0.00    +0.000 C 
ATOM      9  C   UNL     1       7.317   5.925  16.235  0.00  0.00    +0.000 C 
ATOM     10  C   UNL     1       6.984   7.035  17.222  0.00  0.00    +0.000 C 
ATOM     11  C   UNL     1       5.492   7.030  17.564  0.00  0.00    +0.000 C 
ATOM     12  H   UNL     1       5.632   2.464  17.538  0.00  0.00    +0.000 HD
ENDROOT
BRANCH   1  16
ATOM     13  C   UNL     1       1.247   8.993  19.400  0.00  0.00    +0.000 A 
ATOM     14  C   UNL     1       1.603   8.725  18.077  0.00  0.00    +0.000 A 
ATOM     15  C   UNL     1       2.359   7.593  17.756  0.00  0.00    +0.000 A 
ATOM     16  C   UNL     1       2.789   6.726  18.769  0.00  0.00    +0.000 A 
ATOM     17  C   UNL     1       2.444   7.005  20.098  0.00  0.00    +0.000 A 
ATOM     18  C   UNL     1       1.679   8.135  20.412  0.00  0.00    +0.000 A 
BRANCH  13  20
ATOM     19  C   UNL     1      -0.427  10.449  18.574  0.00  0.00    +0.000 C 
ATOM     20  O   UNL     1       0.520  10.135  19.589  0.00  0.00    +0.000 OA
ENDBRANCH  13  20
ENDBRANCH   1  16
BRANCH   7  21
ATOM     21  C   UNL     1       1.734   4.186  19.391  0.00  0.00    +0.000 C 
ATOM     22  N   UNL     1       0.604   4.090  19.943  0.00  0.00    +0.000 NA
ENDBRANCH   7  21
TORSDOF 3
ENDMDL
MODEL 5
REMARK VINA RESULT:      -6.5      3.373      6.006
REMARK  Name = 
REMARK  4 active torsions:
REMARK  status: ('A' for Active; 'I' for Inactive)
REMARK    1  A    between atoms: C_1  and  O_2
REMARK    2  A    between atoms: O_2  and  C_3
REMARK    3  A    between atoms: C_6  and  C_7
REMARK    4  A    between atoms: C_13  and  C_14
REMARK                            x       y       z     vdW  Elec       q    Type
REMARK                         _______ _______ _______ _____ _____    ______ ____
ROOT
ATOM      1  C   UNL     1       3.515   5.543  18.019  0.00  0.00    +0.000 A 
ATOM      2  C   UNL     1       2.906   4.219  18.211  0.00  0.00    +0.000 A 
ATOM      3  C   UNL     1       3.599   3.109  17.886  0.00  0.00    +0.000 A 
ATOM      4  N   UNL     1       4.861   3.219  17.353  0.00  0.00    +0.000 N 
ATOM      5  C   UNL     1       5.513   4.410  17.111  0.00  0.00    +0.000 A 
ATOM      6  S   UNL     1       7.047   4.331  16.442  0.00  0.00    +0.000 S 
ATOM      7  C   UNL     1       4.762   5.645  17.489  0.00  0.00    +0.000 A 
ATOM      8  C   UNL     1       3.069   1.713  18.082  0.00  0.00    +0.000 C 
ATOM      9  C   UNL     1       1.839   1.660  18.986  0.00  0.00    +0.000 C 
ATOM     10  C   UNL     1       0.854   2.760  18.617  0.00  0.00    +0.000 C 
ATOM     11  C   UNL     1       1.498   4.140  18.767  0.00  0.00    +0.000 C 
ATOM     12  H   UNL     1       5.369   2.374  17.105  0.00  0.00    +0.000 HD
ENDROOT
BRANCH   1  16
ATOM     13  C   UNL     1       1.466   9.150  19.146  0.00  0.00    +0.000 A 
ATOM     14  C   UNL     1       1.819   8.209  20.115  0.00  0.00    +0.000 A 
ATOM     15  C   UNL     1       2.498   7.040  19.760  0.00  0.00    +0.000 A 
ATOM     16  C   UNL     1       2.809   6.788  18.418  0.00  0.00    +0.000 A 
ATOM     17  C   UNL     1       2.439   7.726  17.445  0.00  0.00    +0.000 A 
ATOM     18  C   UNL     1       1.768   8.900  17.807  0.00  0.00    +0.000 A 
BRANCH  13  20
ATOM     19  C   UNL     1      -0.582  10.334  19.257  0.00  0.00    +0.000 C 
ATOM     20  O   UNL     1       0.793  10.246  19.613  0.00  0.00    +0.000 OA
ENDBRANCH  13  20
ENDBRANCH   1  16
BRANCH   7  21
ATOM     21  C   UNL     1       5.377   7.018  17.276  0.00  0.00    +0.000 C 
ATOM     22  N   UNL     1       5.889   8.157  17.099  0.00  0.00    +0.000 NA
ENDBRANCH   7  21
TORSDOF 3
ENDMDL
MODEL 6
REMARK VINA RESULT:      -6.4      3.360      6.033
REMARK  Name = 
REMARK  4 active torsions:
REMARK  status: ('A' for Active; 'I' for Inactive)
REMARK    1  A    between atoms: C_1  and  O_2
REMARK    2  A    between atoms: O_2  and  C_3
REMARK    3  A    between atoms: C_6  and  C_7
REMARK    4  A    between atoms: C_13  and  C_14
REMARK                            x       y       z     vdW  Elec       q    Type
REMARK                         _______ _______ _______ _____ _____    ______ ____
ROOT
ATOM      1  C   UNL     1       3.518   5.545  18.018  0.00  0.00    +0.000 A 
ATOM      2  C   UNL     1       2.912   4.220  18.213  0.00  0.00    +0.000 A 
ATOM      3  C   UNL     1       3.612   3.111  17.900  0.00  0.00    +0.000 A 
ATOM      4  N   UNL     1       4.878   3.223  17.378  0.00  0.00    +0.000 N 
ATOM      5  C   UNL     1       5.528   4.415  17.134  0.00  0.00    +0.000 A 
ATOM      6  S   UNL     1       7.068   4.336  16.477  0.00  0.00    +0.000 S 
ATOM      7  C   UNL     1       4.770   5.649  17.498  0.00  0.00    +0.000 A 
ATOM      8  C   UNL     1       3.086   1.714  18.101  0.00  0.00    +0.000 C 
ATOM      9  C   UNL     1       1.848   1.663  18.995  0.00  0.00    +0.000 C 
ATOM     10  C   UNL     1       0.863   2.757  18.611  0.00  0.00    +0.000 C 
ATOM     11  C   UNL     1       1.500   4.140  18.758  0.00  0.00    +0.000 C 
ATOM     12  H   UNL     1       5.392   2.378  17.139  0.00  0.00    +0.000 HD
ENDROOT
BRANCH   1  16
ATOM     13  C   UNL     1       1.460   9.144  19.156  0.00  0.00    +0.000 A 
ATOM     14  C   UNL     1       1.787   8.913  17.818  0.00  0.00    +0.000 A 
ATOM     15  C   UNL     1       2.444   7.739  17.437  0.00  0.00    +0.000 A 
ATOM     16  C   UNL     1       2.804   6.791  18.402  0.00  0.00    +0.000 A 
ATOM     17  C   UNL     1       2.490   7.032  19.746  0.00  0.00    +0.000 A 
ATOM     18  C   UNL     1       1.824   8.205  20.121  0.00  0.00    +0.000 A 
BRANCH  13  20
ATOM     19  C   UNL     1      -0.552  10.389  19.081  0.00  0.00    +0.000 C 
ATOM     20  O   UNL     1       0.833  10.333  19.406  0.00  0.00    +0.000 OA
ENDBRANCH  13  20
ENDBRANCH   1  16
BRANCH   7  21
ATOM     21  C   UNL     1       5.381   7.023  17.280  0.00  0.00    +0.000 C 
ATOM     22  N   UNL     1       5.890   8.162  17.099  0.00  0.00    +0.000 NA
ENDBRANCH   7  21
TORSDOF 3
ENDMDL
MODEL 7
REMARK VINA RESULT:      -6.1      1.794      3.899
REMARK  Name = 
REMARK  4 active torsions:
REMARK  status: ('A' for Active; 'I' for Inactive)
REMARK    1  A    between atoms: C_1  and  O_2
REMARK    2  A    between atoms: O_2  and  C_3
REMARK    3  A    between atoms: C_6  and  C_7
REMARK    4  A    between atoms: C_13  and  C_14
REMARK                            x       y       z     vdW  Elec       q    Type
REMARK                         _______ _______ _______ _____ _____    ______ ____
ROOT
ATOM      1  C   UNL     1       3.597   5.491  18.813  0.00  0.00    +0.000 A 
ATOM      2  C   UNL     1       3.387   4.403  19.779  0.00  0.00    +0.000 A 
ATOM      3  C   UNL     1       2.520   4.571  20.798  0.00  0.00    +0.000 A 
ATOM      4  N   UNL     1       1.854   5.764  20.943  0.00  0.00    +0.000 N 
ATOM      5  C   UNL     1       1.996   6.853  20.109  0.00  0.00    +0.000 A 
ATOM      6  S   UNL     1       1.102   8.225  20.467  0.00  0.00    +0.000 S 
ATOM      7  C   UNL     1       2.937   6.670  18.964  0.00  0.00    +0.000 A 
ATOM      8  C   UNL     1       2.215   3.501  21.812  0.00  0.00    +0.000 C 
ATOM      9  C   UNL     1       2.708   2.117  21.391  0.00  0.00    +0.000 C 
ATOM     10  C   UNL     1       4.120   2.199  20.829  0.00  0.00    +0.000 C 
ATOM     11  C   UNL     1       4.168   3.116  19.605  0.00  0.00    +0.000 C 
ATOM     12  H   UNL     1       1.209   5.879  21.721  0.00  0.00    +0.000 HD
ENDROOT
BRANCH   1  16
ATOM     13  C   UNL     1       6.230   5.030  15.445  0.00  0.00    +0.000 A 
ATOM     14  C   UNL     1       4.994   4.382  15.467  0.00  0.00    +0.000 A 
ATOM     15  C   UNL     1       4.125   4.537  16.551  0.00  0.00    +0.000 A 
ATOM     16  C   UNL     1       4.500   5.328  17.643  0.00  0.00    +0.000 A 
ATOM     17  C   UNL     1       5.748   5.965  17.628  0.00  0.00    +0.000 A 
ATOM     18  C   UNL     1       6.610   5.814  16.535  0.00  0.00    +0.000 A 
BRANCH  13  20
ATOM     19  C   UNL     1       6.419   3.947  13.349  0.00  0.00    +0.000 C 
ATOM     20  O   UNL     1       6.997   4.790  14.339  0.00  0.00    +0.000 OA
ENDBRANCH  13  20
ENDBRANCH   1  16
BRANCH   7  21
ATOM     21  C   UNL     1       3.175   7.796  17.972  0.00  0.00    +0.000 C 
ATOM     22  N   UNL     1       3.370   8.731  17.148  0.00  0.00    +0.000 NA
ENDBRANCH   7  21
TORSDOF 3
ENDMDL
MODEL 8
REMARK VINA RESULT:      -6.1      1.738      3.732
REMARK  Name = 
REMARK  4 active torsions:
REMARK  status: ('A' for Active; 'I' for Inactive)
REMARK    1  A    between atoms: C_1  and  O_2
REMARK    2  A    between atoms: O_2  and  C_3
REMARK    3  A    between atoms: C_6  and  C_7
REMARK    4  A    between atoms: C_13  and  C_14
REMARK                            x       y       z     vdW  Elec       q    Type
REMARK                         _______ _______ _______ _____ _____    ______ ____
ROOT
ATOM      1  C   UNL     1       3.658   5.580  18.874  0.00  0.00    +0.000 A 
ATOM      2  C   UNL     1       3.423   4.463  19.801  0.00  0.00    +0.000 A 
ATOM      3  C   UNL     1       2.491   4.580  20.768  0.00  0.00    +0.000 A 
ATOM      4  N   UNL     1       1.782   5.750  20.900  0.00  0.00    +0.000 N 
ATOM      5  C   UNL     1       1.941   6.862  20.100  0.00  0.00    +0.000 A 
ATOM      6  S   UNL     1       0.987   8.199  20.435  0.00  0.00    +0.000 S 
ATOM      7  C   UNL     1       2.955   6.735  19.012  0.00  0.00    +0.000 A 
ATOM      8  C   UNL     1       2.158   3.477  21.737  0.00  0.00    +0.000 C 
ATOM      9  C   UNL     1       2.717   2.119  21.315  0.00  0.00    +0.000 C 
ATOM     10  C   UNL     1       4.158   2.255  20.843  0.00  0.00    +0.000 C 
ATOM     11  C   UNL     1       4.251   3.203  19.645  0.00  0.00    +0.000 C 
ATOM     12  H   UNL     1       1.088   5.827  21.639  0.00  0.00    +0.000 HD
ENDROOT
BRANCH   1  16
ATOM     13  C   UNL     1       6.463   5.261  15.632  0.00  0.00    +0.000 A 
ATOM     14  C   UNL     1       6.808   5.952  16.796  0.00  0.00    +0.000 A 
ATOM     15  C   UNL     1       5.907   6.049  17.861  0.00  0.00    +0.000 A 
ATOM     16  C   UNL     1       4.635   5.472  17.759  0.00  0.00    +0.000 A 
ATOM     17  C   UNL     1       4.286   4.794  16.584  0.00  0.00    +0.000 A 
ATOM     18  C   UNL     1       5.195   4.691  15.524  0.00  0.00    +0.000 A 
BRANCH  13  20
ATOM     19  C   UNL     1       7.050   4.639  13.424  0.00  0.00    +0.000 C 
ATOM     20  O   UNL     1       7.421   5.248  14.656  0.00  0.00    +0.000 OA
ENDBRANCH  13  20
ENDBRANCH   1  16
BRANCH   7  21
ATOM     21  C   UNL     1       3.218   7.892  18.062  0.00  0.00    +0.000 C 
ATOM     22  N   UNL     1       3.436   8.853  17.275  0.00  0.00    +0.000 NA
ENDBRANCH   7  21
TORSDOF 3
ENDMDL
MODEL 9
REMARK VINA RESULT:      -5.7      3.231      5.886
REMARK  Name = 
REMARK  4 active torsions:
REMARK  status: ('A' for Active; 'I' for Inactive)
REMARK    1  A    between atoms: C_1  and  O_2
REMARK    2  A    between atoms: O_2  and  C_3
REMARK    3  A    between atoms: C_6  and  C_7
REMARK    4  A    between atoms: C_13  and  C_14
REMARK                            x       y       z     vdW  Elec       q    Type
REMARK                         _______ _______ _______ _____ _____    ______ ____
ROOT
ATOM      1  C   UNL     1       3.510   5.795  18.951  0.00  0.00    +0.000 A 
ATOM      2  C   UNL     1       3.069   4.608  19.699  0.00  0.00    +0.000 A 
ATOM      3  C   UNL     1       3.871   3.526  19.771  0.00  0.00    +0.000 A 
ATOM      4  N   UNL     1       5.084   3.526  19.125  0.00  0.00    +0.000 N 
ATOM      5  C   UNL     1       5.580   4.575  18.379  0.00  0.00    +0.000 A 
ATOM      6  S   UNL     1       7.078   4.371  17.657  0.00  0.00    +0.000 S 
ATOM      7  C   UNL     1       4.710   5.787  18.312  0.00  0.00    +0.000 A 
ATOM      8  C   UNL     1       3.518   2.282  20.543  0.00  0.00    +0.000 C 
ATOM      9  C   UNL     1       2.348   2.485  21.504  0.00  0.00    +0.000 C 
ATOM     10  C   UNL     1       1.225   3.257  20.826  0.00  0.00    +0.000 C 
ATOM     11  C   UNL     1       1.709   4.634  20.367  0.00  0.00    +0.000 C 
ATOM     12  H   UNL     1       5.675   2.700  19.181  0.00  0.00    +0.000 HD
ENDROOT
BRANCH   1  16
ATOM     13  C   UNL     1       1.124   9.368  18.814  0.00  0.00    +0.000 A 
ATOM     14  C   UNL     1       1.605   8.797  17.634  0.00  0.00    +0.000 A 
ATOM     15  C   UNL     1       2.370   7.627  17.668  0.00  0.00    +0.000 A 
ATOM     16  C   UNL     1       2.684   7.029  18.894  0.00  0.00    +0.000 A 
ATOM     17  C   UNL     1       2.214   7.613  20.078  0.00  0.00    +0.000 A 
ATOM     18  C   UNL     1       1.440   8.779  20.038  0.00  0.00    +0.000 A 
BRANCH  13  20
ATOM     19  C   UNL     1      -0.900  10.365  18.096  0.00  0.00    +0.000 C 
ATOM     20  O   UNL     1       0.401  10.518  18.653  0.00  0.00    +0.000 OA
ENDBRANCH  13  20
ENDBRANCH   1  16
BRANCH   7  21
ATOM     21  C   UNL     1       5.149   7.010  17.525  0.00  0.00    +0.000 C 
ATOM     22  N   UNL     1       5.513   8.027  16.873  0.00  0.00    +0.000 NA
ENDBRANCH   7  21
TORSDOF 3
ENDMDL
