MODEL 1
REMARK VINA RESULT:      -7.5      0.000      0.000
REMARK  Name = 
REMARK  5 active torsions:
REMARK  status: ('A' for Active; 'I' for Inactive)
REMARK    1  A    between atoms: N_1  and  C_2
REMARK    2  A    between atoms: C_5  and  C_6
REMARK    3  A    between atoms: C_6  and  O_8
REMARK    4  A    between atoms: O_8  and  C_9
REMARK    5  A    between atoms: C_9  and  C_10
REMARK                            x       y       z     vdW  Elec       q    Type
REMARK                         _______ _______ _______ _____ _____    ______ ____
ROOT
ATOM      1  O   UNL     1       7.442   5.251  17.816  0.00  0.00    +0.000 OA
ENDROOT
BRANCH   1   2
ATOM      2  C   UNL     1       7.004   6.099  16.858  0.00  0.00    +0.000 C 
ATOM      3  O   UNL     1       7.022   7.319  16.927  0.00  0.00    +0.000 OA
BRANCH   2   7
ATOM      4  C   UNL     1       6.140   3.799  13.329  0.00  0.00    +0.000 A 
ATOM      5  C   UNL     1       7.300   4.571  13.430  0.00  0.00    +0.000 A 
ATOM      6  C   UNL     1       7.538   5.360  14.559  0.00  0.00    +0.000 A 
ATOM      7  C   UNL     1       6.634   5.352  15.628  0.00  0.00    +0.000 A 
ATOM      8  C   UNL     1       5.488   4.554  15.547  0.00  0.00    +0.000 A 
ATOM      9  C   UNL     1       5.258   3.768  14.413  0.00  0.00    +0.000 A 
BRANCH   4  10
ATOM     10  N   UNL     1       5.994   2.889  12.277  0.00  0.00    +0.000 N 
ATOM     11  H   UNL     1       6.776   2.872  11.631  0.00  0.00    +0.000 HD
ATOM     12  H   UNL     1       5.100   2.944  11.801  0.00  0.00    +0.000 HD
ENDBRANCH   4  10
ENDBRANCH   2   7
ENDBRANCH   1   2
BRANCH   1  13
ATOM     13  C   UNL     1       6.877   5.471  19.117  0.00  0.00    +0.000 C 
BRANCH  13  14
ATOM     14  C   UNL     1       5.538   4.816  19.119  0.00  0.00    +0.000 A 
ATOM     15  N   UNL     1       4.362   5.412  19.177  0.00  0.00    +0.000 NA
ATOM     16  C   UNL     1       3.433   4.410  19.050  0.00  0.00    +0.000 A 
ATOM     17  C   UNL     1       2.033   4.485  19.019  0.00  0.00    +0.000 A 
ATOM     18  C   UNL     1       1.299   3.301  18.875  0.00  0.00    +0.000 A 
ATOM     19  C   UNL     1       1.947   2.067  18.762  0.00  0.00    +0.000 A 
ATOM     20  C   UNL     1       3.344   1.974  18.783  0.00  0.00    +0.000 A 
ATOM     21  C   UNL     1       4.050   3.169  18.929  0.00  0.00    +0.000 A 
ATOM     22  N   UNL     1       5.391   3.454  18.980  0.00  0.00    +0.000 N 
ATOM     23  H   UNL     1       6.150   2.794  18.871  0.00  0.00    +0.000 HD
ENDBRANCH  13  14
ENDBRANCH   1  13
TORSDOF 5
ENDMDL
MODEL 2
REMARK VINA RESULT:      -7.3      0.216      1.098
REMARK  Name = 
REMARK  5 active torsions:
REMARK  status: ('A' for Active; 'I' for Inactive)
REMARK    1  A    between atoms: N_1  and  C_2
REMARK    2  A    between atoms: C_5  and  C_6
REMARK    3  A    between atoms: C_6  and  O_8
REMARK    4  A    between atoms: O_8  and  C_9
REMARK    5  A    between atoms: C_9  and  C_10
REMARK                            x       y       z     vdW  Elec       q    Type
REMARK                         _______ _______ _______ _____ _____    ______ ____
ROOT
ATOM      1  O   UNL     1       7.472   5.247  17.814  0.00  0.00    +0.000 OA
ENDROOT
BRANCH   1   2
ATOM      2  C   UNL     1       6.994   6.026  16.817  0.00  0.00    +0.000 C 
ATOM      3  O   UNL     1       6.923   7.246  16.840  0.00  0.00    +0.000 OA
BRANCH   2   7
ATOM      4  C   UNL     1       5.956   3.805  13.284  0.00  0.00    +0.000 A 
ATOM      5  C   UNL     1       5.104   3.855  14.390  0.00  0.00    +0.000 A 
ATOM      6  C   UNL     1       5.481   4.532  15.554  0.00  0.00    +0.000 A 
ATOM      7  C   UNL     1       6.705   5.209  15.610  0.00  0.00    +0.000 A 
ATOM      8  C   UNL     1       7.547   5.192  14.493  0.00  0.00    +0.000 A 
ATOM      9  C   UNL     1       7.162   4.512  13.333  0.00  0.00    +0.000 A 
BRANCH   4  10
ATOM     10  N   UNL     1       5.501   3.273  12.073  0.00  0.00    +0.000 N 
ATOM     11  H   UNL     1       5.876   2.356  11.856  0.00  0.00    +0.000 HD
ATOM     12  H   UNL     1       5.563   3.913  11.289  0.00  0.00    +0.000 HD
ENDBRANCH   4  10
ENDBRANCH   2   7
ENDBRANCH   1   2
BRANCH   1  13
ATOM     13  C   UNL     1       6.932   5.535  19.112  0.00  0.00    +0.000 C 
BRANCH  13  14
ATOM     14  C   UNL     1       5.597   4.874  19.176  0.00  0.00    +0.000 A 
ATOM     15  N   UNL     1       4.421   5.467  19.268  0.00  0.00    +0.000 NA
ATOM     16  C   UNL     1       3.493   4.459  19.194  0.00  0.00    +0.000 A 
ATOM     17  C   UNL     1       2.093   4.527  19.214  0.00  0.00    +0.000 A 
ATOM     18  C   UNL     1       1.359   3.338  19.118  0.00  0.00    +0.000 A 
ATOM     19  C   UNL     1       2.008   2.106  19.001  0.00  0.00    +0.000 A 
ATOM     20  C   UNL     1       3.405   2.018  18.971  0.00  0.00    +0.000 A 
ATOM     21  C   UNL     1       4.111   3.219  19.070  0.00  0.00    +0.000 A 
ATOM     22  N   UNL     1       5.451   3.510  19.066  0.00  0.00    +0.000 N 
ATOM     23  H   UNL     1       6.209   2.851  18.939  0.00  0.00    +0.000 HD
ENDBRANCH  13  14
ENDBRANCH   1  13
TORSDOF 5
ENDMDL
MODEL 3
REMARK VINA RESULT:      -7.3      2.805      6.193
REMARK  Name = 
REMARK  5 active torsions:
REMARK  status: ('A' for Active; 'I' for Inactive)
REMARK    1  A    between atoms: N_1  and  C_2
REMARK    2  A    between atoms: C_5  and  C_6
REMARK    3  A    between atoms: C_6  and  O_8
REMARK    4  A    between atoms: O_8  and  C_9
REMARK    5  A    between atoms: C_9  and  C_10
REMARK                            x       y       z     vdW  Elec       q    Type
REMARK                         _______ _______ _______ _____ _____    ______ ____
ROOT
ATOM      1  O   UNL     1       2.428   2.308  17.478  0.00  0.00    +0.000 OA
ENDROOT
BRANCH   1   2
ATOM      2  C   UNL     1       1.367   2.729  18.203  0.00  0.00    +0.000 C 
ATOM      3  O   UNL     1       0.341   2.092  18.398  0.00  0.00    +0.000 OA
BRANCH   2   7
ATOM      4  C   UNL     1       2.056   6.564  20.019  0.00  0.00    +0.000 A 
ATOM      5  C   UNL     1       2.157   6.384  18.638  0.00  0.00    +0.000 A 
ATOM      6  C   UNL     1       1.988   5.118  18.068  0.00  0.00    +0.000 A 
ATOM      7  C   UNL     1       1.671   4.019  18.874  0.00  0.00    +0.000 A 
ATOM      8  C   UNL     1       1.534   4.201  20.254  0.00  0.00    +0.000 A 
ATOM      9  C   UNL     1       1.705   5.471  20.816  0.00  0.00    +0.000 A 
BRANCH   4  10
ATOM     10  N   UNL     1       2.059   7.855  20.558  0.00  0.00    +0.000 N 
ATOM     11  H   UNL     1       2.927   8.361  20.420  0.00  0.00    +0.000 HD
ATOM     12  H   UNL     1       1.729   7.906  21.516  0.00  0.00    +0.000 HD
ENDBRANCH   4  10
ENDBRANCH   2   7
ENDBRANCH   1   2
BRANCH   1  13
ATOM     13  C   UNL     1       3.585   1.961  18.252  0.00  0.00    +0.000 C 
BRANCH  13  14
ATOM     14  C   UNL     1       4.581   3.052  18.045  0.00  0.00    +0.000 A 
ATOM     15  N   UNL     1       4.841   3.685  16.916  0.00  0.00    +0.000 NA
ATOM     16  C   UNL     1       5.748   4.662  17.242  0.00  0.00    +0.000 A 
ATOM     17  C   UNL     1       6.343   5.639  16.431  0.00  0.00    +0.000 A 
ATOM     18  C   UNL     1       7.248   6.536  17.012  0.00  0.00    +0.000 A 
ATOM     19  C   UNL     1       7.551   6.464  18.375  0.00  0.00    +0.000 A 
ATOM     20  C   UNL     1       6.961   5.501  19.202  0.00  0.00    +0.000 A 
ATOM     21  C   UNL     1       6.065   4.618  18.596  0.00  0.00    +0.000 A 
ATOM     22  N   UNL     1       5.311   3.581  19.084  0.00  0.00    +0.000 N 
ATOM     23  H   UNL     1       5.247   3.288  20.050  0.00  0.00    +0.000 HD
ENDBRANCH  13  14
ENDBRANCH   1  13
TORSDOF 5
ENDMDL
MODEL 4
REMARK VINA RESULT:      -7.3      0.723      1.485
REMARK  Name = 
REMARK  5 active torsions:
REMARK  status: ('A' for Active; 'I' for Inactive)
REMARK    1  A    between atoms: N_1  and  C_2
REMARK    2  A    between atoms: C_5  and  C_6
REMARK    3  A    between atoms: C_6  and  O_8
REMARK    4  A    between atoms: O_8  and  C_9
REMARK    5  A    between atoms: C_9  and  C_10
REMARK                            x       y       z     vdW  Elec       q    Type
REMARK                         _______ _______ _______ _____ _____    ______ ____
ROOT
ATOM      1  O   UNL     1       7.167   5.086  17.861  0.00  0.00    +0.000 OA
ENDROOT
BRANCH   1   2
ATOM      2  C   UNL     1       6.988   5.956  16.841  0.00  0.00    +0.000 C 
ATOM      3  O   UNL     1       7.217   7.156  16.882  0.00  0.00    +0.000 OA
BRANCH   2   7
ATOM      4  C   UNL     1       6.130   3.738  13.258  0.00  0.00    +0.000 A 
ATOM      5  C   UNL     1       7.244   4.576  13.347  0.00  0.00    +0.000 A 
ATOM      6  C   UNL     1       7.477   5.337  14.497  0.00  0.00    +0.000 A 
ATOM      7  C   UNL     1       6.617   5.233  15.597  0.00  0.00    +0.000 A 
ATOM      8  C   UNL     1       5.520   4.368  15.526  0.00  0.00    +0.000 A 
ATOM      9  C   UNL     1       5.294   3.612  14.371  0.00  0.00    +0.000 A 
BRANCH   4  10
ATOM     10  N   UNL     1       6.000   2.860  12.177  0.00  0.00    +0.000 N 
ATOM     11  H   UNL     1       5.473   2.019  12.386  0.00  0.00    +0.000 HD
ATOM     12  H   UNL     1       6.870   2.663  11.695  0.00  0.00    +0.000 HD
ENDBRANCH   4  10
ENDBRANCH   2   7
ENDBRANCH   1   2
BRANCH   1  13
ATOM     13  C   UNL     1       6.685   5.543  19.132  0.00  0.00    +0.000 C 
BRANCH  13  14
ATOM     14  C   UNL     1       5.339   4.930  19.326  0.00  0.00    +0.000 A 
ATOM     15  N   UNL     1       5.036   3.647  19.263  0.00  0.00    +0.000 NA
ATOM     16  C   UNL     1       3.709   3.565  19.606  0.00  0.00    +0.000 A 
ATOM     17  C   UNL     1       2.883   2.438  19.727  0.00  0.00    +0.000 A 
ATOM     18  C   UNL     1       1.546   2.621  20.099  0.00  0.00    +0.000 A 
ATOM     19  C   UNL     1       1.042   3.901  20.350  0.00  0.00    +0.000 A 
ATOM     20  C   UNL     1       1.854   5.037  20.243  0.00  0.00    +0.000 A 
ATOM     21  C   UNL     1       3.182   4.825  19.868  0.00  0.00    +0.000 A 
ATOM     22  N   UNL     1       4.239   5.678  19.678  0.00  0.00    +0.000 N 
ATOM     23  H   UNL     1       4.240   6.678  19.830  0.00  0.00    +0.000 HD
ENDBRANCH  13  14
ENDBRANCH   1  13
TORSDOF 5
ENDMDL
MODEL 5
REMARK VINA RESULT:      -7.3      2.072      6.033
REMARK  Name = 
REMARK  5 active torsions:
REMARK  status: ('A' for Active; 'I' for Inactive)
REMARK    1  A    between atoms: N_1  and  C_2
REMARK    2  A    between atoms: C_5  and  C_6
REMARK    3  A    between atoms: C_6  and  O_8
REMARK    4  A    between atoms: O_8  and  C_9
REMARK    5  A    between atoms: C_9  and  C_10
REMARK                            x       y       z     vdW  Elec       q    Type
REMARK                         _______ _______ _______ _____ _____    ______ ____
ROOT
ATOM      1  O   UNL     1       5.821   5.923  18.170  0.00  0.00    +0.000 OA
ENDROOT
BRANCH   1   2
ATOM      2  C   UNL     1       4.566   6.244  17.781  0.00  0.00    +0.000 C 
ATOM      3  O   UNL     1       4.276   7.073  16.931  0.00  0.00    +0.000 OA
BRANCH   2   7
ATOM      4  C   UNL     1       1.578   3.823  19.703  0.00  0.00    +0.000 A 
ATOM      5  C   UNL     1       2.407   4.675  20.436  0.00  0.00    +0.000 A 
ATOM      6  C   UNL     1       3.414   5.412  19.804  0.00  0.00    +0.000 A 
ATOM      7  C   UNL     1       3.575   5.338  18.416  0.00  0.00    +0.000 A 
ATOM      8  C   UNL     1       2.724   4.513  17.672  0.00  0.00    +0.000 A 
ATOM      9  C   UNL     1       1.720   3.779  18.313  0.00  0.00    +0.000 A 
BRANCH   4  10
ATOM     10  N   UNL     1       0.472   3.224  20.316  0.00  0.00    +0.000 N 
ATOM     11  H   UNL     1      -0.151   2.747  19.673  0.00  0.00    +0.000 HD
ATOM     12  H   UNL     1      -0.025   3.831  20.959  0.00  0.00    +0.000 HD
ENDBRANCH   4  10
ENDBRANCH   2   7
ENDBRANCH   1   2
BRANCH   1  13
ATOM     13  C   UNL     1       6.245   4.602  17.803  0.00  0.00    +0.000 C 
BRANCH  13  14
ATOM     14  C   UNL     1       6.428   4.608  16.323  0.00  0.00    +0.000 A 
ATOM     15  N   UNL     1       7.309   5.308  15.634  0.00  0.00    +0.000 NA
ATOM     16  C   UNL     1       7.163   4.907  14.330  0.00  0.00    +0.000 A 
ATOM     17  C   UNL     1       7.864   5.308  13.185  0.00  0.00    +0.000 A 
ATOM     18  C   UNL     1       7.522   4.740  11.952  0.00  0.00    +0.000 A 
ATOM     19  C   UNL     1       6.503   3.786  11.862  0.00  0.00    +0.000 A 
ATOM     20  C   UNL     1       5.797   3.367  12.996  0.00  0.00    +0.000 A 
ATOM     21  C   UNL     1       6.158   3.952  14.212  0.00  0.00    +0.000 A 
ATOM     22  N   UNL     1       5.703   3.782  15.495  0.00  0.00    +0.000 N 
ATOM     23  H   UNL     1       5.000   3.121  15.800  0.00  0.00    +0.000 HD
ENDBRANCH  13  14
ENDBRANCH   1  13
TORSDOF 5
ENDMDL
MODEL 6
REMARK VINA RESULT:      -7.3      0.752      1.845
REMARK  Name = 
REMARK  5 active torsions:
REMARK  status: ('A' for Active; 'I' for Inactive)
REMARK    1  A    between atoms: N_1  and  C_2
REMARK    2  A    between atoms: C_5  and  C_6
REMARK    3  A    between atoms: C_6  and  O_8
REMARK    4  A    between atoms: O_8  and  C_9
REMARK    5  A    between atoms: C_9  and  C_10
REMARK                            x       y       z     vdW  Elec       q    Type
REMARK                         _______ _______ _______ _____ _____    ______ ____
ROOT
ATOM      1  O   UNL     1       7.203   5.002  17.882  0.00  0.00    +0.000 OA
ENDROOT
BRANCH   1   2
ATOM      2  C   UNL     1       7.072   5.836  16.825  0.00  0.00    +0.000 C 
ATOM      3  O   UNL     1       7.292   7.038  16.838  0.00  0.00    +0.000 OA
BRANCH   2   7
ATOM      4  C   UNL     1       5.994   3.741  13.229  0.00  0.00    +0.000 A 
ATOM      5  C   UNL     1       5.226   3.637  14.390  0.00  0.00    +0.000 A 
ATOM      6  C   UNL     1       5.621   4.276  15.569  0.00  0.00    +0.000 A 
ATOM      7  C   UNL     1       6.774   5.069  15.588  0.00  0.00    +0.000 A 
ATOM      8  C   UNL     1       7.529   5.205  14.418  0.00  0.00    +0.000 A 
ATOM      9  C   UNL     1       7.126   4.561  13.243  0.00  0.00    +0.000 A 
BRANCH   4  10
ATOM     10  N   UNL     1       5.504   3.240  12.018  0.00  0.00    +0.000 N 
ATOM     11  H   UNL     1       5.949   3.633  11.195  0.00  0.00    +0.000 HD
ATOM     12  H   UNL     1       4.492   3.238  11.948  0.00  0.00    +0.000 HD
ENDBRANCH   4  10
ENDBRANCH   2   7
ENDBRANCH   1   2
BRANCH   1  13
ATOM     13  C   UNL     1       6.697   5.519  19.121  0.00  0.00    +0.000 C 
BRANCH  13  14
ATOM     14  C   UNL     1       5.351   4.910  19.322  0.00  0.00    +0.000 A 
ATOM     15  N   UNL     1       5.045   3.627  19.273  0.00  0.00    +0.000 NA
ATOM     16  C   UNL     1       3.718   3.551  19.617  0.00  0.00    +0.000 A 
ATOM     17  C   UNL     1       2.890   2.427  19.750  0.00  0.00    +0.000 A 
ATOM     18  C   UNL     1       1.553   2.616  20.121  0.00  0.00    +0.000 A 
ATOM     19  C   UNL     1       1.052   3.899  20.359  0.00  0.00    +0.000 A 
ATOM     20  C   UNL     1       1.866   5.032  20.240  0.00  0.00    +0.000 A 
ATOM     21  C   UNL     1       3.194   4.815  19.866  0.00  0.00    +0.000 A 
ATOM     22  N   UNL     1       4.253   5.663  19.667  0.00  0.00    +0.000 N 
ATOM     23  H   UNL     1       4.255   6.665  19.809  0.00  0.00    +0.000 HD
ENDBRANCH  13  14
ENDBRANCH   1  13
TORSDOF 5
ENDMDL
MODEL 7
REMARK VINA RESULT:      -7.3      1.926      6.041
REMARK  Name = 
REMARK  5 active torsions:
REMARK  status: ('A' for Active; 'I' for Inactive)
REMARK    1  A    between atoms: N_1  and  C_2
REMARK    2  A    between atoms: C_5  and  C_6
REMARK    3  A    between atoms: C_6  and  O_8
REMARK    4  A    between atoms: O_8  and  C_9
REMARK    5  A    between atoms: C_9  and  C_10
REMARK                            x       y       z     vdW  Elec       q    Type
REMARK                         _______ _______ _______ _____ _____    ______ ____
ROOT
ATOM      1  O   UNL     1       5.822   6.121  17.966  0.00  0.00    +0.000 OA
ENDROOT
BRANCH   1   2
ATOM      2  C   UNL     1       5.765   5.359  19.082  0.00  0.00    +0.000 C 
ATOM      3  O   UNL     1       6.673   5.209  19.887  0.00  0.00    +0.000 OA
BRANCH   2   7
ATOM      4  C   UNL     1       1.870   3.716  19.868  0.00  0.00    +0.000 A 
ATOM      5  C   UNL     1       2.916   2.919  19.399  0.00  0.00    +0.000 A 
ATOM      6  C   UNL     1       4.161   3.478  19.091  0.00  0.00    +0.000 A 
ATOM      7  C   UNL     1       4.388   4.844  19.293  0.00  0.00    +0.000 A 
ATOM      8  C   UNL     1       3.354   5.641  19.796  0.00  0.00    +0.000 A 
ATOM      9  C   UNL     1       2.113   5.073  20.100  0.00  0.00    +0.000 A 
BRANCH   4  10
ATOM     10  N   UNL     1       0.691   3.123  20.330  0.00  0.00    +0.000 N 
ATOM     11  H   UNL     1      -0.127   3.331  19.767  0.00  0.00    +0.000 HD
ATOM     12  H   UNL     1       0.522   3.252  21.321  0.00  0.00    +0.000 HD
ENDBRANCH   4  10
ENDBRANCH   2   7
ENDBRANCH   1   2
BRANCH   1  13
ATOM     13  C   UNL     1       7.090   6.106  17.293  0.00  0.00    +0.000 C 
BRANCH  13  14
ATOM     14  C   UNL     1       6.878   5.398  15.998  0.00  0.00    +0.000 A 
ATOM     15  N   UNL     1       5.883   4.588  15.689  0.00  0.00    +0.000 NA
ATOM     16  C   UNL     1       6.065   4.267  14.367  0.00  0.00    +0.000 A 
ATOM     17  C   UNL     1       5.286   3.461  13.526  0.00  0.00    +0.000 A 
ATOM     18  C   UNL     1       5.688   3.289  12.195  0.00  0.00    +0.000 A 
ATOM     19  C   UNL     1       6.843   3.913  11.712  0.00  0.00    +0.000 A 
ATOM     20  C   UNL     1       7.629   4.728  12.535  0.00  0.00    +0.000 A 
ATOM     21  C   UNL     1       7.206   4.879  13.857  0.00  0.00    +0.000 A 
ATOM     22  N   UNL     1       7.708   5.590  14.917  0.00  0.00    +0.000 N 
ATOM     23  H   UNL     1       8.512   6.205  14.901  0.00  0.00    +0.000 HD
ENDBRANCH  13  14
ENDBRANCH   1  13
TORSDOF 5
ENDMDL
MODEL 8
REMARK VINA RESULT:      -7.2      2.073      6.013
REMARK  Name = 
REMARK  5 active torsions:
REMARK  status: ('A' for Active; 'I' for Inactive)
REMARK    1  A    between atoms: N_1  and  C_2
REMARK    2  A    between atoms: C_5  and  C_6
REMARK    3  A    between atoms: C_6  and  O_8
REMARK    4  A    between atoms: O_8  and  C_9
REMARK    5  A    between atoms: C_9  and  C_10
REMARK                            x       y       z     vdW  Elec       q    Type
REMARK                         _______ _______ _______ _____ _____    ______ ____
ROOT
ATOM      1  O   UNL     1       5.733   5.981  18.234  0.00  0.00    +0.000 OA
ENDROOT
BRANCH   1   2
ATOM      2  C   UNL     1       4.544   6.246  17.645  0.00  0.00    +0.000 C 
ATOM      3  O   UNL     1       4.392   6.841  16.588  0.00  0.00    +0.000 OA
BRANCH   2   7
ATOM      4  C   UNL     1       1.449   4.095  19.713  0.00  0.00    +0.000 A 
ATOM      5  C   UNL     1       1.675   3.912  18.347  0.00  0.00    +0.000 A 
ATOM      6  C   UNL     1       2.646   4.662  17.676  0.00  0.00    +0.000 A 
ATOM      7  C   UNL     1       3.437   5.578  18.377  0.00  0.00    +0.000 A 
ATOM      8  C   UNL     1       3.239   5.740  19.753  0.00  0.00    +0.000 A 
ATOM      9  C   UNL     1       2.265   4.986  20.415  0.00  0.00    +0.000 A 
BRANCH   4  10
ATOM     10  N   UNL     1       0.598   3.225  20.404  0.00  0.00    +0.000 N 
ATOM     11  H   UNL     1      -0.164   2.858  19.845  0.00  0.00    +0.000 HD
ATOM     12  H   UNL     1       0.286   3.577  21.302  0.00  0.00    +0.000 HD
ENDBRANCH   4  10
ENDBRANCH   2   7
ENDBRANCH   1   2
BRANCH   1  13
ATOM     13  C   UNL     1       6.294   4.702  17.904  0.00  0.00    +0.000 C 
BRANCH  13  14
ATOM     14  C   UNL     1       6.454   4.675  16.421  0.00  0.00    +0.000 A 
ATOM     15  N   UNL     1       7.355   5.322  15.707  0.00  0.00    +0.000 NA
ATOM     16  C   UNL     1       7.169   4.907  14.413  0.00  0.00    +0.000 A 
ATOM     17  C   UNL     1       7.869   5.257  13.250  0.00  0.00    +0.000 A 
ATOM     18  C   UNL     1       7.482   4.684  12.032  0.00  0.00    +0.000 A 
ATOM     19  C   UNL     1       6.419   3.777  11.975  0.00  0.00    +0.000 A 
ATOM     20  C   UNL     1       5.713   3.409  13.127  0.00  0.00    +0.000 A 
ATOM     21  C   UNL     1       6.119   3.997  14.326  0.00  0.00    +0.000 A 
ATOM     22  N   UNL     1       5.678   3.870  15.618  0.00  0.00    +0.000 N 
ATOM     23  H   UNL     1       4.951   3.247  15.946  0.00  0.00    +0.000 HD
ENDBRANCH  13  14
ENDBRANCH   1  13
TORSDOF 5
ENDMDL
MODEL 9
REMARK VINA RESULT:      -7.2      2.011      5.799
REMARK  Name = 
REMARK  5 active torsions:
REMARK  status: ('A' for Active; 'I' for Inactive)
REMARK    1  A    between atoms: N_1  and  C_2
REMARK    2  A    between atoms: C_5  and  C_6
REMARK    3  A    between atoms: C_6  and  O_8
REMARK    4  A    between atoms: O_8  and  C_9
REMARK    5  A    between atoms: C_9  and  C_10
REMARK                            x       y       z     vdW  Elec       q    Type
REMARK                         _______ _______ _______ _____ _____    ______ ____
ROOT
ATOM      1  O   UNL     1       5.396   6.063  17.973  0.00  0.00    +0.000 OA
ENDROOT
BRANCH   1   2
ATOM      2  C   UNL     1       5.363   5.077  18.898  0.00  0.00    +0.000 C 
ATOM      3  O   UNL     1       6.133   4.961  19.840  0.00  0.00    +0.000 OA
BRANCH   2   7
ATOM      4  C   UNL     1       1.826   2.652  18.599  0.00  0.00    +0.000 A 
ATOM      5  C   UNL     1       2.875   2.307  19.454  0.00  0.00    +0.000 A 
ATOM      6  C   UNL     1       4.044   3.073  19.496  0.00  0.00    +0.000 A 
ATOM      7  C   UNL     1       4.160   4.226  18.712  0.00  0.00    +0.000 A 
ATOM      8  C   UNL     1       3.098   4.595  17.880  0.00  0.00    +0.000 A 
ATOM      9  C   UNL     1       1.932   3.823  17.843  0.00  0.00    +0.000 A 
BRANCH   4  10
ATOM     10  N   UNL     1       0.602   1.980  18.687  0.00  0.00    +0.000 N 
ATOM     11  H   UNL     1       0.676   0.971  18.620  0.00  0.00    +0.000 HD
ATOM     12  H   UNL     1      -0.123   2.357  18.085  0.00  0.00    +0.000 HD
ENDBRANCH   4  10
ENDBRANCH   2   7
ENDBRANCH   1   2
BRANCH   1  13
ATOM     13  C   UNL     1       6.669   6.246  17.335  0.00  0.00    +0.000 C 
BRANCH  13  14
ATOM     14  C   UNL     1       6.602   5.522  16.033  0.00  0.00    +0.000 A 
ATOM     15  N   UNL     1       5.617   4.758  15.599  0.00  0.00    +0.000 NA
ATOM     16  C   UNL     1       5.964   4.400  14.320  0.00  0.00    +0.000 A 
ATOM     17  C   UNL     1       5.267   3.617  13.389  0.00  0.00    +0.000 A 
ATOM     18  C   UNL     1       5.842   3.397  12.131  0.00  0.00    +0.000 A 
ATOM     19  C   UNL     1       7.084   3.949  11.806  0.00  0.00    +0.000 A 
ATOM     20  C   UNL     1       7.791   4.740  12.719  0.00  0.00    +0.000 A 
ATOM     21  C   UNL     1       7.196   4.941  13.967  0.00  0.00    +0.000 A 
ATOM     22  N   UNL     1       7.583   5.648  15.076  0.00  0.00    +0.000 N 
ATOM     23  H   UNL     1       8.413   6.220  15.165  0.00  0.00    +0.000 HD
ENDBRANCH  13  14
ENDBRANCH   1  13
TORSDOF 5
ENDMDL
