MODEL 1
REMARK VINA RESULT:      -8.1      0.000      0.000
REMARK  Name = 
REMARK  12 active torsions:
REMARK  status: ('A' for Active; 'I' for Inactive)
REMARK    1  A    between atoms: C_1  and  O_2
REMARK    2  A    between atoms: O_2  and  C_3
REMARK    3  A    between atoms: C_3  and  C_5
REMARK    4  A    between atoms: C_5  and  C_6
REMARK    5  A    between atoms: C_5  and  N_10
REMARK    6  A    between atoms: C_6  and  C_7
REMARK    7  A    between atoms: C_7  and  C_8
REMARK    8  A    between atoms: C_7  and  C_9
REMARK    9  A    between atoms: C_11  and  C_13
REMARK   10  A    between atoms: C_16  and  O_17
REMARK   11  A    between atoms: O_17  and  C_18
REMARK   12  A    between atoms: C_28  and  C_29
REMARK                            x       y       z     vdW  Elec       q    Type
REMARK                         _______ _______ _______ _____ _____    ______ ____
ROOT
ATOM      1  C   UNL     1       3.374   5.794  18.798  0.00  0.00    +0.000 A 
ATOM      2  C   UNL     1       2.715   5.443  19.978  0.00  0.00    +0.000 A 
ATOM      3  C   UNL     1       1.862   6.359  20.617  0.00  0.00    +0.000 A 
ATOM      4  C   UNL     1       1.655   7.631  20.048  0.00  0.00    +0.000 A 
ATOM      5  C   UNL     1       2.240   7.926  18.826  0.00  0.00    +0.000 A 
ATOM      6  C   UNL     1       3.142   7.060  18.222  0.00  0.00    +0.000 A 
ENDROOT
BRANCH   1   8
ATOM      7  N   UNL     1       4.776   5.362  16.890  0.00  0.00    +0.000 N 
ATOM      8  C   UNL     1       4.274   4.871  18.064  0.00  0.00    +0.000 C 
ATOM      9  O   UNL     1       4.584   3.786  18.546  0.00  0.00    +0.000 OA
ATOM     10  H   UNL     1       4.590   6.327  16.630  0.00  0.00    +0.000 HD
BRANCH   7  11
ATOM     11  C   UNL     1       5.799   4.648  16.118  0.00  0.00    +0.000 C 
BRANCH  11  12
ATOM     12  C   UNL     1       7.167   5.119  16.644  0.00  0.00    +0.000 C 
ATOM     13  O   UNL     1       7.956   4.359  17.203  0.00  0.00    +0.000 OA
BRANCH  12  15
ATOM     14  C   UNL     1       7.603   7.232  17.567  0.00  0.00    +0.000 C 
ATOM     15  O   UNL     1       7.355   6.431  16.406  0.00  0.00    +0.000 OA
ENDBRANCH  12  15
ENDBRANCH  11  12
BRANCH  11  16
ATOM     16  C   UNL     1       5.643   4.952  14.621  0.00  0.00    +0.000 C 
BRANCH  16  17
ATOM     17  C   UNL     1       6.574   4.155  13.683  0.00  0.00    +0.000 C 
ATOM     18  C   UNL     1       5.809   3.428  12.576  0.00  0.00    +0.000 C 
ATOM     19  C   UNL     1       7.621   5.080  13.054  0.00  0.00    +0.000 C 
ENDBRANCH  16  17
ENDBRANCH  11  16
ENDBRANCH   7  11
ENDBRANCH   1   8
BRANCH   4  20
ATOM     20  O   UNL     1       0.756   8.473  20.653  0.00  0.00    +0.000 OA
BRANCH  20  21
ATOM     21  C   UNL     1       0.607   9.768  20.167  0.00  0.00    +0.000 A 
ATOM     22  N   UNL     1       1.579  10.693  20.139  0.00  0.00    +0.000 NA
ATOM     23  C   UNL     1       1.159  11.917  19.758  0.00  0.00    +0.000 A 
ATOM     24  C   UNL     1       1.777  12.638  18.752  0.00  0.00    +0.000 A 
ATOM     25  C   UNL     1       1.221  13.828  18.274  0.00  0.00    +0.000 A 
ATOM     26  C   UNL     1       0.192  14.415  19.002  0.00  0.00    +0.000 A 
ATOM     27 CL   UNL     1      -0.302  16.021  18.652  0.00  0.00    +0.000 Cl
ATOM     28  C   UNL     1      -0.480  13.656  19.943  0.00  0.00    +0.000 A 
ATOM     29  C   UNL     1      -0.164  12.308  19.986  0.00  0.00    +0.000 A 
ATOM     30  N   UNL     1      -1.086  11.324  19.859  0.00  0.00    +0.000 NA
ATOM     31  C   UNL     1      -0.579  10.091  19.545  0.00  0.00    +0.000 A 
ATOM     32  C   UNL     1      -0.403   9.857  18.001  0.00  0.00    +0.000 C 
ENDBRANCH  20  21
ENDBRANCH   4  20
TORSDOF 8
ENDMDL
MODEL 2
REMARK VINA RESULT:      -7.9      2.377      3.845
REMARK  Name = 
REMARK  12 active torsions:
REMARK  status: ('A' for Active; 'I' for Inactive)
REMARK    1  A    between atoms: C_1  and  O_2
REMARK    2  A    between atoms: O_2  and  C_3
REMARK    3  A    between atoms: C_3  and  C_5
REMARK    4  A    between atoms: C_5  and  C_6
REMARK    5  A    between atoms: C_5  and  N_10
REMARK    6  A    between atoms: C_6  and  C_7
REMARK    7  A    between atoms: C_7  and  C_8
REMARK    8  A    between atoms: C_7  and  C_9
REMARK    9  A    between atoms: C_11  and  C_13
REMARK   10  A    between atoms: C_16  and  O_17
REMARK   11  A    between atoms: O_17  and  C_18
REMARK   12  A    between atoms: C_28  and  C_29
REMARK                            x       y       z     vdW  Elec       q    Type
REMARK                         _______ _______ _______ _____ _____    ______ ____
ROOT
ATOM      1  C   UNL     1       2.371   7.360  19.118  0.00  0.00    +0.000 A 
ATOM      2  C   UNL     1       1.706   7.782  20.271  0.00  0.00    +0.000 A 
ATOM      3  C   UNL     1       1.054   9.026  20.303  0.00  0.00    +0.000 A 
ATOM      4  C   UNL     1       1.055   9.843  19.155  0.00  0.00    +0.000 A 
ATOM      5  C   UNL     1       1.636   9.365  17.989  0.00  0.00    +0.000 A 
ATOM      6  C   UNL     1       2.346   8.172  17.965  0.00  0.00    +0.000 A 
ENDROOT
BRANCH   1   8
ATOM      7  N   UNL     1       3.157   5.548  17.743  0.00  0.00    +0.000 N 
ATOM      8  C   UNL     1       3.064   6.054  19.010  0.00  0.00    +0.000 C 
ATOM      9  O   UNL     1       3.572   5.533  19.999  0.00  0.00    +0.000 OA
ATOM     10  H   UNL     1       2.842   6.109  16.955  0.00  0.00    +0.000 HD
BRANCH   7  11
ATOM     11  C   UNL     1       3.942   4.348  17.435  0.00  0.00    +0.000 C 
BRANCH  11  12
ATOM     12  C   UNL     1       4.967   4.747  16.357  0.00  0.00    +0.000 C 
ATOM     13  O   UNL     1       5.166   5.919  16.039  0.00  0.00    +0.000 OA
BRANCH  12  15
ATOM     14  C   UNL     1       6.234   3.876  14.584  0.00  0.00    +0.000 C 
ATOM     15  O   UNL     1       5.579   3.666  15.841  0.00  0.00    +0.000 OA
ENDBRANCH  12  15
ENDBRANCH  11  12
BRANCH  11  16
ATOM     16  C   UNL     1       3.021   3.224  16.938  0.00  0.00    +0.000 C 
BRANCH  16  17
ATOM     17  C   UNL     1       2.577   2.210  18.015  0.00  0.00    +0.000 C 
ATOM     18  C   UNL     1       3.591   2.082  19.153  0.00  0.00    +0.000 C 
ATOM     19  C   UNL     1       1.213   2.604  18.592  0.00  0.00    +0.000 C 
ENDBRANCH  16  17
ENDBRANCH  11  16
ENDBRANCH   7  11
ENDBRANCH   1   8
BRANCH   4  20
ATOM     20  O   UNL     1       0.344  11.016  19.193  0.00  0.00    +0.000 OA
BRANCH  20  21
ATOM     21  C   UNL     1       1.017  12.208  19.437  0.00  0.00    +0.000 A 
ATOM     22  N   UNL     1       1.527  13.009  18.488  0.00  0.00    +0.000 NA
ATOM     23  C   UNL     1       2.261  14.033  18.973  0.00  0.00    +0.000 A 
ATOM     24  C   UNL     1       2.045  15.347  18.599  0.00  0.00    +0.000 A 
ATOM     25  C   UNL     1       2.712  16.396  19.238  0.00  0.00    +0.000 A 
ATOM     26  C   UNL     1       3.789  16.087  20.062  0.00  0.00    +0.000 A 
ATOM     27 CL   UNL     1       4.838  17.332  20.607  0.00  0.00    +0.000 Cl
ATOM     28  C   UNL     1       3.943  14.786  20.504  0.00  0.00    +0.000 A 
ATOM     29  C   UNL     1       2.916  13.908  20.201  0.00  0.00    +0.000 A 
ATOM     30  N   UNL     1       2.253  13.188  21.138  0.00  0.00    +0.000 NA
ATOM     31  C   UNL     1       1.049  12.678  20.731  0.00  0.00    +0.000 A 
ATOM     32  C   UNL     1      -0.154  13.671  20.924  0.00  0.00    +0.000 C 
ENDBRANCH  20  21
ENDBRANCH   4  20
TORSDOF 8
ENDMDL
MODEL 3
REMARK VINA RESULT:      -7.9      2.177      3.590
REMARK  Name = 
REMARK  12 active torsions:
REMARK  status: ('A' for Active; 'I' for Inactive)
REMARK    1  A    between atoms: C_1  and  O_2
REMARK    2  A    between atoms: O_2  and  C_3
REMARK    3  A    between atoms: C_3  and  C_5
REMARK    4  A    between atoms: C_5  and  C_6
REMARK    5  A    between atoms: C_5  and  N_10
REMARK    6  A    between atoms: C_6  and  C_7
REMARK    7  A    between atoms: C_7  and  C_8
REMARK    8  A    between atoms: C_7  and  C_9
REMARK    9  A    between atoms: C_11  and  C_13
REMARK   10  A    between atoms: C_16  and  O_17
REMARK   11  A    between atoms: O_17  and  C_18
REMARK   12  A    between atoms: C_28  and  C_29
REMARK                            x       y       z     vdW  Elec       q    Type
REMARK                         _______ _______ _______ _____ _____    ______ ____
ROOT
ATOM      1  C   UNL     1       2.684   7.699  18.575  0.00  0.00    +0.000 A 
ATOM      2  C   UNL     1       2.124   7.641  19.853  0.00  0.00    +0.000 A 
ATOM      3  C   UNL     1       1.166   8.586  20.255  0.00  0.00    +0.000 A 
ATOM      4  C   UNL     1       0.754   9.587  19.352  0.00  0.00    +0.000 A 
ATOM      5  C   UNL     1       1.248   9.570  18.056  0.00  0.00    +0.000 A 
ATOM      6  C   UNL     1       2.249   8.688  17.669  0.00  0.00    +0.000 A 
ENDROOT
BRANCH   1   8
ATOM      7  N   UNL     1       4.063   5.769  18.986  0.00  0.00    +0.000 N 
ATOM      8  C   UNL     1       3.687   6.724  18.082  0.00  0.00    +0.000 C 
ATOM      9  O   UNL     1       4.069   6.757  16.916  0.00  0.00    +0.000 OA
ATOM     10  H   UNL     1       3.592   5.718  19.886  0.00  0.00    +0.000 HD
BRANCH   7  11
ATOM     11  C   UNL     1       4.924   4.639  18.619  0.00  0.00    +0.000 C 
BRANCH  11  12
ATOM     12  C   UNL     1       4.282   3.374  19.218  0.00  0.00    +0.000 C 
ATOM     13  O   UNL     1       4.914   2.581  19.913  0.00  0.00    +0.000 OA
BRANCH  12  15
ATOM     14  C   UNL     1       2.307   2.116  19.371  0.00  0.00    +0.000 C 
ATOM     15  O   UNL     1       2.983   3.278  18.877  0.00  0.00    +0.000 OA
ENDBRANCH  12  15
ENDBRANCH  11  12
BRANCH  11  16
ATOM     16  C   UNL     1       6.343   4.855  19.164  0.00  0.00    +0.000 C 
BRANCH  16  17
ATOM     17  C   UNL     1       7.409   5.215  18.107  0.00  0.00    +0.000 C 
ATOM     18  C   UNL     1       7.125   4.574  16.747  0.00  0.00    +0.000 C 
ATOM     19  C   UNL     1       7.509   6.735  17.941  0.00  0.00    +0.000 C 
ENDBRANCH  16  17
ENDBRANCH  11  16
ENDBRANCH   7  11
ENDBRANCH   1   8
BRANCH   4  20
ATOM     20  O   UNL     1      -0.240  10.447  19.747  0.00  0.00    +0.000 OA
BRANCH  20  21
ATOM     21  C   UNL     1       0.057  11.796  19.909  0.00  0.00    +0.000 A 
ATOM     22  N   UNL     1      -0.208  12.753  19.007  0.00  0.00    +0.000 NA
ATOM     23  C   UNL     1       0.302  13.962  19.324  0.00  0.00    +0.000 A 
ATOM     24  C   UNL     1      -0.462  15.115  19.335  0.00  0.00    +0.000 A 
ATOM     25  C   UNL     1       0.058  16.317  19.822  0.00  0.00    +0.000 A 
ATOM     26  C   UNL     1       1.428  16.403  20.041  0.00  0.00    +0.000 A 
ATOM     27 CL   UNL     1       2.159  17.930  20.322  0.00  0.00    +0.000 Cl
ATOM     28  C   UNL     1       2.168  15.237  20.119  0.00  0.00    +0.000 A 
ATOM     29  C   UNL     1       1.452  14.053  20.114  0.00  0.00    +0.000 A 
ATOM     30  N   UNL     1       1.559  13.115  21.085  0.00  0.00    +0.000 NA
ATOM     31  C   UNL     1       0.533  12.209  21.133  0.00  0.00    +0.000 A 
ATOM     32  C   UNL     1      -0.688  12.686  22.000  0.00  0.00    +0.000 C 
ENDBRANCH  20  21
ENDBRANCH   4  20
TORSDOF 8
ENDMDL
MODEL 4
REMARK VINA RESULT:      -7.8      0.968      1.782
REMARK  Name = 
REMARK  12 active torsions:
REMARK  status: ('A' for Active; 'I' for Inactive)
REMARK    1  A    between atoms: C_1  and  O_2
REMARK    2  A    between atoms: O_2  and  C_3
REMARK    3  A    between atoms: C_3  and  C_5
REMARK    4  A    between atoms: C_5  and  C_6
REMARK    5  A    between atoms: C_5  and  N_10
REMARK    6  A    between atoms: C_6  and  C_7
REMARK    7  A    between atoms: C_7  and  C_8
REMARK    8  A    between atoms: C_7  and  C_9
REMARK    9  A    between atoms: C_11  and  C_13
REMARK   10  A    between atoms: C_16  and  O_17
REMARK   11  A    between atoms: O_17  and  C_18
REMARK   12  A    between atoms: C_28  and  C_29
REMARK                            x       y       z     vdW  Elec       q    Type
REMARK                         _______ _______ _______ _____ _____    ______ ____
ROOT
ATOM      1  C   UNL     1       3.195   5.997  18.808  0.00  0.00    +0.000 A 
ATOM      2  C   UNL     1       2.936   7.308  18.406  0.00  0.00    +0.000 A 
ATOM      3  C   UNL     1       2.019   8.103  19.115  0.00  0.00    +0.000 A 
ATOM      4  C   UNL     1       1.374   7.576  20.252  0.00  0.00    +0.000 A 
ATOM      5  C   UNL     1       1.717   6.306  20.693  0.00  0.00    +0.000 A 
ATOM      6  C   UNL     1       2.565   5.485  19.961  0.00  0.00    +0.000 A 
ENDROOT
BRANCH   1   8
ATOM      7  N   UNL     1       4.730   5.638  16.990  0.00  0.00    +0.000 N 
ATOM      8  C   UNL     1       4.162   5.110  18.116  0.00  0.00    +0.000 C 
ATOM      9  O   UNL     1       4.463   4.020  18.594  0.00  0.00    +0.000 OA
ATOM     10  H   UNL     1       4.541   6.605  16.739  0.00  0.00    +0.000 HD
BRANCH   7  11
ATOM     11  C   UNL     1       5.818   4.963  16.272  0.00  0.00    +0.000 C 
BRANCH  11  12
ATOM     12  C   UNL     1       7.137   5.573  16.784  0.00  0.00    +0.000 C 
ATOM     13  O   UNL     1       7.622   6.594  16.299  0.00  0.00    +0.000 OA
BRANCH  12  15
ATOM     14  C   UNL     1       7.775   5.539  19.041  0.00  0.00    +0.000 C 
ATOM     15  O   UNL     1       7.650   4.847  17.794  0.00  0.00    +0.000 OA
ENDBRANCH  12  15
ENDBRANCH  11  12
BRANCH  11  16
ATOM     16  C   UNL     1       5.661   5.167  14.759  0.00  0.00    +0.000 C 
BRANCH  16  17
ATOM     17  C   UNL     1       6.518   4.236  13.875  0.00  0.00    +0.000 C 
ATOM     18  C   UNL     1       5.686   3.487  12.832  0.00  0.00    +0.000 C 
ATOM     19  C   UNL     1       7.620   5.032  13.167  0.00  0.00    +0.000 C 
ENDBRANCH  16  17
ENDBRANCH  11  16
ENDBRANCH   7  11
ENDBRANCH   1   8
BRANCH   4  20
ATOM     20  O   UNL     1       0.544   8.402  20.968  0.00  0.00    +0.000 OA
BRANCH  20  21
ATOM     21  C   UNL     1       0.456   9.744  20.616  0.00  0.00    +0.000 A 
ATOM     22  N   UNL     1       0.003  10.199  19.437  0.00  0.00    +0.000 NA
ATOM     23  C   UNL     1       0.149  11.531  19.273  0.00  0.00    +0.000 A 
ATOM     24  C   UNL     1      -0.896  12.354  18.892  0.00  0.00    +0.000 A 
ATOM     25  C   UNL     1      -0.753  13.744  18.886  0.00  0.00    +0.000 A 
ATOM     26  C   UNL     1       0.526  14.275  19.007  0.00  0.00    +0.000 A 
ATOM     27 CL   UNL     1       0.800  15.938  18.683  0.00  0.00    +0.000 Cl
ATOM     28  C   UNL     1       1.546  13.467  19.475  0.00  0.00    +0.000 A 
ATOM     29  C   UNL     1       1.177  12.212  19.930  0.00  0.00    +0.000 A 
ATOM     30  N   UNL     1       1.468  11.756  21.172  0.00  0.00    +0.000 NA
ATOM     31  C   UNL     1       0.722  10.685  21.586  0.00  0.00    +0.000 A 
ATOM     32  C   UNL     1      -0.637  11.088  22.265  0.00  0.00    +0.000 C 
ENDBRANCH  20  21
ENDBRANCH   4  20
TORSDOF 8
ENDMDL
MODEL 5
REMARK VINA RESULT:      -7.8      2.279      3.397
REMARK  Name = 
REMARK  12 active torsions:
REMARK  status: ('A' for Active; 'I' for Inactive)
REMARK    1  A    between atoms: C_1  and  O_2
REMARK    2  A    between atoms: O_2  and  C_3
REMARK    3  A    between atoms: C_3  and  C_5
REMARK    4  A    between atoms: C_5  and  C_6
REMARK    5  A    between atoms: C_5  and  N_10
REMARK    6  A    between atoms: C_6  and  C_7
REMARK    7  A    between atoms: C_7  and  C_8
REMARK    8  A    between atoms: C_7  and  C_9
REMARK    9  A    between atoms: C_11  and  C_13
REMARK   10  A    between atoms: C_16  and  O_17
REMARK   11  A    between atoms: O_17  and  C_18
REMARK   12  A    between atoms: C_28  and  C_29
REMARK                            x       y       z     vdW  Elec       q    Type
REMARK                         _______ _______ _______ _____ _____    ______ ____
ROOT
ATOM      1  C   UNL     1       2.331   7.340  19.349  0.00  0.00    +0.000 A 
ATOM      2  C   UNL     1       2.359   8.011  18.124  0.00  0.00    +0.000 A 
ATOM      3  C   UNL     1       1.658   9.217  17.957  0.00  0.00    +0.000 A 
ATOM      4  C   UNL     1       0.942   9.763  19.041  0.00  0.00    +0.000 A 
ATOM      5  C   UNL     1       1.007   9.134  20.276  0.00  0.00    +0.000 A 
ATOM      6  C   UNL     1       1.633   7.905  20.436  0.00  0.00    +0.000 A 
ENDROOT
BRANCH   1   8
ATOM      7  N   UNL     1       4.305   5.999  19.036  0.00  0.00    +0.000 N 
ATOM      8  C   UNL     1       3.060   6.073  19.598  0.00  0.00    +0.000 C 
ATOM      9  O   UNL     1       2.581   5.209  20.327  0.00  0.00    +0.000 OA
ATOM     10  H   UNL     1       4.694   6.815  18.570  0.00  0.00    +0.000 HD
BRANCH   7  11
ATOM     11  C   UNL     1       5.222   4.887  19.310  0.00  0.00    +0.000 C 
BRANCH  11  12
ATOM     12  C   UNL     1       6.652   5.452  19.214  0.00  0.00    +0.000 C 
ATOM     13  O   UNL     1       7.413   5.486  20.180  0.00  0.00    +0.000 OA
BRANCH  12  15
ATOM     14  C   UNL     1       7.586   7.149  17.890  0.00  0.00    +0.000 C 
ATOM     15  O   UNL     1       6.924   5.881  17.968  0.00  0.00    +0.000 OA
ENDBRANCH  12  15
ENDBRANCH  11  12
BRANCH  11  16
ATOM     16  C   UNL     1       5.002   3.756  18.295  0.00  0.00    +0.000 C 
BRANCH  16  17
ATOM     17  C   UNL     1       4.147   4.130  17.065  0.00  0.00    +0.000 C 
ATOM     18  C   UNL     1       4.916   3.981  15.751  0.00  0.00    +0.000 C 
ATOM     19  C   UNL     1       2.880   3.270  17.011  0.00  0.00    +0.000 C 
ENDBRANCH  16  17
ENDBRANCH  11  16
ENDBRANCH   7  11
ENDBRANCH   1   8
BRANCH   4  20
ATOM     20  O   UNL     1       0.334  10.981  18.869  0.00  0.00    +0.000 OA
BRANCH  20  21
ATOM     21  C   UNL     1       1.028  12.139  19.205  0.00  0.00    +0.000 A 
ATOM     22  N   UNL     1       1.784  12.853  18.356  0.00  0.00    +0.000 NA
ATOM     23  C   UNL     1       2.474  13.851  18.946  0.00  0.00    +0.000 A 
ATOM     24  C   UNL     1       2.440  15.155  18.485  0.00  0.00    +0.000 A 
ATOM     25  C   UNL     1       3.036  16.190  19.210  0.00  0.00    +0.000 A 
ATOM     26  C   UNL     1       3.890  15.857  20.255  0.00  0.00    +0.000 A 
ATOM     27 CL   UNL     1       4.892  17.058  20.962  0.00  0.00    +0.000 Cl
ATOM     28  C   UNL     1       3.851  14.574  20.769  0.00  0.00    +0.000 A 
ATOM     29  C   UNL     1       2.848  13.749  20.289  0.00  0.00    +0.000 A 
ATOM     30  N   UNL     1       1.951  13.125  21.090  0.00  0.00    +0.000 NA
ATOM     31  C   UNL     1       0.824  12.673  20.458  0.00  0.00    +0.000 A 
ATOM     32  C   UNL     1      -0.315  13.751  20.352  0.00  0.00    +0.000 C 
ENDBRANCH  20  21
ENDBRANCH   4  20
TORSDOF 8
ENDMDL
MODEL 6
REMARK VINA RESULT:      -7.8      2.518      3.949
REMARK  Name = 
REMARK  12 active torsions:
REMARK  status: ('A' for Active; 'I' for Inactive)
REMARK    1  A    between atoms: C_1  and  O_2
REMARK    2  A    between atoms: O_2  and  C_3
REMARK    3  A    between atoms: C_3  and  C_5
REMARK    4  A    between atoms: C_5  and  C_6
REMARK    5  A    between atoms: C_5  and  N_10
REMARK    6  A    between atoms: C_6  and  C_7
REMARK    7  A    between atoms: C_7  and  C_8
REMARK    8  A    between atoms: C_7  and  C_9
REMARK    9  A    between atoms: C_11  and  C_13
REMARK   10  A    between atoms: C_16  and  O_17
REMARK   11  A    between atoms: O_17  and  C_18
REMARK   12  A    between atoms: C_28  and  C_29
REMARK                            x       y       z     vdW  Elec       q    Type
REMARK                         _______ _______ _______ _____ _____    ______ ____
ROOT
ATOM      1  C   UNL     1       1.903   7.609  19.797  0.00  0.00    +0.000 A 
ATOM      2  C   UNL     1       1.241   8.172  20.890  0.00  0.00    +0.000 A 
ATOM      3  C   UNL     1       0.737   9.481  20.820  0.00  0.00    +0.000 A 
ATOM      4  C   UNL     1       0.881  10.221  19.630  0.00  0.00    +0.000 A 
ATOM      5  C   UNL     1       1.453   9.611  18.523  0.00  0.00    +0.000 A 
ATOM      6  C   UNL     1       2.022   8.346  18.600  0.00  0.00    +0.000 A 
ENDROOT
BRANCH   1   8
ATOM      7  N   UNL     1       3.197   5.900  18.703  0.00  0.00    +0.000 N 
ATOM      8  C   UNL     1       2.445   6.228  19.797  0.00  0.00    +0.000 C 
ATOM      9  O   UNL     1       2.274   5.491  20.763  0.00  0.00    +0.000 OA
ATOM     10  H   UNL     1       3.416   6.613  18.013  0.00  0.00    +0.000 HD
BRANCH   7  11
ATOM     11  C   UNL     1       3.934   4.635  18.612  0.00  0.00    +0.000 C 
BRANCH  11  12
ATOM     12  C   UNL     1       5.430   4.993  18.545  0.00  0.00    +0.000 C 
ATOM     13  O   UNL     1       6.301   4.282  19.045  0.00  0.00    +0.000 OA
BRANCH  12  15
ATOM     14  C   UNL     1       6.463   6.058  16.726  0.00  0.00    +0.000 C 
ATOM     15  O   UNL     1       5.626   6.149  17.885  0.00  0.00    +0.000 OA
ENDBRANCH  12  15
ENDBRANCH  11  12
BRANCH  11  16
ATOM     16  C   UNL     1       3.493   3.852  17.366  0.00  0.00    +0.000 C 
BRANCH  16  17
ATOM     17  C   UNL     1       2.715   2.548  17.647  0.00  0.00    +0.000 C 
ATOM     18  C   UNL     1       3.530   1.544  18.464  0.00  0.00    +0.000 C 
ATOM     19  C   UNL     1       1.404   2.853  18.379  0.00  0.00    +0.000 C 
ENDBRANCH  16  17
ENDBRANCH  11  16
ENDBRANCH   7  11
ENDBRANCH   1   8
BRANCH   4  20
ATOM     20  O   UNL     1       0.309  11.467  19.567  0.00  0.00    +0.000 OA
BRANCH  20  21
ATOM     21  C   UNL     1       1.126  12.591  19.627  0.00  0.00    +0.000 A 
ATOM     22  N   UNL     1       1.547  13.290  18.561  0.00  0.00    +0.000 NA
ATOM     23  C   UNL     1       2.447  14.251  18.858  0.00  0.00    +0.000 A 
ATOM     24  C   UNL     1       2.300  15.563  18.444  0.00  0.00    +0.000 A 
ATOM     25  C   UNL     1       3.163  16.563  18.902  0.00  0.00    +0.000 A 
ATOM     26  C   UNL     1       4.326  16.180  19.560  0.00  0.00    +0.000 A 
ATOM     27 CL   UNL     1       5.566  17.329  19.853  0.00  0.00    +0.000 Cl
ATOM     28  C   UNL     1       4.424  14.890  20.051  0.00  0.00    +0.000 A 
ATOM     29  C   UNL     1       3.281  14.113  19.971  0.00  0.00    +0.000 A 
ATOM     30  N   UNL     1       2.715  13.510  21.044  0.00  0.00    +0.000 NA
ATOM     31  C   UNL     1       1.417  13.112  20.868  0.00  0.00    +0.000 A 
ATOM     32  C   UNL     1       0.365  14.234  21.190  0.00  0.00    +0.000 C 
ENDBRANCH  20  21
ENDBRANCH   4  20
TORSDOF 8
ENDMDL
MODEL 7
REMARK VINA RESULT:      -7.7      2.516      4.011
REMARK  Name = 
REMARK  12 active torsions:
REMARK  status: ('A' for Active; 'I' for Inactive)
REMARK    1  A    between atoms: C_1  and  O_2
REMARK    2  A    between atoms: O_2  and  C_3
REMARK    3  A    between atoms: C_3  and  C_5
REMARK    4  A    between atoms: C_5  and  C_6
REMARK    5  A    between atoms: C_5  and  N_10
REMARK    6  A    between atoms: C_6  and  C_7
REMARK    7  A    between atoms: C_7  and  C_8
REMARK    8  A    between atoms: C_7  and  C_9
REMARK    9  A    between atoms: C_11  and  C_13
REMARK   10  A    between atoms: C_16  and  O_17
REMARK   11  A    between atoms: O_17  and  C_18
REMARK   12  A    between atoms: C_28  and  C_29
REMARK                            x       y       z     vdW  Elec       q    Type
REMARK                         _______ _______ _______ _____ _____    ______ ____
ROOT
ATOM      1  C   UNL     1       1.941   7.719  19.631  0.00  0.00    +0.000 A 
ATOM      2  C   UNL     1       2.020   8.440  18.438  0.00  0.00    +0.000 A 
ATOM      3  C   UNL     1       1.395   9.693  18.320  0.00  0.00    +0.000 A 
ATOM      4  C   UNL     1       0.703  10.232  19.423  0.00  0.00    +0.000 A 
ATOM      5  C   UNL     1       0.718   9.546  20.629  0.00  0.00    +0.000 A 
ATOM      6  C   UNL     1       1.268   8.276  20.737  0.00  0.00    +0.000 A 
ENDROOT
BRANCH   1   8
ATOM      7  N   UNL     1       3.700   6.178  19.059  0.00  0.00    +0.000 N 
ATOM      8  C   UNL     1       2.590   6.400  19.828  0.00  0.00    +0.000 C 
ATOM      9  O   UNL     1       2.179   5.622  20.683  0.00  0.00    +0.000 OA
ATOM     10  H   UNL     1       4.067   6.929  18.480  0.00  0.00    +0.000 HD
BRANCH   7  11
ATOM     11  C   UNL     1       4.552   4.997  19.237  0.00  0.00    +0.000 C 
BRANCH  11  12
ATOM     12  C   UNL     1       6.007   5.462  19.047  0.00  0.00    +0.000 C 
ATOM     13  O   UNL     1       6.903   5.159  19.834  0.00  0.00    +0.000 OA
BRANCH  12  15
ATOM     14  C   UNL     1       7.182   5.811  17.046  0.00  0.00    +0.000 C 
ATOM     15  O   UNL     1       6.139   6.215  17.940  0.00  0.00    +0.000 OA
ENDBRANCH  12  15
ENDBRANCH  11  12
BRANCH  11  16
ATOM     16  C   UNL     1       4.176   3.914  18.215  0.00  0.00    +0.000 C 
BRANCH  16  17
ATOM     17  C   UNL     1       3.101   2.910  18.682  0.00  0.00    +0.000 C 
ATOM     18  C   UNL     1       1.729   3.189  18.064  0.00  0.00    +0.000 C 
ATOM     19  C   UNL     1       3.525   1.476  18.349  0.00  0.00    +0.000 C 
ENDBRANCH  16  17
ENDBRANCH  11  16
ENDBRANCH   7  11
ENDBRANCH   1   8
BRANCH   4  20
ATOM     20  O   UNL     1       0.170  11.491  19.302  0.00  0.00    +0.000 OA
BRANCH  20  21
ATOM     21  C   UNL     1       1.000  12.596  19.460  0.00  0.00    +0.000 A 
ATOM     22  N   UNL     1       1.493  13.335  18.453  0.00  0.00    +0.000 NA
ATOM     23  C   UNL     1       2.389  14.264  18.845  0.00  0.00    +0.000 A 
ATOM     24  C   UNL     1       2.288  15.596  18.485  0.00  0.00    +0.000 A 
ATOM     25  C   UNL     1       3.139  16.557  19.036  0.00  0.00    +0.000 A 
ATOM     26  C   UNL     1       4.257  16.123  19.739  0.00  0.00    +0.000 A 
ATOM     27 CL   UNL     1       5.498  17.234  20.154  0.00  0.00    +0.000 Cl
ATOM     28  C   UNL     1       4.307  14.810  20.174  0.00  0.00    +0.000 A 
ATOM     29  C   UNL     1       3.158  14.059  19.994  0.00  0.00    +0.000 A 
ATOM     30  N   UNL     1       2.522  13.419  21.005  0.00  0.00    +0.000 NA
ATOM     31  C   UNL     1       1.230  13.054  20.738  0.00  0.00    +0.000 A 
ATOM     32  C   UNL     1       0.179  14.180  21.053  0.00  0.00    +0.000 C 
ENDBRANCH  20  21
ENDBRANCH   4  20
TORSDOF 8
ENDMDL
MODEL 8
REMARK VINA RESULT:      -7.7      2.101      3.377
REMARK  Name = 
REMARK  12 active torsions:
REMARK  status: ('A' for Active; 'I' for Inactive)
REMARK    1  A    between atoms: C_1  and  O_2
REMARK    2  A    between atoms: O_2  and  C_3
REMARK    3  A    between atoms: C_3  and  C_5
REMARK    4  A    between atoms: C_5  and  C_6
REMARK    5  A    between atoms: C_5  and  N_10
REMARK    6  A    between atoms: C_6  and  C_7
REMARK    7  A    between atoms: C_7  and  C_8
REMARK    8  A    between atoms: C_7  and  C_9
REMARK    9  A    between atoms: C_11  and  C_13
REMARK   10  A    between atoms: C_16  and  O_17
REMARK   11  A    between atoms: O_17  and  C_18
REMARK   12  A    between atoms: C_28  and  C_29
REMARK                            x       y       z     vdW  Elec       q    Type
REMARK                         _______ _______ _______ _____ _____    ______ ____
ROOT
ATOM      1  C   UNL     1       2.577   7.735  18.558  0.00  0.00    +0.000 A 
ATOM      2  C   UNL     1       2.018   8.755  17.786  0.00  0.00    +0.000 A 
ATOM      3  C   UNL     1       1.023   9.590  18.322  0.00  0.00    +0.000 A 
ATOM      4  C   UNL     1       0.604   9.408  19.654  0.00  0.00    +0.000 A 
ATOM      5  C   UNL     1       1.239   8.453  20.435  0.00  0.00    +0.000 A 
ATOM      6  C   UNL     1       2.170   7.574  19.899  0.00  0.00    +0.000 A 
ENDROOT
BRANCH   1   8
ATOM      7  N   UNL     1       4.008   5.835  18.925  0.00  0.00    +0.000 N 
ATOM      8  C   UNL     1       3.641   6.829  18.061  0.00  0.00    +0.000 C 
ATOM      9  O   UNL     1       4.081   6.948  16.921  0.00  0.00    +0.000 OA
ATOM     10  H   UNL     1       3.494   5.711  19.794  0.00  0.00    +0.000 HD
BRANCH   7  11
ATOM     11  C   UNL     1       4.931   4.762  18.538  0.00  0.00    +0.000 C 
BRANCH  11  12
ATOM     12  C   UNL     1       4.338   3.446  19.075  0.00  0.00    +0.000 C 
ATOM     13  O   UNL     1       4.941   2.730  19.873  0.00  0.00    +0.000 OA
BRANCH  12  15
ATOM     14  C   UNL     1       2.468   2.030  19.034  0.00  0.00    +0.000 C 
ATOM     15  O   UNL     1       3.117   3.214  18.559  0.00  0.00    +0.000 OA
ENDBRANCH  12  15
ENDBRANCH  11  12
BRANCH  11  16
ATOM     16  C   UNL     1       6.325   5.025  19.124  0.00  0.00    +0.000 C 
BRANCH  16  17
ATOM     17  C   UNL     1       7.432   5.323  18.089  0.00  0.00    +0.000 C 
ATOM     18  C   UNL     1       7.189   4.617  16.753  0.00  0.00    +0.000 C 
ATOM     19  C   UNL     1       7.552   6.832  17.852  0.00  0.00    +0.000 C 
ENDBRANCH  16  17
ENDBRANCH  11  16
ENDBRANCH   7  11
ENDBRANCH   1   8
BRANCH   4  20
ATOM     20  O   UNL     1      -0.313  10.288  20.173  0.00  0.00    +0.000 OA
BRANCH  20  21
ATOM     21  C   UNL     1      -0.109  11.654  20.006  0.00  0.00    +0.000 A 
ATOM     22  N   UNL     1       1.082  12.267  20.093  0.00  0.00    +0.000 NA
ATOM     23  C   UNL     1       1.008  13.614  20.039  0.00  0.00    +0.000 A 
ATOM     24  C   UNL     1       1.772  14.368  19.166  0.00  0.00    +0.000 A 
ATOM     25  C   UNL     1       1.557  15.742  19.024  0.00  0.00    +0.000 A 
ATOM     26  C   UNL     1       0.756  16.384  19.961  0.00  0.00    +0.000 A 
ATOM     27 CL   UNL     1       0.719  18.099  20.030  0.00  0.00    +0.000 Cl
ATOM     28  C   UNL     1      -0.072  15.624  20.768  0.00  0.00    +0.000 A 
ATOM     29  C   UNL     1      -0.144  14.273  20.476  0.00  0.00    +0.000 A 
ATOM     30  N   UNL     1      -1.308  13.628  20.221  0.00  0.00    +0.000 NA
ATOM     31  C   UNL     1      -1.175  12.420  19.591  0.00  0.00    +0.000 A 
ATOM     32  C   UNL     1      -1.120  12.530  18.024  0.00  0.00    +0.000 C 
ENDBRANCH  20  21
ENDBRANCH   4  20
TORSDOF 8
ENDMDL
MODEL 9
REMARK VINA RESULT:      -7.7      2.762      4.164
REMARK  Name = 
REMARK  12 active torsions:
REMARK  status: ('A' for Active; 'I' for Inactive)
REMARK    1  A    between atoms: C_1  and  O_2
REMARK    2  A    between atoms: O_2  and  C_3
REMARK    3  A    between atoms: C_3  and  C_5
REMARK    4  A    between atoms: C_5  and  C_6
REMARK    5  A    between atoms: C_5  and  N_10
REMARK    6  A    between atoms: C_6  and  C_7
REMARK    7  A    between atoms: C_7  and  C_8
REMARK    8  A    between atoms: C_7  and  C_9
REMARK    9  A    between atoms: C_11  and  C_13
REMARK   10  A    between atoms: C_16  and  O_17
REMARK   11  A    between atoms: O_17  and  C_18
REMARK   12  A    between atoms: C_28  and  C_29
REMARK                            x       y       z     vdW  Elec       q    Type
REMARK                         _______ _______ _______ _____ _____    ______ ____
ROOT
ATOM      1  C   UNL     1       2.054   7.389  19.564  0.00  0.00    +0.000 A 
ATOM      2  C   UNL     1       2.199   8.227  18.457  0.00  0.00    +0.000 A 
ATOM      3  C   UNL     1       1.760   9.561  18.510  0.00  0.00    +0.000 A 
ATOM      4  C   UNL     1       1.190  10.059  19.698  0.00  0.00    +0.000 A 
ATOM      5  C   UNL     1       1.143   9.241  20.817  0.00  0.00    +0.000 A 
ATOM      6  C   UNL     1       1.505   7.902  20.757  0.00  0.00    +0.000 A 
ENDROOT
BRANCH   1   8
ATOM      7  N   UNL     1       3.314   5.614  18.535  0.00  0.00    +0.000 N 
ATOM      8  C   UNL     1       2.510   5.978  19.581  0.00  0.00    +0.000 C 
ATOM      9  O   UNL     1       2.231   5.243  20.523  0.00  0.00    +0.000 OA
ATOM     10  H   UNL     1       3.622   6.320  17.872  0.00  0.00    +0.000 HD
BRANCH   7  11
ATOM     11  C   UNL     1       3.978   4.308  18.476  0.00  0.00    +0.000 C 
BRANCH  11  12
ATOM     12  C   UNL     1       5.480   4.578  18.276  0.00  0.00    +0.000 C 
ATOM     13  O   UNL     1       6.259   4.704  19.220  0.00  0.00    +0.000 OA
BRANCH  12  15
ATOM     14  C   UNL     1       6.298   5.918  16.531  0.00  0.00    +0.000 C 
ATOM     15  O   UNL     1       5.793   4.651  16.969  0.00  0.00    +0.000 OA
ENDBRANCH  12  15
ENDBRANCH  11  12
BRANCH  11  16
ATOM     16  C   UNL     1       3.404   3.472  17.323  0.00  0.00    +0.000 C 
BRANCH  16  17
ATOM     17  C   UNL     1       2.718   2.153  17.740  0.00  0.00    +0.000 C 
ATOM     18  C   UNL     1       3.611   1.285  18.629  0.00  0.00    +0.000 C 
ATOM     19  C   UNL     1       1.401   2.440  18.470  0.00  0.00    +0.000 C 
ENDBRANCH  16  17
ENDBRANCH  11  16
ENDBRANCH   7  11
ENDBRANCH   1   8
BRANCH   4  20
ATOM     20  O   UNL     1       0.843  11.386  19.743  0.00  0.00    +0.000 OA
BRANCH  20  21
ATOM     21  C   UNL     1      -0.484  11.747  19.537  0.00  0.00    +0.000 A 
ATOM     22  N   UNL     1      -1.459  11.640  20.453  0.00  0.00    +0.000 NA
ATOM     23  C   UNL     1      -2.691  11.915  19.976  0.00  0.00    +0.000 A 
ATOM     24  C   UNL     1      -3.545  12.816  20.588  0.00  0.00    +0.000 A 
ATOM     25  C   UNL     1      -4.745  13.197  19.982  0.00  0.00    +0.000 A 
ATOM     26  C   UNL     1      -5.196  12.459  18.893  0.00  0.00    +0.000 A 
ATOM     27 CL   UNL     1      -6.800  12.669  18.319  0.00  0.00    +0.000 Cl
ATOM     28  C   UNL     1      -4.309  11.629  18.232  0.00  0.00    +0.000 A 
ATOM     29  C   UNL     1      -2.984  11.707  18.625  0.00  0.00    +0.000 A 
ATOM     30  N   UNL     1      -1.968  11.971  17.768  0.00  0.00    +0.000 NA
ATOM     31  C   UNL     1      -0.804  12.384  18.359  0.00  0.00    +0.000 A 
ATOM     32  C   UNL     1      -0.739  13.935  18.606  0.00  0.00    +0.000 C 
ENDBRANCH  20  21
ENDBRANCH   4  20
TORSDOF 8
ENDMDL
