MODEL 1
REMARK VINA RESULT:      -8.0      0.000      0.000
REMARK  Name = 
REMARK  1 active torsions:
REMARK  status: ('A' for Active; 'I' for Inactive)
REMARK    1  A    between atoms: C_1  and  C_2
REMARK                            x       y       z     vdW  Elec       q    Type
REMARK                         _______ _______ _______ _____ _____    ______ ____
ROOT
ATOM      1  C   UNL     1       6.728   5.553  19.334  0.00  0.00    +0.000 C 
ATOM      2  C   UNL     1       5.383   4.940  19.001  0.00  0.00    +0.000 A 
ATOM      3  N   UNL     1       4.553   4.882  19.999  0.00  0.00    +0.000 NA
ATOM      4  C   UNL     1       3.290   4.328  19.804  0.00  0.00    +0.000 A 
ATOM      5  C   UNL     1       2.419   4.229  20.892  0.00  0.00    +0.000 A 
ATOM      6  C   UNL     1       1.169   3.622  20.750  0.00  0.00    +0.000 A 
ATOM      7  C   UNL     1       0.776   3.116  19.513  0.00  0.00    +0.000 A 
ATOM      8  C   UNL     1       1.628   3.235  18.415  0.00  0.00    +0.000 A 
ATOM      9  C   UNL     1       2.881   3.846  18.568  0.00  0.00    +0.000 A 
ATOM     10  C   UNL     1       3.816   3.973  17.435  0.00  0.00    +0.000 A 
ATOM     11  O   UNL     1       3.416   3.562  16.347  0.00  0.00    +0.000 OA
ATOM     12  N   UNL     1       5.076   4.508  17.722  0.00  0.00    +0.000 N 
ATOM     13  C   UNL     1       6.001   4.557  16.666  0.00  0.00    +0.000 A 
ATOM     14  N   UNL     1       5.636   4.414  15.341  0.00  0.00    +0.000 NA
ATOM     15  N   UNL     1       6.732   4.503  14.606  0.00  0.00    +0.000 NA
ATOM     16  N   UNL     1       7.708   4.669  15.493  0.00  0.00    +0.000 N 
ATOM     17  N   UNL     1       7.331   4.738  16.775  0.00  0.00    +0.000 NA
ATOM     18  H   UNL     1       8.681   4.737  15.208  0.00  0.00    +0.000 HD
ENDROOT
TORSDOF 0
ENDMDL
MODEL 2
REMARK VINA RESULT:      -7.9      1.862      2.277
REMARK  Name = 
REMARK  1 active torsions:
REMARK  status: ('A' for Active; 'I' for Inactive)
REMARK    1  A    between atoms: C_1  and  C_2
REMARK                            x       y       z     vdW  Elec       q    Type
REMARK                         _______ _______ _______ _____ _____    ______ ____
ROOT
ATOM      1  C   UNL     1       3.475   7.408  17.563  0.00  0.00    +0.000 C 
ATOM      2  C   UNL     1       3.518   6.113  18.347  0.00  0.00    +0.000 A 
ATOM      3  N   UNL     1       2.440   5.853  19.022  0.00  0.00    +0.000 NA
ATOM      4  C   UNL     1       2.377   4.689  19.786  0.00  0.00    +0.000 A 
ATOM      5  C   UNL     1       1.230   4.438  20.544  0.00  0.00    +0.000 A 
ATOM      6  C   UNL     1       1.155   3.315  21.371  0.00  0.00    +0.000 A 
ATOM      7  C   UNL     1       2.227   2.427  21.439  0.00  0.00    +0.000 A 
ATOM      8  C   UNL     1       3.365   2.656  20.665  0.00  0.00    +0.000 A 
ATOM      9  C   UNL     1       3.429   3.786  19.838  0.00  0.00    +0.000 A 
ATOM     10  C   UNL     1       4.623   4.070  19.020  0.00  0.00    +0.000 A 
ATOM     11  O   UNL     1       5.528   3.239  19.066  0.00  0.00    +0.000 OA
ATOM     12  N   UNL     1       4.621   5.276  18.310  0.00  0.00    +0.000 N 
ATOM     13  C   UNL     1       5.786   5.593  17.593  0.00  0.00    +0.000 A 
ATOM     14  N   UNL     1       6.765   4.662  17.302  0.00  0.00    +0.000 NA
ATOM     15  N   UNL     1       7.723   5.277  16.627  0.00  0.00    +0.000 NA
ATOM     16  N   UNL     1       7.313   6.540  16.556  0.00  0.00    +0.000 N 
ATOM     17  N   UNL     1       6.120   6.803  17.104  0.00  0.00    +0.000 NA
ATOM     18  H   UNL     1       7.877   7.259  16.111  0.00  0.00    +0.000 HD
ENDROOT
TORSDOF 0
ENDMDL
MODEL 3
REMARK VINA RESULT:      -7.6      1.771      2.809
REMARK  Name = 
REMARK  1 active torsions:
REMARK  status: ('A' for Active; 'I' for Inactive)
REMARK    1  A    between atoms: C_1  and  C_2
REMARK                            x       y       z     vdW  Elec       q    Type
REMARK                         _______ _______ _______ _____ _____    ______ ____
ROOT
ATOM      1  C   UNL     1       5.160   4.053  15.299  0.00  0.00    +0.000 C 
ATOM      2  C   UNL     1       4.515   4.153  16.666  0.00  0.00    +0.000 A 
ATOM      3  N   UNL     1       3.467   3.404  16.827  0.00  0.00    +0.000 NA
ATOM      4  C   UNL     1       2.792   3.428  18.046  0.00  0.00    +0.000 A 
ATOM      5  C   UNL     1       1.639   2.653  18.197  0.00  0.00    +0.000 A 
ATOM      6  C   UNL     1       0.901   2.698  19.381  0.00  0.00    +0.000 A 
ATOM      7  C   UNL     1       1.317   3.515  20.431  0.00  0.00    +0.000 A 
ATOM      8  C   UNL     1       2.480   4.272  20.298  0.00  0.00    +0.000 A 
ATOM      9  C   UNL     1       3.215   4.218  19.105  0.00  0.00    +0.000 A 
ATOM     10  C   UNL     1       4.440   5.018  18.922  0.00  0.00    +0.000 A 
ATOM     11  O   UNL     1       4.805   5.689  19.887  0.00  0.00    +0.000 OA
ATOM     12  N   UNL     1       5.037   4.966  17.659  0.00  0.00    +0.000 N 
ATOM     13  C   UNL     1       6.157   5.788  17.451  0.00  0.00    +0.000 A 
ATOM     14  N   UNL     1       6.863   6.370  18.485  0.00  0.00    +0.000 NA
ATOM     15  N   UNL     1       7.848   7.079  17.958  0.00  0.00    +0.000 NA
ATOM     16  N   UNL     1       7.693   6.927  16.646  0.00  0.00    +0.000 N 
ATOM     17  N   UNL     1       6.692   6.126  16.261  0.00  0.00    +0.000 NA
ATOM     18  H   UNL     1       8.302   7.395  15.980  0.00  0.00    +0.000 HD
ENDROOT
TORSDOF 0
ENDMDL
MODEL 4
REMARK VINA RESULT:      -7.6      1.546      1.607
REMARK  Name = 
REMARK  1 active torsions:
REMARK  status: ('A' for Active; 'I' for Inactive)
REMARK    1  A    between atoms: C_1  and  C_2
REMARK                            x       y       z     vdW  Elec       q    Type
REMARK                         _______ _______ _______ _____ _____    ______ ____
ROOT
ATOM      1  C   UNL     1       4.168   7.448  17.298  0.00  0.00    +0.000 C 
ATOM      2  C   UNL     1       3.773   6.064  17.772  0.00  0.00    +0.000 A 
ATOM      3  N   UNL     1       2.889   6.050  18.723  0.00  0.00    +0.000 NA
ATOM      4  C   UNL     1       2.462   4.828  19.239  0.00  0.00    +0.000 A 
ATOM      5  C   UNL     1       1.544   4.822  20.292  0.00  0.00    +0.000 A 
ATOM      6  C   UNL     1       1.140   3.620  20.877  0.00  0.00    +0.000 A 
ATOM      7  C   UNL     1       1.648   2.410  20.405  0.00  0.00    +0.000 A 
ATOM      8  C   UNL     1       2.544   2.406  19.337  0.00  0.00    +0.000 A 
ATOM      9  C   UNL     1       2.942   3.619  18.757  0.00  0.00    +0.000 A 
ATOM     10  C   UNL     1       3.902   3.654  17.638  0.00  0.00    +0.000 A 
ATOM     11  O   UNL     1       4.290   2.567  17.215  0.00  0.00    +0.000 OA
ATOM     12  N   UNL     1       4.307   4.920  17.202  0.00  0.00    +0.000 N 
ATOM     13  C   UNL     1       5.282   4.963  16.192  0.00  0.00    +0.000 A 
ATOM     14  N   UNL     1       5.606   3.868  15.415  0.00  0.00    +0.000 NA
ATOM     15  N   UNL     1       6.556   4.236  14.570  0.00  0.00    +0.000 NA
ATOM     16  N   UNL     1       6.788   5.510  14.874  0.00  0.00    +0.000 N 
ATOM     17  N   UNL     1       6.025   6.031  15.842  0.00  0.00    +0.000 NA
ATOM     18  H   UNL     1       7.505   6.049  14.397  0.00  0.00    +0.000 HD
ENDROOT
TORSDOF 0
ENDMDL
MODEL 5
REMARK VINA RESULT:      -7.5      2.147      3.197
REMARK  Name = 
REMARK  1 active torsions:
REMARK  status: ('A' for Active; 'I' for Inactive)
REMARK    1  A    between atoms: C_1  and  C_2
REMARK                            x       y       z     vdW  Elec       q    Type
REMARK                         _______ _______ _______ _____ _____    ______ ____
ROOT
ATOM      1  C   UNL     1       5.336   5.431  15.104  0.00  0.00    +0.000 C 
ATOM      2  C   UNL     1       4.968   4.856  16.456  0.00  0.00    +0.000 A 
ATOM      3  N   UNL     1       4.026   3.962  16.426  0.00  0.00    +0.000 NA
ATOM      4  C   UNL     1       3.605   3.375  17.618  0.00  0.00    +0.000 A 
ATOM      5  C   UNL     1       2.561   2.447  17.583  0.00  0.00    +0.000 A 
ATOM      6  C   UNL     1       2.070   1.884  18.762  0.00  0.00    +0.000 A 
ATOM      7  C   UNL     1       2.626   2.240  19.989  0.00  0.00    +0.000 A 
ATOM      8  C   UNL     1       3.686   3.146  20.031  0.00  0.00    +0.000 A 
ATOM      9  C   UNL     1       4.172   3.704  18.840  0.00  0.00    +0.000 A 
ATOM     10  C   UNL     1       5.279   4.679  18.847  0.00  0.00    +0.000 A 
ATOM     11  O   UNL     1       5.779   4.931  19.942  0.00  0.00    +0.000 OA
ATOM     12  N   UNL     1       5.618   5.248  17.615  0.00  0.00    +0.000 N 
ATOM     13  C   UNL     1       6.615   6.237  17.624  0.00  0.00    +0.000 A 
ATOM     14  N   UNL     1       7.469   6.431  18.693  0.00  0.00    +0.000 NA
ATOM     15  N   UNL     1       8.278   7.433  18.389  0.00  0.00    +0.000 NA
ATOM     16  N   UNL     1       7.879   7.821  17.181  0.00  0.00    +0.000 N 
ATOM     17  N   UNL     1       6.880   7.115  16.638  0.00  0.00    +0.000 NA
ATOM     18  H   UNL     1       8.311   8.608  16.705  0.00  0.00    +0.000 HD
ENDROOT
TORSDOF 0
ENDMDL
MODEL 6
REMARK VINA RESULT:      -7.4      2.822      5.395
REMARK  Name = 
REMARK  1 active torsions:
REMARK  status: ('A' for Active; 'I' for Inactive)
REMARK    1  A    between atoms: C_1  and  C_2
REMARK                            x       y       z     vdW  Elec       q    Type
REMARK                         _______ _______ _______ _____ _____    ______ ____
ROOT
ATOM      1  C   UNL     1       2.257   6.700  20.047  0.00  0.00    +0.000 C 
ATOM      2  C   UNL     1       3.121   5.881  19.111  0.00  0.00    +0.000 A 
ATOM      3  N   UNL     1       3.587   6.536  18.091  0.00  0.00    +0.000 NA
ATOM      4  C   UNL     1       4.387   5.873  17.162  0.00  0.00    +0.000 A 
ATOM      5  C   UNL     1       4.847   6.573  16.044  0.00  0.00    +0.000 A 
ATOM      6  C   UNL     1       5.599   5.928  15.060  0.00  0.00    +0.000 A 
ATOM      7  C   UNL     1       5.903   4.574  15.192  0.00  0.00    +0.000 A 
ATOM      8  C   UNL     1       5.470   3.874  16.317  0.00  0.00    +0.000 A 
ATOM      9  C   UNL     1       4.716   4.533  17.300  0.00  0.00    +0.000 A 
ATOM     10  C   UNL     1       4.226   3.820  18.494  0.00  0.00    +0.000 A 
ATOM     11  O   UNL     1       4.556   2.641  18.602  0.00  0.00    +0.000 OA
ATOM     12  N   UNL     1       3.400   4.547  19.359  0.00  0.00    +0.000 N 
ATOM     13  C   UNL     1       2.863   3.854  20.456  0.00  0.00    +0.000 A 
ATOM     14  N   UNL     1       3.349   2.634  20.885  0.00  0.00    +0.000 NA
ATOM     15  N   UNL     1       2.627   2.252  21.926  0.00  0.00    +0.000 NA
ATOM     16  N   UNL     1       1.729   3.221  22.074  0.00  0.00    +0.000 N 
ATOM     17  N   UNL     1       1.829   4.250  21.224  0.00  0.00    +0.000 NA
ATOM     18  H   UNL     1       1.011   3.176  22.792  0.00  0.00    +0.000 HD
ENDROOT
TORSDOF 0
ENDMDL
MODEL 7
REMARK VINA RESULT:      -7.2      3.525      4.711
REMARK  Name = 
REMARK  1 active torsions:
REMARK  status: ('A' for Active; 'I' for Inactive)
REMARK    1  A    between atoms: C_1  and  C_2
REMARK                            x       y       z     vdW  Elec       q    Type
REMARK                         _______ _______ _______ _____ _____    ______ ____
ROOT
ATOM      1  C   UNL     1       4.914   5.486  16.898  0.00  0.00    +0.000 C 
ATOM      2  C   UNL     1       3.922   6.126  17.847  0.00  0.00    +0.000 A 
ATOM      3  N   UNL     1       3.503   7.300  17.481  0.00  0.00    +0.000 NA
ATOM      4  C   UNL     1       2.594   7.981  18.288  0.00  0.00    +0.000 A 
ATOM      5  C   UNL     1       2.182   9.262  17.911  0.00  0.00    +0.000 A 
ATOM      6  C   UNL     1       1.321  10.001  18.725  0.00  0.00    +0.000 A 
ATOM      7  C   UNL     1       0.858   9.460  19.922  0.00  0.00    +0.000 A 
ATOM      8  C   UNL     1       1.244   8.172  20.294  0.00  0.00    +0.000 A 
ATOM      9  C   UNL     1       2.108   7.438  19.468  0.00  0.00    +0.000 A 
ATOM     10  C   UNL     1       2.551   6.081  19.838  0.00  0.00    +0.000 A 
ATOM     11  O   UNL     1       2.083   5.616  20.875  0.00  0.00    +0.000 OA
ATOM     12  N   UNL     1       3.491   5.480  18.993  0.00  0.00    +0.000 N 
ATOM     13  C   UNL     1       3.980   4.222  19.381  0.00  0.00    +0.000 A 
ATOM     14  N   UNL     1       3.364   3.439  20.338  0.00  0.00    +0.000 NA
ATOM     15  N   UNL     1       4.071   2.329  20.472  0.00  0.00    +0.000 NA
ATOM     16  N   UNL     1       5.086   2.484  19.628  0.00  0.00    +0.000 N 
ATOM     17  N   UNL     1       5.081   3.610  18.904  0.00  0.00    +0.000 NA
ATOM     18  H   UNL     1       5.819   1.786  19.542  0.00  0.00    +0.000 HD
ENDROOT
TORSDOF 0
ENDMDL
MODEL 8
REMARK VINA RESULT:      -7.2      3.617      4.817
REMARK  Name = 
REMARK  1 active torsions:
REMARK  status: ('A' for Active; 'I' for Inactive)
REMARK    1  A    between atoms: C_1  and  C_2
REMARK                            x       y       z     vdW  Elec       q    Type
REMARK                         _______ _______ _______ _____ _____    ______ ____
ROOT
ATOM      1  C   UNL     1       4.346   6.986  16.983  0.00  0.00    +0.000 C 
ATOM      2  C   UNL     1       3.703   6.285  18.162  0.00  0.00    +0.000 A 
ATOM      3  N   UNL     1       4.169   5.097  18.405  0.00  0.00    +0.000 NA
ATOM      4  C   UNL     1       3.641   4.361  19.464  0.00  0.00    +0.000 A 
ATOM      5  C   UNL     1       4.116   3.067  19.692  0.00  0.00    +0.000 A 
ATOM      6  C   UNL     1       3.568   2.275  20.703  0.00  0.00    +0.000 A 
ATOM      7  C   UNL     1       2.542   2.777  21.501  0.00  0.00    +0.000 A 
ATOM      8  C   UNL     1       2.080   4.077  21.298  0.00  0.00    +0.000 A 
ATOM      9  C   UNL     1       2.638   4.864  20.280  0.00  0.00    +0.000 A 
ATOM     10  C   UNL     1       2.162   6.236  20.024  0.00  0.00    +0.000 A 
ATOM     11  O   UNL     1       1.292   6.663  20.780  0.00  0.00    +0.000 OA
ATOM     12  N   UNL     1       2.718   6.894  18.922  0.00  0.00    +0.000 N 
ATOM     13  C   UNL     1       2.212   8.169  18.622  0.00  0.00    +0.000 A 
ATOM     14  N   UNL     1       1.460   8.907  19.515  0.00  0.00    +0.000 NA
ATOM     15  N   UNL     1       1.138  10.049  18.928  0.00  0.00    +0.000 NA
ATOM     16  N   UNL     1       1.673   9.955  17.715  0.00  0.00    +0.000 N 
ATOM     17  N   UNL     1       2.371   8.840  17.465  0.00  0.00    +0.000 NA
ATOM     18  H   UNL     1       1.555  10.690  17.023  0.00  0.00    +0.000 HD
ENDROOT
TORSDOF 0
ENDMDL
MODEL 9
REMARK VINA RESULT:      -7.1      2.557      5.618
REMARK  Name = 
REMARK  1 active torsions:
REMARK  status: ('A' for Active; 'I' for Inactive)
REMARK    1  A    between atoms: C_1  and  C_2
REMARK                            x       y       z     vdW  Elec       q    Type
REMARK                         _______ _______ _______ _____ _____    ______ ____
ROOT
ATOM      1  C   UNL     1       7.390   6.648  17.766  0.00  0.00    +0.000 C 
ATOM      2  C   UNL     1       6.837   5.774  16.659  0.00  0.00    +0.000 A 
ATOM      3  N   UNL     1       7.516   5.806  15.553  0.00  0.00    +0.000 NA
ATOM      4  C   UNL     1       7.088   5.045  14.467  0.00  0.00    +0.000 A 
ATOM      5  C   UNL     1       7.799   5.120  13.266  0.00  0.00    +0.000 A 
ATOM      6  C   UNL     1       7.365   4.420  12.138  0.00  0.00    +0.000 A 
ATOM      7  C   UNL     1       6.218   3.633  12.205  0.00  0.00    +0.000 A 
ATOM      8  C   UNL     1       5.517   3.532  13.406  0.00  0.00    +0.000 A 
ATOM      9  C   UNL     1       5.962   4.237  14.534  0.00  0.00    +0.000 A 
ATOM     10  C   UNL     1       5.237   4.169  15.816  0.00  0.00    +0.000 A 
ATOM     11  O   UNL     1       4.259   3.425  15.853  0.00  0.00    +0.000 OA
ATOM     12  N   UNL     1       5.710   4.990  16.845  0.00  0.00    +0.000 N 
ATOM     13  C   UNL     1       4.977   4.993  18.043  0.00  0.00    +0.000 A 
ATOM     14  N   UNL     1       4.045   4.023  18.355  0.00  0.00    +0.000 NA
ATOM     15  N   UNL     1       3.534   4.315  19.540  0.00  0.00    +0.000 NA
ATOM     16  N   UNL     1       4.143   5.445  19.888  0.00  0.00    +0.000 N 
ATOM     17  N   UNL     1       5.061   5.906  19.030  0.00  0.00    +0.000 NA
ATOM     18  H   UNL     1       3.919   5.926  20.755  0.00  0.00    +0.000 HD
ENDROOT
TORSDOF 0
ENDMDL
