MODEL 1
REMARK VINA RESULT:      -7.6      0.000      0.000
REMARK  Name = 
REMARK  6 active torsions:
REMARK  status: ('A' for Active; 'I' for Inactive)
REMARK    1  A    between atoms: C_1  and  O_2
REMARK    2  A    between atoms: O_2  and  C_3
REMARK    3  A    between atoms: C_10  and  S_11
REMARK    4  A    between atoms: S_11  and  N_14
REMARK    5  A    between atoms: C_18  and  C_20
REMARK    6  A    between atoms: C_27  and  C_28
REMARK                            x       y       z     vdW  Elec       q    Type
REMARK                         _______ _______ _______ _____ _____    ______ ____
ROOT
ATOM      1  S   UNL     1      -0.372  11.203  21.715  0.00  0.00    +0.000 S 
ATOM      2  O   UNL     1      -1.403  11.292  20.701  0.00  0.00    +0.000 OA
ATOM      3  O   UNL     1      -0.716  11.038  23.101  0.00  0.00    +0.000 OA
ENDROOT
BRANCH   1  11
ATOM      4  C   UNL     1       0.741   9.755  18.648  0.00  0.00    +0.000 A 
ATOM      5  C   UNL     1       1.552   9.201  17.638  0.00  0.00    +0.000 A 
ATOM      6  C   UNL     1       2.361   8.103  17.891  0.00  0.00    +0.000 A 
ATOM      7  C   UNL     1       2.424   7.556  19.168  0.00  0.00    +0.000 A 
ATOM      8  C   UNL     1       1.741   8.216  20.198  0.00  0.00    +0.000 A 
ATOM      9  N   UNL     1       1.718   7.923  21.541  0.00  0.00    +0.000 N 
ATOM     10  C   UNL     1       0.985   8.857  22.213  0.00  0.00    +0.000 A 
ATOM     11  C   UNL     1       0.493   9.758  21.289  0.00  0.00    +0.000 A 
ATOM     12  C   UNL     1       0.925   9.339  19.988  0.00  0.00    +0.000 A 
ATOM     13  H   UNL     1       2.224   7.159  21.970  0.00  0.00    +0.000 HD
BRANCH   4  15
ATOM     14  C   UNL     1      -1.260   9.990  17.508  0.00  0.00    +0.000 C 
ATOM     15  O   UNL     1      -0.264  10.638  18.314  0.00  0.00    +0.000 OA
ENDBRANCH   4  15
ENDBRANCH   1  11
BRANCH   1  16
ATOM     16  N   UNL     1       0.619  12.591  21.543  0.00  0.00    +0.000 NA
ATOM     17  C   UNL     1       1.744  12.359  20.592  0.00  0.00    +0.000 C 
ATOM     18  C   UNL     1       2.538  13.607  20.251  0.00  0.00    +0.000 C 
ATOM     19  N   UNL     1       1.658  14.680  19.808  0.00  0.00    +0.000 N 
ATOM     20  C   UNL     1       2.060  15.394  18.674  0.00  0.00    +0.000 C 
ATOM     21  O   UNL     1       3.125  15.116  18.108  0.00  0.00    +0.000 OA
ATOM     22  C   UNL     1       0.746  15.094  20.873  0.00  0.00    +0.000 C 
ATOM     23  C   UNL     1      -0.103  13.931  21.471  0.00  0.00    +0.000 C 
ATOM     24  C   UNL     1      -1.485  13.888  20.813  0.00  0.00    +0.000 C 
BRANCH  20  25
ATOM     25  C   UNL     1       1.254  16.477  18.038  0.00  0.00    +0.000 A 
ATOM     26  C   UNL     1      -0.110  16.545  18.388  0.00  0.00    +0.000 A 
ATOM     27  C   UNL     1      -0.917  17.606  17.966  0.00  0.00    +0.000 A 
ATOM     28  C   UNL     1      -0.375  18.608  17.169  0.00  0.00    +0.000 A 
ATOM     29  C   UNL     1       0.972  18.554  16.809  0.00  0.00    +0.000 A 
ATOM     30  C   UNL     1       1.789  17.508  17.263  0.00  0.00    +0.000 A 
ENDBRANCH  20  25
ENDBRANCH   1  16
TORSDOF 4
ENDMDL
MODEL 2
REMARK VINA RESULT:      -7.6      3.929      8.406
REMARK  Name = 
REMARK  6 active torsions:
REMARK  status: ('A' for Active; 'I' for Inactive)
REMARK    1  A    between atoms: C_1  and  O_2
REMARK    2  A    between atoms: O_2  and  C_3
REMARK    3  A    between atoms: C_10  and  S_11
REMARK    4  A    between atoms: S_11  and  N_14
REMARK    5  A    between atoms: C_18  and  C_20
REMARK    6  A    between atoms: C_27  and  C_28
REMARK                            x       y       z     vdW  Elec       q    Type
REMARK                         _______ _______ _______ _____ _____    ______ ____
ROOT
ATOM      1  S   UNL     1      -0.613  10.885  19.451  0.00  0.00    +0.000 S 
ATOM      2  O   UNL     1      -1.696   9.966  19.164  0.00  0.00    +0.000 OA
ATOM      3  O   UNL     1      -0.210  11.871  18.486  0.00  0.00    +0.000 OA
ENDROOT
BRANCH   1  11
ATOM      4  C   UNL     1      -3.724  12.427  20.279  0.00  0.00    +0.000 A 
ATOM      5  C   UNL     1      -4.911  12.787  20.946  0.00  0.00    +0.000 A 
ATOM      6  C   UNL     1      -4.888  13.243  22.256  0.00  0.00    +0.000 A 
ATOM      7  C   UNL     1      -3.688  13.306  22.957  0.00  0.00    +0.000 A 
ATOM      8  C   UNL     1      -2.541  12.791  22.339  0.00  0.00    +0.000 A 
ATOM      9  N   UNL     1      -1.271  12.666  22.850  0.00  0.00    +0.000 N 
ATOM     10  C   UNL     1      -0.459  12.049  21.945  0.00  0.00    +0.000 A 
ATOM     11  C   UNL     1      -1.202  11.795  20.808  0.00  0.00    +0.000 A 
ATOM     12  C   UNL     1      -2.525  12.306  21.021  0.00  0.00    +0.000 A 
ATOM     13  H   UNL     1      -1.000  12.939  23.786  0.00  0.00    +0.000 HD
BRANCH   4  15
ATOM     14  C   UNL     1      -4.933  11.617  18.480  0.00  0.00    +0.000 C 
ATOM     15  O   UNL     1      -3.727  12.267  18.910  0.00  0.00    +0.000 OA
ENDBRANCH   4  15
ENDBRANCH   1  11
BRANCH   1  16
ATOM     16  N   UNL     1       0.746   9.935  19.886  0.00  0.00    +0.000 NA
ATOM     17  C   UNL     1       0.426   8.971  20.978  0.00  0.00    +0.000 C 
ATOM     18  C   UNL     1       1.532   7.973  21.270  0.00  0.00    +0.000 C 
ATOM     19  N   UNL     1       1.961   7.298  20.052  0.00  0.00    +0.000 N 
ATOM     20  C   UNL     1       2.133   5.912  20.128  0.00  0.00    +0.000 C 
ATOM     21  O   UNL     1       1.940   5.319  21.198  0.00  0.00    +0.000 OA
ATOM     22  C   UNL     1       2.548   8.241  19.101  0.00  0.00    +0.000 C 
ATOM     23  C   UNL     1       1.619   9.441  18.739  0.00  0.00    +0.000 C 
ATOM     24  C   UNL     1       0.873   9.160  17.431  0.00  0.00    +0.000 C 
BRANCH  20  25
ATOM     25  C   UNL     1       2.501   5.049  18.968  0.00  0.00    +0.000 A 
ATOM     26  C   UNL     1       3.873   4.939  18.666  0.00  0.00    +0.000 A 
ATOM     27  C   UNL     1       4.335   4.044  17.696  0.00  0.00    +0.000 A 
ATOM     28  C   UNL     1       3.426   3.257  16.998  0.00  0.00    +0.000 A 
ATOM     29  C   UNL     1       2.063   3.356  17.281  0.00  0.00    +0.000 A 
ATOM     30  C   UNL     1       1.605   4.228  18.279  0.00  0.00    +0.000 A 
ENDBRANCH  20  25
ENDBRANCH   1  16
TORSDOF 4
ENDMDL
MODEL 3
REMARK VINA RESULT:      -7.6      4.167      5.802
REMARK  Name = 
REMARK  6 active torsions:
REMARK  status: ('A' for Active; 'I' for Inactive)
REMARK    1  A    between atoms: C_1  and  O_2
REMARK    2  A    between atoms: O_2  and  C_3
REMARK    3  A    between atoms: C_10  and  S_11
REMARK    4  A    between atoms: S_11  and  N_14
REMARK    5  A    between atoms: C_18  and  C_20
REMARK    6  A    between atoms: C_27  and  C_28
REMARK                            x       y       z     vdW  Elec       q    Type
REMARK                         _______ _______ _______ _____ _____    ______ ____
ROOT
ATOM      1  S   UNL     1       0.953   8.504  21.000  0.00  0.00    +0.000 S 
ATOM      2  O   UNL     1      -0.187   7.612  20.921  0.00  0.00    +0.000 OA
ATOM      3  O   UNL     1       1.839   8.464  22.132  0.00  0.00    +0.000 OA
ENDROOT
BRANCH   1  11
ATOM      4  C   UNL     1       2.430   5.442  19.910  0.00  0.00    +0.000 A 
ATOM      5  C   UNL     1       2.790   4.325  19.132  0.00  0.00    +0.000 A 
ATOM      6  C   UNL     1       3.334   4.478  17.866  0.00  0.00    +0.000 A 
ATOM      7  C   UNL     1       3.489   5.747  17.316  0.00  0.00    +0.000 A 
ATOM      8  C   UNL     1       2.977   6.837  18.032  0.00  0.00    +0.000 A 
ATOM      9  N   UNL     1       2.934   8.162  17.666  0.00  0.00    +0.000 N 
ATOM     10  C   UNL     1       2.287   8.891  18.621  0.00  0.00    +0.000 A 
ATOM     11  C   UNL     1       1.930   8.034  19.643  0.00  0.00    +0.000 A 
ATOM     12  C   UNL     1       2.404   6.723  19.309  0.00  0.00    +0.000 A 
ATOM     13  H   UNL     1       3.279   8.526  16.788  0.00  0.00    +0.000 HD
BRANCH   4  15
ATOM     14  C   UNL     1       2.114   3.897  21.604  0.00  0.00    +0.000 C 
ATOM     15  O   UNL     1       2.178   5.288  21.257  0.00  0.00    +0.000 OA
ENDBRANCH   4  15
ENDBRANCH   1  11
BRANCH   1  16
ATOM     16  N   UNL     1       0.354  10.098  20.810  0.00  0.00    +0.000 NA
ATOM     17  C   UNL     1      -0.569  10.212  19.645  0.00  0.00    +0.000 C 
ATOM     18  C   UNL     1      -1.280  11.549  19.543  0.00  0.00    +0.000 C 
ATOM     19  N   UNL     1      -1.939  11.887  20.798  0.00  0.00    +0.000 N 
ATOM     20  C   UNL     1      -3.245  12.379  20.710  0.00  0.00    +0.000 C 
ATOM     21  O   UNL     1      -3.782  12.526  19.604  0.00  0.00    +0.000 OA
ATOM     22  C   UNL     1      -0.968  12.059  21.877  0.00  0.00    +0.000 C 
ATOM     23  C   UNL     1      -0.028  10.833  22.089  0.00  0.00    +0.000 C 
ATOM     24  C   UNL     1      -0.563   9.941  23.214  0.00  0.00    +0.000 C 
BRANCH  20  25
ATOM     25  C   UNL     1      -4.096  12.711  21.890  0.00  0.00    +0.000 A 
ATOM     26  C   UNL     1      -5.453  12.997  21.636  0.00  0.00    +0.000 A 
ATOM     27  C   UNL     1      -6.366  13.176  22.680  0.00  0.00    +0.000 A 
ATOM     28  C   UNL     1      -5.930  13.089  23.997  0.00  0.00    +0.000 A 
ATOM     29  C   UNL     1      -4.590  12.811  24.267  0.00  0.00    +0.000 A 
ATOM     30  C   UNL     1      -3.683  12.597  23.219  0.00  0.00    +0.000 A 
ENDBRANCH  20  25
ENDBRANCH   1  16
TORSDOF 4
ENDMDL
MODEL 4
REMARK VINA RESULT:      -7.5      3.796      7.757
REMARK  Name = 
REMARK  6 active torsions:
REMARK  status: ('A' for Active; 'I' for Inactive)
REMARK    1  A    between atoms: C_1  and  O_2
REMARK    2  A    between atoms: O_2  and  C_3
REMARK    3  A    between atoms: C_10  and  S_11
REMARK    4  A    between atoms: S_11  and  N_14
REMARK    5  A    between atoms: C_18  and  C_20
REMARK    6  A    between atoms: C_27  and  C_28
REMARK                            x       y       z     vdW  Elec       q    Type
REMARK                         _______ _______ _______ _____ _____    ______ ____
ROOT
ATOM      1  S   UNL     1      -2.978  14.156  21.250  0.00  0.00    +0.000 S 
ATOM      2  O   UNL     1      -3.589  13.422  20.160  0.00  0.00    +0.000 OA
ATOM      3  O   UNL     1      -2.527  15.508  21.065  0.00  0.00    +0.000 OA
ENDROOT
BRANCH   1  11
ATOM      4  C   UNL     1      -6.243  12.745  21.557  0.00  0.00    +0.000 A 
ATOM      5  C   UNL     1      -7.368  12.052  22.044  0.00  0.00    +0.000 A 
ATOM      6  C   UNL     1      -7.899  12.336  23.294  0.00  0.00    +0.000 A 
ATOM      7  C   UNL     1      -7.295  13.282  24.115  0.00  0.00    +0.000 A 
ATOM      8  C   UNL     1      -6.084  13.843  23.688  0.00  0.00    +0.000 A 
ATOM      9  N   UNL     1      -5.263  14.725  24.350  0.00  0.00    +0.000 N 
ATOM     10  C   UNL     1      -4.143  14.970  23.611  0.00  0.00    +0.000 A 
ATOM     11  C   UNL     1      -4.248  14.261  22.430  0.00  0.00    +0.000 A 
ATOM     12  C   UNL     1      -5.505  13.571  22.438  0.00  0.00    +0.000 A 
ATOM     13  H   UNL     1      -5.442  15.089  25.277  0.00  0.00    +0.000 HD
BRANCH   4  15
ATOM     14  C   UNL     1      -6.540  11.526  19.611  0.00  0.00    +0.000 C 
ATOM     15  O   UNL     1      -5.915  12.667  20.220  0.00  0.00    +0.000 OA
ENDBRANCH   4  15
ENDBRANCH   1  11
BRANCH   1  16
ATOM     16  N   UNL     1      -1.676  13.202  21.826  0.00  0.00    +0.000 NA
ATOM     17  C   UNL     1      -2.147  11.929  22.444  0.00  0.00    +0.000 C 
ATOM     18  C   UNL     1      -1.034  10.959  22.795  0.00  0.00    +0.000 C 
ATOM     19  N   UNL     1      -0.167  10.722  21.648  0.00  0.00    +0.000 N 
ATOM     20  C   UNL     1       0.190   9.394  21.393  0.00  0.00    +0.000 C 
ATOM     21  O   UNL     1      -0.213   8.488  22.134  0.00  0.00    +0.000 OA
ATOM     22  C   UNL     1       0.519  11.947  21.239  0.00  0.00    +0.000 C 
ATOM     23  C   UNL     1      -0.439  13.141  20.938  0.00  0.00    +0.000 C 
ATOM     24  C   UNL     1      -0.715  13.235  19.435  0.00  0.00    +0.000 C 
BRANCH  20  25
ATOM     25  C   UNL     1       1.012   8.958  20.226  0.00  0.00    +0.000 A 
ATOM     26  C   UNL     1       1.750   7.766  20.377  0.00  0.00    +0.000 A 
ATOM     27  C   UNL     1       2.433   7.192  19.301  0.00  0.00    +0.000 A 
ATOM     28  C   UNL     1       2.404   7.813  18.058  0.00  0.00    +0.000 A 
ATOM     29  C   UNL     1       1.681   8.996  17.891  0.00  0.00    +0.000 A 
ATOM     30  C   UNL     1       0.968   9.551  18.963  0.00  0.00    +0.000 A 
ENDBRANCH  20  25
ENDBRANCH   1  16
TORSDOF 4
ENDMDL
MODEL 5
REMARK VINA RESULT:      -7.3      2.163      7.909
REMARK  Name = 
REMARK  6 active torsions:
REMARK  status: ('A' for Active; 'I' for Inactive)
REMARK    1  A    between atoms: C_1  and  O_2
REMARK    2  A    between atoms: O_2  and  C_3
REMARK    3  A    between atoms: C_10  and  S_11
REMARK    4  A    between atoms: S_11  and  N_14
REMARK    5  A    between atoms: C_18  and  C_20
REMARK    6  A    between atoms: C_27  and  C_28
REMARK                            x       y       z     vdW  Elec       q    Type
REMARK                         _______ _______ _______ _____ _____    ______ ____
ROOT
ATOM      1  S   UNL     1       0.467  12.698  20.583  0.00  0.00    +0.000 S 
ATOM      2  O   UNL     1       1.780  12.754  21.196  0.00  0.00    +0.000 OA
ATOM      3  O   UNL     1      -0.704  12.441  21.376  0.00  0.00    +0.000 OA
ENDROOT
BRANCH   1  11
ATOM      4  C   UNL     1       2.589  15.087  18.990  0.00  0.00    +0.000 A 
ATOM      5  C   UNL     1       3.125  16.003  18.065  0.00  0.00    +0.000 A 
ATOM      6  C   UNL     1       2.378  17.076  17.603  0.00  0.00    +0.000 A 
ATOM      7  C   UNL     1       1.058  17.240  18.010  0.00  0.00    +0.000 A 
ATOM      8  C   UNL     1       0.486  16.234  18.799  0.00  0.00    +0.000 A 
ATOM      9  N   UNL     1      -0.808  16.127  19.252  0.00  0.00    +0.000 N 
ATOM     10  C   UNL     1      -0.971  14.956  19.932  0.00  0.00    +0.000 A 
ATOM     11  C   UNL     1       0.244  14.301  19.953  0.00  0.00    +0.000 A 
ATOM     12  C   UNL     1       1.203  15.124  19.274  0.00  0.00    +0.000 A 
ATOM     13  H   UNL     1      -1.541  16.795  19.054  0.00  0.00    +0.000 HD
BRANCH   4  15
ATOM     14  C   UNL     1       4.426  14.938  20.391  0.00  0.00    +0.000 C 
ATOM     15  O   UNL     1       3.424  14.217  19.658  0.00  0.00    +0.000 OA
ENDBRANCH   4  15
ENDBRANCH   1  11
BRANCH   1  16
ATOM     16  N   UNL     1       0.556  11.543  19.320  0.00  0.00    +0.000 NA
ATOM     17  C   UNL     1       1.924  11.463  18.731  0.00  0.00    +0.000 C 
ATOM     18  C   UNL     1       2.111  10.325  17.745  0.00  0.00    +0.000 C 
ATOM     19  N   UNL     1       1.690   9.057  18.325  0.00  0.00    +0.000 N 
ATOM     20  C   UNL     1       2.540   7.963  18.130  0.00  0.00    +0.000 C 
ATOM     21  O   UNL     1       3.583   8.094  17.477  0.00  0.00    +0.000 OA
ATOM     22  C   UNL     1       0.260   9.060  18.627  0.00  0.00    +0.000 C 
ATOM     23  C   UNL     1      -0.194  10.236  19.546  0.00  0.00    +0.000 C 
ATOM     24  C   UNL     1      -0.266   9.774  21.004  0.00  0.00    +0.000 C 
BRANCH  20  25
ATOM     25  C   UNL     1       2.305   6.607  18.708  0.00  0.00    +0.000 A 
ATOM     26  C   UNL     1       2.152   6.530  20.107  0.00  0.00    +0.000 A 
ATOM     27  C   UNL     1       1.783   5.335  20.733  0.00  0.00    +0.000 A 
ATOM     28  C   UNL     1       1.580   4.192  19.969  0.00  0.00    +0.000 A 
ATOM     29  C   UNL     1       1.732   4.250  18.583  0.00  0.00    +0.000 A 
ATOM     30  C   UNL     1       2.067   5.457  17.953  0.00  0.00    +0.000 A 
ENDBRANCH  20  25
ENDBRANCH   1  16
TORSDOF 4
ENDMDL
MODEL 6
REMARK VINA RESULT:      -7.3      4.040      5.599
REMARK  Name = 
REMARK  6 active torsions:
REMARK  status: ('A' for Active; 'I' for Inactive)
REMARK    1  A    between atoms: C_1  and  O_2
REMARK    2  A    between atoms: O_2  and  C_3
REMARK    3  A    between atoms: C_10  and  S_11
REMARK    4  A    between atoms: S_11  and  N_14
REMARK    5  A    between atoms: C_18  and  C_20
REMARK    6  A    between atoms: C_27  and  C_28
REMARK                            x       y       z     vdW  Elec       q    Type
REMARK                         _______ _______ _______ _____ _____    ______ ____
ROOT
ATOM      1  S   UNL     1       1.100   8.321  20.889  0.00  0.00    +0.000 S 
ATOM      2  O   UNL     1      -0.098   7.508  20.840  0.00  0.00    +0.000 OA
ATOM      3  O   UNL     1       1.973   8.277  22.031  0.00  0.00    +0.000 OA
ENDROOT
BRANCH   1  11
ATOM      4  C   UNL     1       2.358   5.112  19.960  0.00  0.00    +0.000 A 
ATOM      5  C   UNL     1       2.641   3.935  19.239  0.00  0.00    +0.000 A 
ATOM      6  C   UNL     1       3.207   3.989  17.974  0.00  0.00    +0.000 A 
ATOM      7  C   UNL     1       3.461   5.216  17.369  0.00  0.00    +0.000 A 
ATOM      8  C   UNL     1       3.024   6.373  18.027  0.00  0.00    +0.000 A 
ATOM      9  N   UNL     1       3.083   7.679  17.600  0.00  0.00    +0.000 N 
ATOM     10  C   UNL     1       2.483   8.497  18.512  0.00  0.00    +0.000 A 
ATOM     11  C   UNL     1       2.054   7.718  19.568  0.00  0.00    +0.000 A 
ATOM     12  C   UNL     1       2.432   6.361  19.300  0.00  0.00    +0.000 A 
ATOM     13  H   UNL     1       3.463   7.975  16.711  0.00  0.00    +0.000 HD
BRANCH   4  15
ATOM     14  C   UNL     1       2.157   3.682  21.770  0.00  0.00    +0.000 C 
ATOM     15  O   UNL     1       2.081   5.040  21.309  0.00  0.00    +0.000 OA
ENDBRANCH   4  15
ENDBRANCH   1  11
BRANCH   1  16
ATOM     16  N   UNL     1       0.615   9.941  20.614  0.00  0.00    +0.000 NA
ATOM     17  C   UNL     1      -0.389  10.045  19.516  0.00  0.00    +0.000 C 
ATOM     18  C   UNL     1      -0.998  11.426  19.359  0.00  0.00    +0.000 C 
ATOM     19  N   UNL     1      -1.521  11.914  20.628  0.00  0.00    +0.000 N 
ATOM     20  C   UNL     1      -2.788  12.508  20.600  0.00  0.00    +0.000 C 
ATOM     21  O   UNL     1      -3.401  12.616  19.529  0.00  0.00    +0.000 OA
ATOM     22  C   UNL     1      -0.454  12.085  21.612  0.00  0.00    +0.000 C 
ATOM     23  C   UNL     1       0.400  10.802  21.852  0.00  0.00    +0.000 C 
ATOM     24  C   UNL     1      -0.108  10.048  23.085  0.00  0.00    +0.000 C 
BRANCH  20  25
ATOM     25  C   UNL     1      -3.508  13.001  21.809  0.00  0.00    +0.000 A 
ATOM     26  C   UNL     1      -3.417  12.208  22.972  0.00  0.00    +0.000 A 
ATOM     27  C   UNL     1      -3.930  12.649  24.195  0.00  0.00    +0.000 A 
ATOM     28  C   UNL     1      -4.560  13.886  24.271  0.00  0.00    +0.000 A 
ATOM     29  C   UNL     1      -4.663  14.682  23.130  0.00  0.00    +0.000 A 
ATOM     30  C   UNL     1      -4.117  14.253  21.911  0.00  0.00    +0.000 A 
ENDBRANCH  20  25
ENDBRANCH   1  16
TORSDOF 4
ENDMDL
MODEL 7
REMARK VINA RESULT:      -7.3      2.852      8.409
REMARK  Name = 
REMARK  6 active torsions:
REMARK  status: ('A' for Active; 'I' for Inactive)
REMARK    1  A    between atoms: C_1  and  O_2
REMARK    2  A    between atoms: O_2  and  C_3
REMARK    3  A    between atoms: C_10  and  S_11
REMARK    4  A    between atoms: S_11  and  N_14
REMARK    5  A    between atoms: C_18  and  C_20
REMARK    6  A    between atoms: C_27  and  C_28
REMARK                            x       y       z     vdW  Elec       q    Type
REMARK                         _______ _______ _______ _____ _____    ______ ____
ROOT
ATOM      1  S   UNL     1      -0.437  10.975  19.483  0.00  0.00    +0.000 S 
ATOM      2  O   UNL     1      -1.610  10.132  19.368  0.00  0.00    +0.000 OA
ATOM      3  O   UNL     1      -0.054  11.852  18.411  0.00  0.00    +0.000 OA
ENDROOT
BRANCH   1  11
ATOM      4  C   UNL     1       1.220  13.699  21.089  0.00  0.00    +0.000 A 
ATOM      5  C   UNL     1       1.512  14.969  21.623  0.00  0.00    +0.000 A 
ATOM      6  C   UNL     1       0.664  15.573  22.539  0.00  0.00    +0.000 A 
ATOM      7  C   UNL     1      -0.523  14.953  22.913  0.00  0.00    +0.000 A 
ATOM      8  C   UNL     1      -0.881  13.771  22.253  0.00  0.00    +0.000 A 
ATOM      9  N   UNL     1      -2.029  13.025  22.384  0.00  0.00    +0.000 N 
ATOM     10  C   UNL     1      -2.014  11.982  21.506  0.00  0.00    +0.000 A 
ATOM     11  C   UNL     1      -0.821  12.025  20.812  0.00  0.00    +0.000 A 
ATOM     12  C   UNL     1      -0.060  13.135  21.308  0.00  0.00    +0.000 A 
ATOM     13  H   UNL     1      -2.796  13.258  23.002  0.00  0.00    +0.000 HD
BRANCH   4  15
ATOM     14  C   UNL     1       2.844  13.820  19.444  0.00  0.00    +0.000 C 
ATOM     15  O   UNL     1       2.199  12.992  20.424  0.00  0.00    +0.000 OA
ENDBRANCH   4  15
ENDBRANCH   1  11
BRANCH   1  16
ATOM     16  N   UNL     1       0.880   9.947  19.867  0.00  0.00    +0.000 NA
ATOM     17  C   UNL     1       0.576   9.060  21.026  0.00  0.00    +0.000 C 
ATOM     18  C   UNL     1       1.627   7.996  21.288  0.00  0.00    +0.000 C 
ATOM     19  N   UNL     1       1.914   7.238  20.077  0.00  0.00    +0.000 N 
ATOM     20  C   UNL     1       1.994   5.847  20.211  0.00  0.00    +0.000 C 
ATOM     21  O   UNL     1       1.840   5.319  21.320  0.00  0.00    +0.000 OA
ATOM     22  C   UNL     1       2.493   8.090  19.040  0.00  0.00    +0.000 C 
ATOM     23  C   UNL     1       1.627   9.338  18.687  0.00  0.00    +0.000 C 
ATOM     24  C   UNL     1       0.767   9.055  17.451  0.00  0.00    +0.000 C 
BRANCH  20  25
ATOM     25  C   UNL     1       2.211   4.908  19.072  0.00  0.00    +0.000 A 
ATOM     26  C   UNL     1       3.421   5.040  18.360  0.00  0.00    +0.000 A 
ATOM     27  C   UNL     1       3.788   4.120  17.374  0.00  0.00    +0.000 A 
ATOM     28  C   UNL     1       2.940   3.061  17.071  0.00  0.00    +0.000 A 
ATOM     29  C   UNL     1       1.737   2.917  17.763  0.00  0.00    +0.000 A 
ATOM     30  C   UNL     1       1.387   3.821  18.776  0.00  0.00    +0.000 A 
ENDBRANCH  20  25
ENDBRANCH   1  16
TORSDOF 4
ENDMDL
MODEL 8
REMARK VINA RESULT:      -7.2      3.853      7.283
REMARK  Name = 
REMARK  6 active torsions:
REMARK  status: ('A' for Active; 'I' for Inactive)
REMARK    1  A    between atoms: C_1  and  O_2
REMARK    2  A    between atoms: O_2  and  C_3
REMARK    3  A    between atoms: C_10  and  S_11
REMARK    4  A    between atoms: S_11  and  N_14
REMARK    5  A    between atoms: C_18  and  C_20
REMARK    6  A    between atoms: C_27  and  C_28
REMARK                            x       y       z     vdW  Elec       q    Type
REMARK                         _______ _______ _______ _____ _____    ______ ____
ROOT
ATOM      1  S   UNL     1      -2.462  14.426  22.889  0.00  0.00    +0.000 S 
ATOM      2  O   UNL     1      -2.802  15.825  22.723  0.00  0.00    +0.000 OA
ATOM      3  O   UNL     1      -1.388  14.029  23.758  0.00  0.00    +0.000 OA
ENDROOT
BRANCH   1  11
ATOM      4  C   UNL     1      -5.854  14.060  21.839  0.00  0.00    +0.000 A 
ATOM      5  C   UNL     1      -7.106  13.509  21.504  0.00  0.00    +0.000 A 
ATOM      6  C   UNL     1      -7.805  12.719  22.405  0.00  0.00    +0.000 A 
ATOM      7  C   UNL     1      -7.256  12.413  23.646  0.00  0.00    +0.000 A 
ATOM      8  C   UNL     1      -5.943  12.830  23.901  0.00  0.00    +0.000 A 
ATOM      9  N   UNL     1      -5.161  12.583  25.005  0.00  0.00    +0.000 N 
ATOM     10  C   UNL     1      -3.916  13.111  24.825  0.00  0.00    +0.000 A 
ATOM     11  C   UNL     1      -3.893  13.743  23.598  0.00  0.00    +0.000 A 
ATOM     12  C   UNL     1      -5.195  13.617  23.010  0.00  0.00    +0.000 A 
ATOM     13  H   UNL     1      -5.453  12.035  25.804  0.00  0.00    +0.000 HD
BRANCH   4  15
ATOM     14  C   UNL     1      -6.235  16.170  20.968  0.00  0.00    +0.000 C 
ATOM     15  O   UNL     1      -5.320  15.068  21.066  0.00  0.00    +0.000 OA
ENDBRANCH   4  15
ENDBRANCH   1  11
BRANCH   1  16
ATOM     16  N   UNL     1      -2.183  13.791  21.322  0.00  0.00    +0.000 NA
ATOM     17  C   UNL     1      -1.083  14.509  20.617  0.00  0.00    +0.000 C 
ATOM     18  C   UNL     1      -0.661  13.868  19.307  0.00  0.00    +0.000 C 
ATOM     19  N   UNL     1      -0.364  12.453  19.490  0.00  0.00    +0.000 N 
ATOM     20  C   UNL     1       0.800  11.971  18.881  0.00  0.00    +0.000 C 
ATOM     21  O   UNL     1       1.512  12.731  18.212  0.00  0.00    +0.000 OA
ATOM     22  C   UNL     1      -1.551  11.710  19.907  0.00  0.00    +0.000 C 
ATOM     23  C   UNL     1      -2.238  12.274  21.189  0.00  0.00    +0.000 C 
ATOM     24  C   UNL     1      -1.774  11.498  22.425  0.00  0.00    +0.000 C 
BRANCH  20  25
ATOM     25  C   UNL     1       1.298  10.572  19.018  0.00  0.00    +0.000 A 
ATOM     26  C   UNL     1       1.088   9.940  20.260  0.00  0.00    +0.000 A 
ATOM     27  C   UNL     1       1.382   8.586  20.446  0.00  0.00    +0.000 A 
ATOM     28  C   UNL     1       1.910   7.845  19.395  0.00  0.00    +0.000 A 
ATOM     29  C   UNL     1       2.127   8.456  18.159  0.00  0.00    +0.000 A 
ATOM     30  C   UNL     1       1.799   9.805  17.964  0.00  0.00    +0.000 A 
ENDBRANCH  20  25
ENDBRANCH   1  16
TORSDOF 4
ENDMDL
MODEL 9
REMARK VINA RESULT:      -7.1      3.279      6.400
REMARK  Name = 
REMARK  6 active torsions:
REMARK  status: ('A' for Active; 'I' for Inactive)
REMARK    1  A    between atoms: C_1  and  O_2
REMARK    2  A    between atoms: O_2  and  C_3
REMARK    3  A    between atoms: C_10  and  S_11
REMARK    4  A    between atoms: S_11  and  N_14
REMARK    5  A    between atoms: C_18  and  C_20
REMARK    6  A    between atoms: C_27  and  C_28
REMARK                            x       y       z     vdW  Elec       q    Type
REMARK                         _______ _______ _______ _____ _____    ______ ____
ROOT
ATOM      1  S   UNL     1       2.332  15.027  21.011  0.00  0.00    +0.000 S 
ATOM      2  O   UNL     1       1.777  14.543  22.259  0.00  0.00    +0.000 OA
ATOM      3  O   UNL     1       2.200  16.409  20.635  0.00  0.00    +0.000 OA
ENDROOT
BRANCH   1  11
ATOM      4  C   UNL     1       5.134  15.050  18.799  0.00  0.00    +0.000 A 
ATOM      5  C   UNL     1       6.376  15.347  18.205  0.00  0.00    +0.000 A 
ATOM      6  C   UNL     1       7.557  15.250  18.925  0.00  0.00    +0.000 A 
ATOM      7  C   UNL     1       7.533  14.902  20.272  0.00  0.00    +0.000 A 
ATOM      8  C   UNL     1       6.283  14.770  20.891  0.00  0.00    +0.000 A 
ATOM      9  N   UNL     1       6.000  14.517  22.213  0.00  0.00    +0.000 N 
ATOM     10  C   UNL     1       4.651  14.536  22.416  0.00  0.00    +0.000 A 
ATOM     11  C   UNL     1       4.040  14.771  21.200  0.00  0.00    +0.000 A 
ATOM     12  C   UNL     1       5.064  14.877  20.202  0.00  0.00    +0.000 A 
ATOM     13  H   UNL     1       6.698  14.397  22.936  0.00  0.00    +0.000 HD
BRANCH   4  15
ATOM     14  C   UNL     1       3.583  16.110  17.447  0.00  0.00    +0.000 C 
ATOM     15  O   UNL     1       4.022  14.863  18.007  0.00  0.00    +0.000 OA
ENDBRANCH   4  15
ENDBRANCH   1  11
BRANCH   1  16
ATOM     16  N   UNL     1       1.693  14.041  19.764  0.00  0.00    +0.000 NA
ATOM     17  C   UNL     1       1.668  12.601  20.149  0.00  0.00    +0.000 C 
ATOM     18  C   UNL     1       0.935  11.707  19.165  0.00  0.00    +0.000 C 
ATOM     19  N   UNL     1      -0.398  12.222  18.885  0.00  0.00    +0.000 N 
ATOM     20  C   UNL     1      -1.445  11.293  18.885  0.00  0.00    +0.000 C 
ATOM     21  O   UNL     1      -1.214  10.096  19.099  0.00  0.00    +0.000 OA
ATOM     22  C   UNL     1      -0.337  13.528  18.231  0.00  0.00    +0.000 C 
ATOM     23  C   UNL     1       0.486  14.595  19.017  0.00  0.00    +0.000 C 
ATOM     24  C   UNL     1      -0.448  15.473  19.855  0.00  0.00    +0.000 C 
BRANCH  20  25
ATOM     25  C   UNL     1      -2.880  11.649  18.686  0.00  0.00    +0.000 A 
ATOM     26  C   UNL     1      -3.510  11.134  17.535  0.00  0.00    +0.000 A 
ATOM     27  C   UNL     1      -4.885  11.284  17.330  0.00  0.00    +0.000 A 
ATOM     28  C   UNL     1      -5.650  11.969  18.267  0.00  0.00    +0.000 A 
ATOM     29  C   UNL     1      -5.041  12.490  19.410  0.00  0.00    +0.000 A 
ATOM     30  C   UNL     1      -3.669  12.308  19.631  0.00  0.00    +0.000 A 
ENDBRANCH  20  25
ENDBRANCH   1  16
TORSDOF 4
ENDMDL
