MODEL 1
REMARK VINA RESULT:      -7.1      0.000      0.000
REMARK  Name = 
REMARK  5 active torsions:
REMARK  status: ('A' for Active; 'I' for Inactive)
REMARK    1  A    between atoms: C_1  and  N_2
REMARK    2  A    between atoms: N_2  and  C_3
REMARK    3  A    between atoms: C_3  and  C_4
REMARK    4  A    between atoms: N_8  and  C_9
REMARK    5  A    between atoms: C_14  and  C_15
REMARK                            x       y       z     vdW  Elec       q    Type
REMARK                         _______ _______ _______ _____ _____    ______ ____
ROOT
ATOM      1  C   UNL     1       2.779   6.375  18.786  0.00  0.00    +0.000 C 
ATOM      2  N   UNL     1       3.015   5.181  18.002  0.00  0.00    +0.000 N 
ATOM      3  C   UNL     1       4.239   5.022  17.398  0.00  0.00    +0.000 A 
ATOM      4  N   UNL     1       4.442   3.933  16.639  0.00  0.00    +0.000 NA
ATOM      5  C   UNL     1       5.627   3.813  16.023  0.00  0.00    +0.000 A 
ATOM      6  C   UNL     1       6.645   4.725  16.153  0.00  0.00    +0.000 A 
ATOM      7  C   UNL     1       6.387   5.797  16.972  0.00  0.00    +0.000 A 
ATOM      8  N   UNL     1       5.189   5.957  17.579  0.00  0.00    +0.000 NA
ENDROOT
BRANCH   7   9
ATOM      9  C   UNL     1       7.453   6.832  17.232  0.00  0.00    +0.000 C 
ATOM     10  C   UNL     1       6.946   8.272  17.168  0.00  0.00    +0.000 C 
ATOM     11  C   UNL     1       8.033   9.074  17.873  0.00  0.00    +0.000 C 
ATOM     12  C   UNL     1       8.657   8.128  18.898  0.00  0.00    +0.000 C 
ATOM     13  C   UNL     1       8.063   6.746  18.634  0.00  0.00    +0.000 C 
ENDBRANCH   7   9
BRANCH   2  14
ATOM     14  C   UNL     1       2.137   4.028  18.157  0.00  0.00    +0.000 C 
BRANCH  14  15
ATOM     15  C   UNL     1       1.963   3.506  19.551  0.00  0.00    +0.000 A 
ATOM     16  N   UNL     1       0.868   3.590  20.284  0.00  0.00    +0.000 NA
ATOM     17  N   UNL     1       1.092   2.934  21.472  0.00  0.00    +0.000 NA
ATOM     18  C   UNL     1       2.318   2.470  21.442  0.00  0.00    +0.000 A 
ATOM     19  N   UNL     1       2.905   2.811  20.263  0.00  0.00    +0.000 N 
ATOM     20  C   UNL     1       4.244   2.469  19.864  0.00  0.00    +0.000 C 
ENDBRANCH  14  15
ENDBRANCH   2  14
TORSDOF 3
ENDMDL
MODEL 2
REMARK VINA RESULT:      -7.1      2.211      4.009
REMARK  Name = 
REMARK  5 active torsions:
REMARK  status: ('A' for Active; 'I' for Inactive)
REMARK    1  A    between atoms: C_1  and  N_2
REMARK    2  A    between atoms: N_2  and  C_3
REMARK    3  A    between atoms: C_3  and  C_4
REMARK    4  A    between atoms: N_8  and  C_9
REMARK    5  A    between atoms: C_14  and  C_15
REMARK                            x       y       z     vdW  Elec       q    Type
REMARK                         _______ _______ _______ _____ _____    ______ ____
ROOT
ATOM      1  C   UNL     1       3.116   2.821  17.471  0.00  0.00    +0.000 C 
ATOM      2  N   UNL     1       4.223   3.325  18.257  0.00  0.00    +0.000 N 
ATOM      3  C   UNL     1       5.296   3.881  17.601  0.00  0.00    +0.000 A 
ATOM      4  N   UNL     1       6.338   4.311  18.328  0.00  0.00    +0.000 NA
ATOM      5  C   UNL     1       7.394   4.812  17.671  0.00  0.00    +0.000 A 
ATOM      6  C   UNL     1       7.450   4.933  16.305  0.00  0.00    +0.000 A 
ATOM      7  C   UNL     1       6.337   4.508  15.621  0.00  0.00    +0.000 A 
ATOM      8  N   UNL     1       5.272   3.970  16.259  0.00  0.00    +0.000 NA
ENDROOT
BRANCH   7   9
ATOM      9  C   UNL     1       6.265   4.645  14.120  0.00  0.00    +0.000 C 
ATOM     10  C   UNL     1       7.597   5.012  13.469  0.00  0.00    +0.000 C 
ATOM     11  C   UNL     1       7.393   4.666  11.999  0.00  0.00    +0.000 C 
ATOM     12  C   UNL     1       6.387   3.516  11.973  0.00  0.00    +0.000 C 
ATOM     13  C   UNL     1       5.879   3.349  13.403  0.00  0.00    +0.000 C 
ENDBRANCH   7   9
BRANCH   2  14
ATOM     14  C   UNL     1       4.044   3.579  19.680  0.00  0.00    +0.000 C 
BRANCH  14  15
ATOM     15  C   UNL     1       3.081   4.666  20.047  0.00  0.00    +0.000 A 
ATOM     16  N   UNL     1       3.198   5.947  19.747  0.00  0.00    +0.000 NA
ATOM     17  N   UNL     1       2.080   6.603  20.204  0.00  0.00    +0.000 NA
ATOM     18  C   UNL     1       1.307   5.713  20.779  0.00  0.00    +0.000 A 
ATOM     19  N   UNL     1       1.897   4.488  20.713  0.00  0.00    +0.000 N 
ATOM     20  C   UNL     1       1.345   3.263  21.229  0.00  0.00    +0.000 C 
ENDBRANCH  14  15
ENDBRANCH   2  14
TORSDOF 3
ENDMDL
MODEL 3
REMARK VINA RESULT:      -7.1      1.982      3.508
REMARK  Name = 
REMARK  5 active torsions:
REMARK  status: ('A' for Active; 'I' for Inactive)
REMARK    1  A    between atoms: C_1  and  N_2
REMARK    2  A    between atoms: N_2  and  C_3
REMARK    3  A    between atoms: C_3  and  C_4
REMARK    4  A    between atoms: N_8  and  C_9
REMARK    5  A    between atoms: C_14  and  C_15
REMARK                            x       y       z     vdW  Elec       q    Type
REMARK                         _______ _______ _______ _____ _____    ______ ____
ROOT
ATOM      1  C   UNL     1       2.517   4.457  17.468  0.00  0.00    +0.000 C 
ATOM      2  N   UNL     1       3.717   4.552  18.272  0.00  0.00    +0.000 N 
ATOM      3  C   UNL     1       4.932   4.626  17.633  0.00  0.00    +0.000 A 
ATOM      4  N   UNL     1       6.047   4.674  18.380  0.00  0.00    +0.000 NA
ATOM      5  C   UNL     1       7.225   4.702  17.742  0.00  0.00    +0.000 A 
ATOM      6  C   UNL     1       7.348   4.716  16.375  0.00  0.00    +0.000 A 
ATOM      7  C   UNL     1       6.170   4.701  15.668  0.00  0.00    +0.000 A 
ATOM      8  N   UNL     1       4.969   4.640  16.288  0.00  0.00    +0.000 NA
ENDROOT
BRANCH   7   9
ATOM      9  C   UNL     1       6.183   4.769  14.161  0.00  0.00    +0.000 C 
ATOM     10  C   UNL     1       7.567   5.022  13.566  0.00  0.00    +0.000 C 
ATOM     11  C   UNL     1       7.415   4.618  12.104  0.00  0.00    +0.000 C 
ATOM     12  C   UNL     1       6.342   3.531  12.077  0.00  0.00    +0.000 C 
ATOM     13  C   UNL     1       5.752   3.465  13.484  0.00  0.00    +0.000 C 
ENDBRANCH   7   9
BRANCH   2  14
ATOM     14  C   UNL     1       3.621   4.936  19.674  0.00  0.00    +0.000 C 
BRANCH  14  15
ATOM     15  C   UNL     1       2.936   3.963  20.585  0.00  0.00    +0.000 A 
ATOM     16  N   UNL     1       1.824   4.180  21.264  0.00  0.00    +0.000 NA
ATOM     17  N   UNL     1       1.488   3.022  21.926  0.00  0.00    +0.000 NA
ATOM     18  C   UNL     1       2.403   2.126  21.643  0.00  0.00    +0.000 A 
ATOM     19  N   UNL     1       3.334   2.672  20.815  0.00  0.00    +0.000 N 
ATOM     20  C   UNL     1       4.484   1.991  20.282  0.00  0.00    +0.000 C 
ENDBRANCH  14  15
ENDBRANCH   2  14
TORSDOF 3
ENDMDL
MODEL 4
REMARK VINA RESULT:      -7.0      2.098      3.774
REMARK  Name = 
REMARK  5 active torsions:
REMARK  status: ('A' for Active; 'I' for Inactive)
REMARK    1  A    between atoms: C_1  and  N_2
REMARK    2  A    between atoms: N_2  and  C_3
REMARK    3  A    between atoms: C_3  and  C_4
REMARK    4  A    between atoms: N_8  and  C_9
REMARK    5  A    between atoms: C_14  and  C_15
REMARK                            x       y       z     vdW  Elec       q    Type
REMARK                         _______ _______ _______ _____ _____    ______ ____
ROOT
ATOM      1  C   UNL     1       2.719   3.989  17.507  0.00  0.00    +0.000 C 
ATOM      2  N   UNL     1       3.929   4.181  18.278  0.00  0.00    +0.000 N 
ATOM      3  C   UNL     1       5.114   4.369  17.607  0.00  0.00    +0.000 A 
ATOM      4  N   UNL     1       6.241   4.507  18.323  0.00  0.00    +0.000 NA
ATOM      5  C   UNL     1       7.393   4.648  17.653  0.00  0.00    +0.000 A 
ATOM      6  C   UNL     1       7.475   4.689  16.283  0.00  0.00    +0.000 A 
ATOM      7  C   UNL     1       6.283   4.579  15.609  0.00  0.00    +0.000 A 
ATOM      8  N   UNL     1       5.110   4.403  16.262  0.00  0.00    +0.000 NA
ENDROOT
BRANCH   7   9
ATOM      9  C   UNL     1       6.245   4.667  14.104  0.00  0.00    +0.000 C 
ATOM     10  C   UNL     1       7.588   5.032  13.473  0.00  0.00    +0.000 C 
ATOM     11  C   UNL     1       7.424   4.636  12.011  0.00  0.00    +0.000 C 
ATOM     12  C   UNL     1       6.436   3.471  11.998  0.00  0.00    +0.000 C 
ATOM     13  C   UNL     1       5.895   3.342  13.420  0.00  0.00    +0.000 C 
ENDBRANCH   7   9
BRANCH   2  14
ATOM     14  C   UNL     1       3.841   4.536  19.688  0.00  0.00    +0.000 C 
BRANCH  14  15
ATOM     15  C   UNL     1       3.071   3.596  20.565  0.00  0.00    +0.000 A 
ATOM     16  N   UNL     1       3.563   2.557  21.216  0.00  0.00    +0.000 NA
ATOM     17  N   UNL     1       2.552   1.993  21.958  0.00  0.00    +0.000 NA
ATOM     18  C   UNL     1       1.465   2.694  21.741  0.00  0.00    +0.000 A 
ATOM     19  N   UNL     1       1.739   3.701  20.869  0.00  0.00    +0.000 N 
ATOM     20  C   UNL     1       0.798   4.683  20.399  0.00  0.00    +0.000 C 
ENDBRANCH  14  15
ENDBRANCH   2  14
TORSDOF 3
ENDMDL
MODEL 5
REMARK VINA RESULT:      -7.0      2.216      3.886
REMARK  Name = 
REMARK  5 active torsions:
REMARK  status: ('A' for Active; 'I' for Inactive)
REMARK    1  A    between atoms: C_1  and  N_2
REMARK    2  A    between atoms: N_2  and  C_3
REMARK    3  A    between atoms: C_3  and  C_4
REMARK    4  A    between atoms: N_8  and  C_9
REMARK    5  A    between atoms: C_14  and  C_15
REMARK                            x       y       z     vdW  Elec       q    Type
REMARK                         _______ _______ _______ _____ _____    ______ ____
ROOT
ATOM      1  C   UNL     1       5.082   3.123  19.058  0.00  0.00    +0.000 C 
ATOM      2  N   UNL     1       4.654   4.495  18.877  0.00  0.00    +0.000 N 
ATOM      3  C   UNL     1       4.869   5.095  17.660  0.00  0.00    +0.000 A 
ATOM      4  N   UNL     1       4.507   6.379  17.507  0.00  0.00    +0.000 NA
ATOM      5  C   UNL     1       4.763   6.963  16.328  0.00  0.00    +0.000 A 
ATOM      6  C   UNL     1       5.343   6.312  15.268  0.00  0.00    +0.000 A 
ATOM      7  C   UNL     1       5.657   4.991  15.476  0.00  0.00    +0.000 A 
ATOM      8  N   UNL     1       5.438   4.387  16.668  0.00  0.00    +0.000 NA
ENDROOT
BRANCH   7   9
ATOM      9  C   UNL     1       6.247   4.161  14.363  0.00  0.00    +0.000 C 
ATOM     10  C   UNL     1       5.218   3.672  13.346  0.00  0.00    +0.000 C 
ATOM     11  C   UNL     1       6.060   3.267  12.141  0.00  0.00    +0.000 C 
ATOM     12  C   UNL     1       7.298   4.162  12.173  0.00  0.00    +0.000 C 
ATOM     13  C   UNL     1       7.251   4.924  13.496  0.00  0.00    +0.000 C 
ENDBRANCH   7   9
BRANCH   2  14
ATOM     14  C   UNL     1       3.701   5.084  19.809  0.00  0.00    +0.000 C 
BRANCH  14  15
ATOM     15  C   UNL     1       2.560   4.212  20.236  0.00  0.00    +0.000 A 
ATOM     16  N   UNL     1       2.330   3.771  21.459  0.00  0.00    +0.000 NA
ATOM     17  N   UNL     1       1.153   3.060  21.448  0.00  0.00    +0.000 NA
ATOM     18  C   UNL     1       0.692   3.077  20.221  0.00  0.00    +0.000 A 
ATOM     19  N   UNL     1       1.544   3.778  19.424  0.00  0.00    +0.000 N 
ATOM     20  C   UNL     1       1.369   4.020  18.017  0.00  0.00    +0.000 C 
ENDBRANCH  14  15
ENDBRANCH   2  14
TORSDOF 3
ENDMDL
MODEL 6
REMARK VINA RESULT:      -6.8      1.984      3.822
REMARK  Name = 
REMARK  5 active torsions:
REMARK  status: ('A' for Active; 'I' for Inactive)
REMARK    1  A    between atoms: C_1  and  N_2
REMARK    2  A    between atoms: N_2  and  C_3
REMARK    3  A    between atoms: C_3  and  C_4
REMARK    4  A    between atoms: N_8  and  C_9
REMARK    5  A    between atoms: C_14  and  C_15
REMARK                            x       y       z     vdW  Elec       q    Type
REMARK                         _______ _______ _______ _____ _____    ______ ____
ROOT
ATOM      1  C   UNL     1       3.727   2.161  17.591  0.00  0.00    +0.000 C 
ATOM      2  N   UNL     1       4.605   2.984  18.397  0.00  0.00    +0.000 N 
ATOM      3  C   UNL     1       5.474   3.837  17.759  0.00  0.00    +0.000 A 
ATOM      4  N   UNL     1       6.314   4.570  18.506  0.00  0.00    +0.000 NA
ATOM      5  C   UNL     1       7.185   5.366  17.869  0.00  0.00    +0.000 A 
ATOM      6  C   UNL     1       7.239   5.490  16.503  0.00  0.00    +0.000 A 
ATOM      7  C   UNL     1       6.329   4.741  15.797  0.00  0.00    +0.000 A 
ATOM      8  N   UNL     1       5.462   3.906  16.416  0.00  0.00    +0.000 NA
ENDROOT
BRANCH   7   9
ATOM      9  C   UNL     1       6.260   4.840  14.293  0.00  0.00    +0.000 C 
ATOM     10  C   UNL     1       7.611   5.101  13.629  0.00  0.00    +0.000 C 
ATOM     11  C   UNL     1       7.379   4.728  12.170  0.00  0.00    +0.000 C 
ATOM     12  C   UNL     1       6.300   3.645  12.179  0.00  0.00    +0.000 C 
ATOM     13  C   UNL     1       5.788   3.552  13.614  0.00  0.00    +0.000 C 
ENDBRANCH   7   9
BRANCH   2  14
ATOM     14  C   UNL     1       4.317   3.179  19.811  0.00  0.00    +0.000 C 
BRANCH  14  15
ATOM     15  C   UNL     1       2.880   3.397  20.175  0.00  0.00    +0.000 A 
ATOM     16  N   UNL     1       2.071   2.509  20.723  0.00  0.00    +0.000 NA
ATOM     17  N   UNL     1       0.860   3.116  20.961  0.00  0.00    +0.000 NA
ATOM     18  C   UNL     1       0.953   4.357  20.549  0.00  0.00    +0.000 A 
ATOM     19  N   UNL     1       2.196   4.577  20.041  0.00  0.00    +0.000 N 
ATOM     20  C   UNL     1       2.673   5.822  19.502  0.00  0.00    +0.000 C 
ENDBRANCH  14  15
ENDBRANCH   2  14
TORSDOF 3
ENDMDL
MODEL 7
REMARK VINA RESULT:      -6.8      3.141      6.279
REMARK  Name = 
REMARK  5 active torsions:
REMARK  status: ('A' for Active; 'I' for Inactive)
REMARK    1  A    between atoms: C_1  and  N_2
REMARK    2  A    between atoms: N_2  and  C_3
REMARK    3  A    between atoms: C_3  and  C_4
REMARK    4  A    between atoms: N_8  and  C_9
REMARK    5  A    between atoms: C_14  and  C_15
REMARK                            x       y       z     vdW  Elec       q    Type
REMARK                         _______ _______ _______ _____ _____    ______ ____
ROOT
ATOM      1  C   UNL     1       3.050   4.290  20.055  0.00  0.00    +0.000 C 
ATOM      2  N   UNL     1       3.403   5.195  18.981  0.00  0.00    +0.000 N 
ATOM      3  C   UNL     1       2.854   6.456  18.977  0.00  0.00    +0.000 A 
ATOM      4  N   UNL     1       3.151   7.280  17.959  0.00  0.00    +0.000 NA
ATOM      5  C   UNL     1       2.575   8.490  17.948  0.00  0.00    +0.000 A 
ATOM      6  C   UNL     1       1.729   8.937  18.932  0.00  0.00    +0.000 A 
ATOM      7  C   UNL     1       1.494   8.061  19.963  0.00  0.00    +0.000 A 
ATOM      8  N   UNL     1       2.038   6.822  19.981  0.00  0.00    +0.000 NA
ENDROOT
BRANCH   7   9
ATOM      9  C   UNL     1       0.624   8.466  21.127  0.00  0.00    +0.000 C 
ATOM     10  C   UNL     1       1.408   8.973  22.337  0.00  0.00    +0.000 C 
ATOM     11  C   UNL     1       0.363   9.710  23.166  0.00  0.00    +0.000 C 
ATOM     12  C   UNL     1      -0.668  10.239  22.171  0.00  0.00    +0.000 C 
ATOM     13  C   UNL     1      -0.314   9.634  20.814  0.00  0.00    +0.000 C 
ENDBRANCH   7   9
BRANCH   2  14
ATOM     14  C   UNL     1       4.571   4.920  18.157  0.00  0.00    +0.000 C 
BRANCH  14  15
ATOM     15  C   UNL     1       5.900   5.301  18.735  0.00  0.00    +0.000 A 
ATOM     16  N   UNL     1       6.437   4.819  19.840  0.00  0.00    +0.000 NA
ATOM     17  N   UNL     1       7.687   5.372  19.991  0.00  0.00    +0.000 NA
ATOM     18  C   UNL     1       7.884   6.184  18.981  0.00  0.00    +0.000 A 
ATOM     19  N   UNL     1       6.790   6.180  18.173  0.00  0.00    +0.000 N 
ATOM     20  C   UNL     1       6.639   6.940  16.961  0.00  0.00    +0.000 C 
ENDBRANCH  14  15
ENDBRANCH   2  14
TORSDOF 3
ENDMDL
MODEL 8
REMARK VINA RESULT:      -6.8      1.785      3.561
REMARK  Name = 
REMARK  5 active torsions:
REMARK  status: ('A' for Active; 'I' for Inactive)
REMARK    1  A    between atoms: C_1  and  N_2
REMARK    2  A    between atoms: N_2  and  C_3
REMARK    3  A    between atoms: C_3  and  C_4
REMARK    4  A    between atoms: N_8  and  C_9
REMARK    5  A    between atoms: C_14  and  C_15
REMARK                            x       y       z     vdW  Elec       q    Type
REMARK                         _______ _______ _______ _____ _____    ______ ____
ROOT
ATOM      1  C   UNL     1       2.677   3.148  17.047  0.00  0.00    +0.000 C 
ATOM      2  N   UNL     1       3.509   3.993  17.878  0.00  0.00    +0.000 N 
ATOM      3  C   UNL     1       4.743   4.371  17.404  0.00  0.00    +0.000 A 
ATOM      4  N   UNL     1       5.529   5.122  18.192  0.00  0.00    +0.000 NA
ATOM      5  C   UNL     1       6.745   5.447  17.732  0.00  0.00    +0.000 A 
ATOM      6  C   UNL     1       7.212   5.079  16.495  0.00  0.00    +0.000 A 
ATOM      7  C   UNL     1       6.347   4.342  15.723  0.00  0.00    +0.000 A 
ATOM      8  N   UNL     1       5.126   3.975  16.177  0.00  0.00    +0.000 NA
ENDROOT
BRANCH   7   9
ATOM      9  C   UNL     1       6.732   3.930  14.324  0.00  0.00    +0.000 C 
ATOM     10  C   UNL     1       5.541   3.607  13.425  0.00  0.00    +0.000 C 
ATOM     11  C   UNL     1       6.122   3.658  12.017  0.00  0.00    +0.000 C 
ATOM     12  C   UNL     1       7.272   4.663  12.072  0.00  0.00    +0.000 C 
ATOM     13  C   UNL     1       7.465   5.024  13.543  0.00  0.00    +0.000 C 
ENDBRANCH   7   9
BRANCH   2  14
ATOM     14  C   UNL     1       2.917   4.719  18.993  0.00  0.00    +0.000 C 
BRANCH  14  15
ATOM     15  C   UNL     1       2.408   3.890  20.133  0.00  0.00    +0.000 A 
ATOM     16  N   UNL     1       1.235   4.015  20.726  0.00  0.00    +0.000 NA
ATOM     17  N   UNL     1       1.123   3.028  21.677  0.00  0.00    +0.000 NA
ATOM     18  C   UNL     1       2.230   2.326  21.649  0.00  0.00    +0.000 A 
ATOM     19  N   UNL     1       3.067   2.834  20.705  0.00  0.00    +0.000 N 
ATOM     20  C   UNL     1       4.372   2.322  20.379  0.00  0.00    +0.000 C 
ENDBRANCH  14  15
ENDBRANCH   2  14
TORSDOF 3
ENDMDL
MODEL 9
REMARK VINA RESULT:      -6.8      3.859      6.146
REMARK  Name = 
REMARK  5 active torsions:
REMARK  status: ('A' for Active; 'I' for Inactive)
REMARK    1  A    between atoms: C_1  and  N_2
REMARK    2  A    between atoms: N_2  and  C_3
REMARK    3  A    between atoms: C_3  and  C_4
REMARK    4  A    between atoms: N_8  and  C_9
REMARK    5  A    between atoms: C_14  and  C_15
REMARK                            x       y       z     vdW  Elec       q    Type
REMARK                         _______ _______ _______ _____ _____    ______ ____
ROOT
ATOM      1  C   UNL     1       2.075   5.574  20.741  0.00  0.00    +0.000 C 
ATOM      2  N   UNL     1       2.313   6.180  19.448  0.00  0.00    +0.000 N 
ATOM      3  C   UNL     1       1.978   7.501  19.269  0.00  0.00    +0.000 A 
ATOM      4  N   UNL     1       2.162   8.050  18.058  0.00  0.00    +0.000 NA
ATOM      5  C   UNL     1       1.791   9.327  17.888  0.00  0.00    +0.000 A 
ATOM      6  C   UNL     1       1.264  10.104  18.890  0.00  0.00    +0.000 A 
ATOM      7  C   UNL     1       1.134   9.494  20.114  0.00  0.00    +0.000 A 
ATOM      8  N   UNL     1       1.472   8.197  20.302  0.00  0.00    +0.000 NA
ENDROOT
BRANCH   7   9
ATOM      9  C   UNL     1       0.618  10.268  21.302  0.00  0.00    +0.000 C 
ATOM     10  C   UNL     1      -0.514  11.236  20.964  0.00  0.00    +0.000 C 
ATOM     11  C   UNL     1      -1.143  11.549  22.316  0.00  0.00    +0.000 C 
ATOM     12  C   UNL     1      -0.920  10.310  23.181  0.00  0.00    +0.000 C 
ATOM     13  C   UNL     1       0.001   9.385  22.389  0.00  0.00    +0.000 C 
ENDBRANCH   7   9
BRANCH   2  14
ATOM     14  C   UNL     1       3.213   5.535  18.501  0.00  0.00    +0.000 C 
BRANCH  14  15
ATOM     15  C   UNL     1       2.919   4.103  18.172  0.00  0.00    +0.000 A 
ATOM     16  N   UNL     1       2.012   3.669  17.316  0.00  0.00    +0.000 NA
ATOM     17  N   UNL     1       2.100   2.298  17.250  0.00  0.00    +0.000 NA
ATOM     18  C   UNL     1       3.052   1.923  18.071  0.00  0.00    +0.000 A 
ATOM     19  N   UNL     1       3.587   3.017  18.677  0.00  0.00    +0.000 N 
ATOM     20  C   UNL     1       4.660   3.004  19.635  0.00  0.00    +0.000 C 
ENDBRANCH  14  15
ENDBRANCH   2  14
TORSDOF 3
ENDMDL
