MODEL 1
REMARK VINA RESULT:      -7.4      0.000      0.000
REMARK  Name = 
REMARK  6 active torsions:
REMARK  status: ('A' for Active; 'I' for Inactive)
REMARK    1  A    between atoms: C_4  and  O_5
REMARK    2  A    between atoms: N_9  and  C_10
REMARK    3  A    between atoms: C_13  and  C_14
REMARK    4  A    between atoms: C_14  and  O_15
REMARK    5  A    between atoms: C_16  and  O_17
REMARK    6  A    between atoms: C_18  and  O_19
REMARK                            x       y       z     vdW  Elec       q    Type
REMARK                         _______ _______ _______ _____ _____    ______ ____
ROOT
ATOM      1  C   UNL     1       4.101   4.687  17.455  0.00  0.00    +0.000 C 
ATOM      2  C   UNL     1       4.513   4.168  18.797  0.00  0.00    +0.000 C 
ATOM      3  F   UNL     1       5.222   4.887  19.687  0.00  0.00    +0.000 F 
ATOM      4  C   UNL     1       4.078   2.927  19.054  0.00  0.00    +0.000 C 
ATOM      5  C   UNL     1       3.333   2.390  17.877  0.00  0.00    +0.000 C 
ATOM      6  C   UNL     1       3.017   3.651  17.044  0.00  0.00    +0.000 C 
ENDROOT
BRANCH   1  14
ATOM      7  O   UNL     1       6.185   6.378  17.799  0.00  0.00    +0.000 OA
ATOM      8  C   UNL     1       6.196   5.735  16.754  0.00  0.00    +0.000 A 
ATOM      9  N   UNL     1       7.166   5.954  15.808  0.00  0.00    +0.000 NA
ATOM     10  C   UNL     1       7.095   5.288  14.717  0.00  0.00    +0.000 A 
ATOM     11  C   UNL     1       6.103   4.279  14.330  0.00  0.00    +0.000 A 
ATOM     12  I   UNL     1       6.079   3.335  12.540  0.00  0.00    +0.000 I 
ATOM     13  C   UNL     1       5.187   4.080  15.283  0.00  0.00    +0.000 A 
ATOM     14  N   UNL     1       5.203   4.776  16.483  0.00  0.00    +0.000 N 
BRANCH  10  15
ATOM     15  O   UNL     1       8.032   5.535  13.793  0.00  0.00    +0.000 OA
ATOM     16  H   UNL     1       7.588   5.914  13.014  0.00  0.00    +0.000 HD
ENDBRANCH  10  15
ENDBRANCH   1  14
BRANCH   5  17
ATOM     17  O   UNL     1       2.159   1.719  18.316  0.00  0.00    +0.000 OA
ATOM     18  H   UNL     1       2.212   0.814  17.946  0.00  0.00    +0.000 HD
ENDBRANCH   5  17
BRANCH   6  19
ATOM     19  O   UNL     1       1.680   4.094  17.360  0.00  0.00    +0.000 OA
ATOM     20  H   UNL     1       1.704   4.557  18.218  0.00  0.00    +0.000 HD
ENDBRANCH   6  19
BRANCH   4  21
ATOM     21  C   UNL     1       4.314   2.138  20.287  0.00  0.00    +0.000 C 
BRANCH  21  22
ATOM     22  O   UNL     1       5.316   1.161  20.042  0.00  0.00    +0.000 OA
ATOM     23  H   UNL     1       5.634   0.877  20.923  0.00  0.00    +0.000 HD
ENDBRANCH  21  22
ENDBRANCH   4  21
TORSDOF 6
ENDMDL
MODEL 2
REMARK VINA RESULT:      -7.2      1.037      1.213
REMARK  Name = 
REMARK  6 active torsions:
REMARK  status: ('A' for Active; 'I' for Inactive)
REMARK    1  A    between atoms: C_4  and  O_5
REMARK    2  A    between atoms: N_9  and  C_10
REMARK    3  A    between atoms: C_13  and  C_14
REMARK    4  A    between atoms: C_14  and  O_15
REMARK    5  A    between atoms: C_16  and  O_17
REMARK    6  A    between atoms: C_18  and  O_19
REMARK                            x       y       z     vdW  Elec       q    Type
REMARK                         _______ _______ _______ _____ _____    ______ ____
ROOT
ATOM      1  C   UNL     1       4.556   4.917  17.880  0.00  0.00    +0.000 C 
ATOM      2  C   UNL     1       4.494   3.612  18.612  0.00  0.00    +0.000 C 
ATOM      3  F   UNL     1       5.442   3.198  19.473  0.00  0.00    +0.000 F 
ATOM      4  C   UNL     1       3.385   2.904  18.362  0.00  0.00    +0.000 C 
ATOM      5  C   UNL     1       2.535   3.616  17.362  0.00  0.00    +0.000 C 
ATOM      6  C   UNL     1       3.091   5.056  17.376  0.00  0.00    +0.000 C 
ENDROOT
BRANCH   1  14
ATOM      7  O   UNL     1       6.797   6.428  18.007  0.00  0.00    +0.000 OA
ATOM      8  C   UNL     1       6.633   5.814  16.956  0.00  0.00    +0.000 A 
ATOM      9  N   UNL     1       7.503   5.982  15.907  0.00  0.00    +0.000 NA
ATOM     10  C   UNL     1       7.251   5.354  14.820  0.00  0.00    +0.000 A 
ATOM     11  C   UNL     1       6.141   4.437  14.534  0.00  0.00    +0.000 A 
ATOM     12  I   UNL     1       5.833   3.548  12.743  0.00  0.00    +0.000 I 
ATOM     13  C   UNL     1       5.329   4.285  15.585  0.00  0.00    +0.000 A 
ATOM     14  N   UNL     1       5.541   4.945  16.787  0.00  0.00    +0.000 N 
BRANCH  10  15
ATOM     15  O   UNL     1       8.092   5.551  13.796  0.00  0.00    +0.000 OA
ATOM     16  H   UNL     1       8.114   4.733  13.269  0.00  0.00    +0.000 HD
ENDBRANCH  10  15
ENDBRANCH   1  14
BRANCH   5  17
ATOM     17  O   UNL     1       1.172   3.555  17.760  0.00  0.00    +0.000 OA
ATOM     18  H   UNL     1       0.861   2.657  17.522  0.00  0.00    +0.000 HD
ENDBRANCH   5  17
BRANCH   6  19
ATOM     19  O   UNL     1       2.277   5.860  18.255  0.00  0.00    +0.000 OA
ATOM     20  H   UNL     1       2.228   5.417  19.122  0.00  0.00    +0.000 HD
ENDBRANCH   6  19
BRANCH   4  21
ATOM     21  C   UNL     1       3.027   1.581  18.928  0.00  0.00    +0.000 C 
BRANCH  21  22
ATOM     22  O   UNL     1       3.957   0.605  18.481  0.00  0.00    +0.000 OA
ATOM     23  H   UNL     1       3.495  -0.256  18.545  0.00  0.00    +0.000 HD
ENDBRANCH  21  22
ENDBRANCH   4  21
TORSDOF 6
ENDMDL
MODEL 3
REMARK VINA RESULT:      -7.1      1.983      2.516
REMARK  Name = 
REMARK  6 active torsions:
REMARK  status: ('A' for Active; 'I' for Inactive)
REMARK    1  A    between atoms: C_4  and  O_5
REMARK    2  A    between atoms: N_9  and  C_10
REMARK    3  A    between atoms: C_13  and  C_14
REMARK    4  A    between atoms: C_14  and  O_15
REMARK    5  A    between atoms: C_16  and  O_17
REMARK    6  A    between atoms: C_18  and  O_19
REMARK                            x       y       z     vdW  Elec       q    Type
REMARK                         _______ _______ _______ _____ _____    ______ ____
ROOT
ATOM      1  C   UNL     1       4.648   4.163  19.446  0.00  0.00    +0.000 C 
ATOM      2  C   UNL     1       4.028   2.800  19.448  0.00  0.00    +0.000 C 
ATOM      3  F   UNL     1       4.705   1.676  19.751  0.00  0.00    +0.000 F 
ATOM      4  C   UNL     1       2.720   2.800  19.157  0.00  0.00    +0.000 C 
ATOM      5  C   UNL     1       2.261   4.189  18.858  0.00  0.00    +0.000 C 
ATOM      6  C   UNL     1       3.388   5.074  19.434  0.00  0.00    +0.000 C 
ENDROOT
BRANCH   1  14
ATOM      7  O   UNL     1       6.962   5.540  19.712  0.00  0.00    +0.000 OA
ATOM      8  C   UNL     1       6.686   5.187  18.569  0.00  0.00    +0.000 A 
ATOM      9  N   UNL     1       7.477   5.566  17.511  0.00  0.00    +0.000 NA
ATOM     10  C   UNL     1       7.110   5.211  16.338  0.00  0.00    +0.000 A 
ATOM     11  C   UNL     1       5.938   4.416  15.951  0.00  0.00    +0.000 A 
ATOM     12  I   UNL     1       5.447   3.969  14.040  0.00  0.00    +0.000 I 
ATOM     13  C   UNL     1       5.206   4.051  17.008  0.00  0.00    +0.000 A 
ATOM     14  N   UNL     1       5.543   4.412  18.305  0.00  0.00    +0.000 N 
BRANCH  10  15
ATOM     15  O   UNL     1       7.876   5.613  15.315  0.00  0.00    +0.000 OA
ATOM     16  H   UNL     1       8.159   4.819  14.827  0.00  0.00    +0.000 HD
ENDBRANCH  10  15
ENDBRANCH   1  14
BRANCH   5  17
ATOM     17  O   UNL     1       1.008   4.427  19.487  0.00  0.00    +0.000 OA
ATOM     18  H   UNL     1       0.615   5.195  19.023  0.00  0.00    +0.000 HD
ENDBRANCH   5  17
BRANCH   6  19
ATOM     19  O   UNL     1       3.007   5.511  20.756  0.00  0.00    +0.000 OA
ATOM     20  H   UNL     1       3.104   4.758  21.368  0.00  0.00    +0.000 HD
ENDBRANCH   6  19
BRANCH   4  21
ATOM     21  C   UNL     1       1.825   1.621  19.081  0.00  0.00    +0.000 C 
BRANCH  21  22
ATOM     22  O   UNL     1       0.679   1.943  18.305  0.00  0.00    +0.000 OA
ATOM     23  H   UNL     1      -0.079   1.523  18.759  0.00  0.00    +0.000 HD
ENDBRANCH  21  22
ENDBRANCH   4  21
TORSDOF 6
ENDMDL
MODEL 4
REMARK VINA RESULT:      -7.1      1.824      2.530
REMARK  Name = 
REMARK  6 active torsions:
REMARK  status: ('A' for Active; 'I' for Inactive)
REMARK    1  A    between atoms: C_4  and  O_5
REMARK    2  A    between atoms: N_9  and  C_10
REMARK    3  A    between atoms: C_13  and  C_14
REMARK    4  A    between atoms: C_14  and  O_15
REMARK    5  A    between atoms: C_16  and  O_17
REMARK    6  A    between atoms: C_18  and  O_19
REMARK                            x       y       z     vdW  Elec       q    Type
REMARK                         _______ _______ _______ _____ _____    ______ ____
ROOT
ATOM      1  C   UNL     1       5.139   4.190  17.905  0.00  0.00    +0.000 C 
ATOM      2  C   UNL     1       3.922   3.325  17.793  0.00  0.00    +0.000 C 
ATOM      3  F   UNL     1       3.971   1.988  17.643  0.00  0.00    +0.000 F 
ATOM      4  C   UNL     1       2.768   3.999  17.895  0.00  0.00    +0.000 C 
ATOM      5  C   UNL     1       3.038   5.459  18.043  0.00  0.00    +0.000 C 
ATOM      6  C   UNL     1       4.527   5.512  18.448  0.00  0.00    +0.000 C 
ENDROOT
BRANCH   1  14
ATOM      7  O   UNL     1       7.355   5.732  17.727  0.00  0.00    +0.000 OA
ATOM      8  C   UNL     1       6.966   5.244  16.670  0.00  0.00    +0.000 A 
ATOM      9  N   UNL     1       7.585   5.558  15.486  0.00  0.00    +0.000 NA
ATOM     10  C   UNL     1       7.102   5.058  14.411  0.00  0.00    +0.000 A 
ATOM     11  C   UNL     1       5.956   4.154  14.262  0.00  0.00    +0.000 A 
ATOM     12  I   UNL     1       5.264   3.477  12.485  0.00  0.00    +0.000 I 
ATOM     13  C   UNL     1       5.392   3.856  15.437  0.00  0.00    +0.000 A 
ATOM     14  N   UNL     1       5.862   4.373  16.637  0.00  0.00    +0.000 N 
BRANCH  10  15
ATOM     15  O   UNL     1       7.700   5.398  13.261  0.00  0.00    +0.000 OA
ATOM     16  H   UNL     1       8.659   5.426  13.423  0.00  0.00    +0.000 HD
ENDBRANCH  10  15
ENDBRANCH   1  14
BRANCH   5  17
ATOM     17  O   UNL     1       2.184   6.008  19.039  0.00  0.00    +0.000 OA
ATOM     18  H   UNL     1       2.699   5.997  19.872  0.00  0.00    +0.000 HD
ENDBRANCH   5  17
BRANCH   6  19
ATOM     19  O   UNL     1       4.615   5.615  19.885  0.00  0.00    +0.000 OA
ATOM     20  H   UNL     1       5.533   5.848  20.121  0.00  0.00    +0.000 HD
ENDBRANCH   6  19
BRANCH   4  21
ATOM     21  C   UNL     1       1.399   3.435  17.828  0.00  0.00    +0.000 C 
BRANCH  21  22
ATOM     22  O   UNL     1       0.888   3.270  19.143  0.00  0.00    +0.000 OA
ATOM     23  H   UNL     1       0.863   2.304  19.303  0.00  0.00    +0.000 HD
ENDBRANCH  21  22
ENDBRANCH   4  21
TORSDOF 6
ENDMDL
MODEL 5
REMARK VINA RESULT:      -7.1      3.428      5.815
REMARK  Name = 
REMARK  6 active torsions:
REMARK  status: ('A' for Active; 'I' for Inactive)
REMARK    1  A    between atoms: C_4  and  O_5
REMARK    2  A    between atoms: N_9  and  C_10
REMARK    3  A    between atoms: C_13  and  C_14
REMARK    4  A    between atoms: C_14  and  O_15
REMARK    5  A    between atoms: C_16  and  O_17
REMARK    6  A    between atoms: C_18  and  O_19
REMARK                            x       y       z     vdW  Elec       q    Type
REMARK                         _______ _______ _______ _____ _____    ______ ____
ROOT
ATOM      1  C   UNL     1       5.451   6.322  17.924  0.00  0.00    +0.000 C 
ATOM      2  C   UNL     1       5.499   6.092  16.445  0.00  0.00    +0.000 C 
ATOM      3  F   UNL     1       4.832   6.849  15.554  0.00  0.00    +0.000 F 
ATOM      4  C   UNL     1       6.300   5.082  16.080  0.00  0.00    +0.000 C 
ATOM      5  C   UNL     1       6.888   4.431  17.288  0.00  0.00    +0.000 C 
ATOM      6  C   UNL     1       6.661   5.471  18.406  0.00  0.00    +0.000 C 
ENDROOT
BRANCH   1  14
ATOM      7  O   UNL     1       3.299   7.960  17.991  0.00  0.00    +0.000 OA
ATOM      8  C   UNL     1       3.161   6.885  18.567  0.00  0.00    +0.000 A 
ATOM      9  N   UNL     1       2.012   6.608  19.265  0.00  0.00    +0.000 NA
ATOM     10  C   UNL     1       1.947   5.491  19.887  0.00  0.00    +0.000 A 
ATOM     11  C   UNL     1       2.952   4.423  19.946  0.00  0.00    +0.000 A 
ATOM     12  I   UNL     1       2.739   2.720  21.017  0.00  0.00    +0.000 I 
ATOM     13  C   UNL     1       4.047   4.721  19.240  0.00  0.00    +0.000 A 
ATOM     14  N   UNL     1       4.183   5.919  18.552  0.00  0.00    +0.000 N 
BRANCH  10  15
ATOM     15  O   UNL     1       0.831   5.250  20.586  0.00  0.00    +0.000 OA
ATOM     16  H   UNL     1       0.109   5.759  20.178  0.00  0.00    +0.000 HD
ENDBRANCH  10  15
ENDBRANCH   1  14
BRANCH   5  17
ATOM     17  O   UNL     1       8.267   4.163  17.066  0.00  0.00    +0.000 OA
ATOM     18  H   UNL     1       8.441   4.401  16.132  0.00  0.00    +0.000 HD
ENDBRANCH   5  17
BRANCH   6  19
ATOM     19  O   UNL     1       7.862   6.255  18.564  0.00  0.00    +0.000 OA
ATOM     20  H   UNL     1       7.959   6.481  19.508  0.00  0.00    +0.000 HD
ENDBRANCH   6  19
BRANCH   4  21
ATOM     21  C   UNL     1       6.563   4.608  14.700  0.00  0.00    +0.000 C 
BRANCH  21  22
ATOM     22  O   UNL     1       7.697   5.282  14.173  0.00  0.00    +0.000 OA
ATOM     23  H   UNL     1       7.958   4.783  13.372  0.00  0.00    +0.000 HD
ENDBRANCH  21  22
ENDBRANCH   4  21
TORSDOF 6
ENDMDL
MODEL 6
REMARK VINA RESULT:      -7.0      3.278      5.911
REMARK  Name = 
REMARK  6 active torsions:
REMARK  status: ('A' for Active; 'I' for Inactive)
REMARK    1  A    between atoms: C_4  and  O_5
REMARK    2  A    between atoms: N_9  and  C_10
REMARK    3  A    between atoms: C_13  and  C_14
REMARK    4  A    between atoms: C_14  and  O_15
REMARK    5  A    between atoms: C_16  and  O_17
REMARK    6  A    between atoms: C_18  and  O_19
REMARK                            x       y       z     vdW  Elec       q    Type
REMARK                         _______ _______ _______ _____ _____    ______ ____
ROOT
ATOM      1  C   UNL     1       5.550   4.202  18.404  0.00  0.00    +0.000 C 
ATOM      2  C   UNL     1       6.548   5.248  18.795  0.00  0.00    +0.000 C 
ATOM      3  F   UNL     1       7.194   5.253  19.975  0.00  0.00    +0.000 F 
ATOM      4  C   UNL     1       6.771   6.164  17.843  0.00  0.00    +0.000 C 
ATOM      5  C   UNL     1       5.901   5.898  16.660  0.00  0.00    +0.000 C 
ATOM      6  C   UNL     1       5.439   4.440  16.871  0.00  0.00    +0.000 C 
ENDROOT
BRANCH   1  14
ATOM      7  O   UNL     1       3.957   2.059  18.843  0.00  0.00    +0.000 OA
ATOM      8  C   UNL     1       3.502   3.138  19.210  0.00  0.00    +0.000 A 
ATOM      9  N   UNL     1       2.230   3.223  19.720  0.00  0.00    +0.000 NA
ATOM     10  C   UNL     1       1.793   4.384  20.038  0.00  0.00    +0.000 A 
ATOM     11  C   UNL     1       2.486   5.674  19.949  0.00  0.00    +0.000 A 
ATOM     12  I   UNL     1       1.652   7.450  20.441  0.00  0.00    +0.000 I 
ATOM     13  C   UNL     1       3.727   5.547  19.468  0.00  0.00    +0.000 A 
ATOM     14  N   UNL     1       4.257   4.320  19.096  0.00  0.00    +0.000 N 
BRANCH  10  15
ATOM     15  O   UNL     1       0.539   4.453  20.505  0.00  0.00    +0.000 OA
ATOM     16  H   UNL     1       0.111   3.597  20.332  0.00  0.00    +0.000 HD
ENDBRANCH  10  15
ENDBRANCH   1  14
BRANCH   5  17
ATOM     17  O   UNL     1       6.652   6.062  15.464  0.00  0.00    +0.000 OA
ATOM     18  H   UNL     1       7.562   6.292  15.746  0.00  0.00    +0.000 HD
ENDBRANCH   5  17
BRANCH   6  19
ATOM     19  O   UNL     1       6.297   3.565  16.110  0.00  0.00    +0.000 OA
ATOM     20  H   UNL     1       7.008   4.101  15.712  0.00  0.00    +0.000 HD
ENDBRANCH   6  19
BRANCH   4  21
ATOM     21  C   UNL     1       7.697   7.319  17.920  0.00  0.00    +0.000 C 
BRANCH  21  22
ATOM     22  O   UNL     1       7.195   8.384  17.125  0.00  0.00    +0.000 OA
ATOM     23  H   UNL     1       7.654   9.191  17.437  0.00  0.00    +0.000 HD
ENDBRANCH  21  22
ENDBRANCH   4  21
TORSDOF 6
ENDMDL
MODEL 7
REMARK VINA RESULT:      -6.7      2.418      2.858
REMARK  Name = 
REMARK  6 active torsions:
REMARK  status: ('A' for Active; 'I' for Inactive)
REMARK    1  A    between atoms: C_4  and  O_5
REMARK    2  A    between atoms: N_9  and  C_10
REMARK    3  A    between atoms: C_13  and  C_14
REMARK    4  A    between atoms: C_14  and  O_15
REMARK    5  A    between atoms: C_16  and  O_17
REMARK    6  A    between atoms: C_18  and  O_19
REMARK                            x       y       z     vdW  Elec       q    Type
REMARK                         _______ _______ _______ _____ _____    ______ ____
ROOT
ATOM      1  C   UNL     1       2.013   4.730  18.629  0.00  0.00    +0.000 C 
ATOM      2  C   UNL     1       2.206   4.457  20.089  0.00  0.00    +0.000 C 
ATOM      3  F   UNL     1       2.214   5.419  21.030  0.00  0.00    +0.000 F 
ATOM      4  C   UNL     1       2.332   3.156  20.383  0.00  0.00    +0.000 C 
ATOM      5  C   UNL     1       2.293   2.340  19.134  0.00  0.00    +0.000 C 
ATOM      6  C   UNL     1       1.694   3.307  18.090  0.00  0.00    +0.000 C 
ENDROOT
BRANCH   1  14
ATOM      7  O   UNL     1       2.484   7.393  18.723  0.00  0.00    +0.000 OA
ATOM      8  C   UNL     1       3.279   6.740  18.054  0.00  0.00    +0.000 A 
ATOM      9  N   UNL     1       4.271   7.367  17.340  0.00  0.00    +0.000 NA
ATOM     10  C   UNL     1       5.038   6.637  16.620  0.00  0.00    +0.000 A 
ATOM     11  C   UNL     1       5.018   5.179  16.458  0.00  0.00    +0.000 A 
ATOM     12  I   UNL     1       6.265   4.153  15.239  0.00  0.00    +0.000 I 
ATOM     13  C   UNL     1       4.052   4.604  17.182  0.00  0.00    +0.000 A 
ATOM     14  N   UNL     1       3.182   5.339  17.975  0.00  0.00    +0.000 N 
BRANCH  10  15
ATOM     15  O   UNL     1       5.982   7.267  15.908  0.00  0.00    +0.000 OA
ATOM     16  H   UNL     1       6.149   8.126  16.333  0.00  0.00    +0.000 HD
ENDBRANCH  10  15
ENDBRANCH   1  14
BRANCH   5  17
ATOM     17  O   UNL     1       1.485   1.188  19.336  0.00  0.00    +0.000 OA
ATOM     18  H   UNL     1       0.596   1.420  18.997  0.00  0.00    +0.000 HD
ENDBRANCH   5  17
BRANCH   6  19
ATOM     19  O   UNL     1       0.277   3.058  17.986  0.00  0.00    +0.000 OA
ATOM     20  H   UNL     1      -0.072   3.574  17.235  0.00  0.00    +0.000 HD
ENDBRANCH   6  19
BRANCH   4  21
ATOM     21  C   UNL     1       2.531   2.563  21.728  0.00  0.00    +0.000 C 
BRANCH  21  22
ATOM     22  O   UNL     1       1.268   2.311  22.328  0.00  0.00    +0.000 OA
ATOM     23  H   UNL     1       0.895   1.540  21.854  0.00  0.00    +0.000 HD
ENDBRANCH  21  22
ENDBRANCH   4  21
TORSDOF 6
ENDMDL
MODEL 8
REMARK VINA RESULT:      -6.5      9.943     11.492
REMARK  Name = 
REMARK  6 active torsions:
REMARK  status: ('A' for Active; 'I' for Inactive)
REMARK    1  A    between atoms: C_4  and  O_5
REMARK    2  A    between atoms: N_9  and  C_10
REMARK    3  A    between atoms: C_13  and  C_14
REMARK    4  A    between atoms: C_14  and  O_15
REMARK    5  A    between atoms: C_16  and  O_17
REMARK    6  A    between atoms: C_18  and  O_19
REMARK                            x       y       z     vdW  Elec       q    Type
REMARK                         _______ _______ _______ _____ _____    ______ ____
ROOT
ATOM      1  C   UNL     1      -1.772  12.435  19.742  0.00  0.00    +0.000 C 
ATOM      2  C   UNL     1      -3.213  12.227  19.395  0.00  0.00    +0.000 C 
ATOM      3  F   UNL     1      -4.232  12.623  20.181  0.00  0.00    +0.000 F 
ATOM      4  C   UNL     1      -3.403  11.642  18.205  0.00  0.00    +0.000 C 
ATOM      5  C   UNL     1      -2.089  11.313  17.578  0.00  0.00    +0.000 C 
ATOM      6  C   UNL     1      -1.084  12.176  18.372  0.00  0.00    +0.000 C 
ENDROOT
BRANCH   1  14
ATOM      7  O   UNL     1      -2.107  13.011  22.365  0.00  0.00    +0.000 OA
ATOM      8  C   UNL     1      -1.469  11.990  22.127  0.00  0.00    +0.000 A 
ATOM      9  N   UNL     1      -0.902  11.267  23.147  0.00  0.00    +0.000 NA
ATOM     10  C   UNL     1      -0.206  10.240  22.832  0.00  0.00    +0.000 A 
ATOM     11  C   UNL     1       0.065   9.698  21.496  0.00  0.00    +0.000 A 
ATOM     12  I   UNL     1       1.234   8.085  21.137  0.00  0.00    +0.000 I 
ATOM     13  C   UNL     1      -0.519  10.417  20.532  0.00  0.00    +0.000 A 
ATOM     14  N   UNL     1      -1.278  11.546  20.806  0.00  0.00    +0.000 N 
BRANCH  10  15
ATOM     15  O   UNL     1       0.365   9.562  23.837  0.00  0.00    +0.000 OA
ATOM     16  H   UNL     1       1.191  10.020  24.072  0.00  0.00    +0.000 HD
ENDBRANCH  10  15
ENDBRANCH   1  14
BRANCH   5  17
ATOM     17  O   UNL     1      -2.118  11.645  16.196  0.00  0.00    +0.000 OA
ATOM     18  H   UNL     1      -2.244  12.615  16.155  0.00  0.00    +0.000 HD
ENDBRANCH   5  17
BRANCH   6  19
ATOM     19  O   UNL     1      -0.835  13.393  17.638  0.00  0.00    +0.000 OA
ATOM     20  H   UNL     1      -1.447  14.079  17.963  0.00  0.00    +0.000 HD
ENDBRANCH   6  19
BRANCH   4  21
ATOM     21  C   UNL     1      -4.703  11.303  17.577  0.00  0.00    +0.000 C 
BRANCH  21  22
ATOM     22  O   UNL     1      -5.070  12.327  16.662  0.00  0.00    +0.000 OA
ATOM     23  H   UNL     1      -4.443  13.062  16.816  0.00  0.00    +0.000 HD
ENDBRANCH  21  22
ENDBRANCH   4  21
TORSDOF 6
ENDMDL
MODEL 9
REMARK VINA RESULT:      -6.4      4.926      6.043
REMARK  Name = 
REMARK  6 active torsions:
REMARK  status: ('A' for Active; 'I' for Inactive)
REMARK    1  A    between atoms: C_4  and  O_5
REMARK    2  A    between atoms: N_9  and  C_10
REMARK    3  A    between atoms: C_13  and  C_14
REMARK    4  A    between atoms: C_14  and  O_15
REMARK    5  A    between atoms: C_16  and  O_17
REMARK    6  A    between atoms: C_18  and  O_19
REMARK                            x       y       z     vdW  Elec       q    Type
REMARK                         _______ _______ _______ _____ _____    ______ ____
ROOT
ATOM      1  C   UNL     1       2.842   5.937  18.591  0.00  0.00    +0.000 C 
ATOM      2  C   UNL     1       1.865   4.846  18.283  0.00  0.00    +0.000 C 
ATOM      3  F   UNL     1       1.183   4.764  17.125  0.00  0.00    +0.000 F 
ATOM      4  C   UNL     1       1.755   3.929  19.253  0.00  0.00    +0.000 C 
ATOM      5  C   UNL     1       2.624   4.298  20.409  0.00  0.00    +0.000 C 
ATOM      6  C   UNL     1       3.594   5.341  19.814  0.00  0.00    +0.000 C 
ENDROOT
BRANCH   1  14
ATOM      7  O   UNL     1       2.921   7.996  16.836  0.00  0.00    +0.000 OA
ATOM      8  C   UNL     1       2.378   8.239  17.910  0.00  0.00    +0.000 A 
ATOM      9  N   UNL     1       1.936   9.506  18.198  0.00  0.00    +0.000 NA
ATOM     10  C   UNL     1       1.424   9.709  19.354  0.00  0.00    +0.000 A 
ATOM     11  C   UNL     1       1.219   8.745  20.441  0.00  0.00    +0.000 A 
ATOM     12  I   UNL     1       0.440   9.217  22.248  0.00  0.00    +0.000 I 
ATOM     13  C   UNL     1       1.644   7.520  20.115  0.00  0.00    +0.000 A 
ATOM     14  N   UNL     1       2.217   7.237  18.883  0.00  0.00    +0.000 N 
BRANCH  10  15
ATOM     15  O   UNL     1       1.025  10.958  19.630  0.00  0.00    +0.000 OA
ATOM     16  H   UNL     1       0.065  10.934  19.787  0.00  0.00    +0.000 HD
ENDBRANCH  10  15
ENDBRANCH   1  14
BRANCH   5  17
ATOM     17  O   UNL     1       3.296   3.143  20.894  0.00  0.00    +0.000 OA
ATOM     18  H   UNL     1       2.852   2.377  20.475  0.00  0.00    +0.000 HD
ENDBRANCH   5  17
BRANCH   6  19
ATOM     19  O   UNL     1       4.819   4.676  19.441  0.00  0.00    +0.000 OA
ATOM     20  H   UNL     1       5.527   4.975  20.041  0.00  0.00    +0.000 HD
ENDBRANCH   6  19
BRANCH   4  21
ATOM     21  C   UNL     1       0.881   2.732  19.251  0.00  0.00    +0.000 C 
BRANCH  21  22
ATOM     22  O   UNL     1       1.640   1.588  18.885  0.00  0.00    +0.000 OA
ATOM     23  H   UNL     1       1.016   0.835  18.901  0.00  0.00    +0.000 HD
ENDBRANCH  21  22
ENDBRANCH   4  21
TORSDOF 6
ENDMDL
