MODEL 1
REMARK VINA RESULT:      -7.4      0.000      0.000
REMARK  Name = 
REMARK  11 active torsions:
REMARK  status: ('A' for Active; 'I' for Inactive)
REMARK    1  A    between atoms: C_1  and  C_2
REMARK    2  A    between atoms: C_2  and  C_3
REMARK    3  A    between atoms: C_3  and  C_4
REMARK    4  A    between atoms: C_4  and  C_5
REMARK    5  A    between atoms: C_5  and  C_6
REMARK    6  A    between atoms: C_6  and  C_7
REMARK    7  A    between atoms: C_7  and  C_8
REMARK    8  A    between atoms: C_10  and  O_11
REMARK    9  A    between atoms: C_16  and  C_17
REMARK   10  A    between atoms: C_16  and  C_18
REMARK   11  A    between atoms: C_22  and  O_23
REMARK                            x       y       z     vdW  Elec       q    Type
REMARK                         _______ _______ _______ _____ _____    ______ ____
ROOT
ATOM      1  C   UNL     1       1.795   7.708  20.183  0.00  0.00    +0.000 A 
ATOM      2  C   UNL     1       1.659   8.065  21.535  0.00  0.00    +0.000 A 
ATOM      3  C   UNL     1       0.989   9.223  21.931  0.00  0.00    +0.000 A 
ATOM      4  C   UNL     1       0.403  10.087  20.999  0.00  0.00    +0.000 A 
ATOM      5  C   UNL     1       0.621   9.802  19.643  0.00  0.00    +0.000 A 
ATOM      6  C   UNL     1       1.299   8.642  19.256  0.00  0.00    +0.000 A 
ATOM      7  O   UNL     1       0.193  10.579  18.597  0.00  0.00    +0.000 OA
ATOM      8  C   UNL     1      -0.330  11.879  18.931  0.00  0.00    +0.000 C 
ATOM      9  C   UNL     1      -1.109  12.350  17.688  0.00  0.00    +0.000 C 
ATOM     10  C   UNL     1       0.861  12.839  19.117  0.00  0.00    +0.000 C 
ATOM     11  C   UNL     1      -1.266  11.736  20.158  0.00  0.00    +0.000 C 
ATOM     12  C   UNL     1      -2.142  12.964  20.451  0.00  0.00    +0.000 C 
ATOM     13  C   UNL     1      -2.994  12.772  21.702  0.00  0.00    +0.000 C 
ATOM     14  C   UNL     1      -2.133  12.393  22.895  0.00  0.00    +0.000 C 
ATOM     15  C   UNL     1      -1.341  11.124  22.608  0.00  0.00    +0.000 C 
ATOM     16  C   UNL     1      -0.420  11.301  21.387  0.00  0.00    +0.000 C 
ENDROOT
BRANCH   1  17
ATOM     17  C   UNL     1       2.353   6.253  19.753  0.00  0.00    +0.000 C 
ATOM     18  C   UNL     1       3.883   6.167  19.384  0.00  0.00    +0.000 C 
ATOM     19  C   UNL     1       3.476   6.383  17.913  0.00  0.00    +0.000 C 
ATOM     20  C   UNL     1       2.108   5.777  18.275  0.00  0.00    +0.000 C 
BRANCH  17  21
ATOM     21  C   UNL     1       1.907   5.218  20.814  0.00  0.00    +0.000 C 
BRANCH  21  22
ATOM     22  C   UNL     1       0.897   4.223  20.229  0.00  0.00    +0.000 C 
BRANCH  22  23
ATOM     23  C   UNL     1       1.420   2.790  20.256  0.00  0.00    +0.000 C 
BRANCH  23  24
ATOM     24  C   UNL     1       1.362   2.191  18.852  0.00  0.00    +0.000 C 
BRANCH  24  26
ATOM     25  C   UNL     1       3.828   2.325  19.259  0.00  0.00    +0.000 C 
ATOM     26  C   UNL     1       2.745   2.112  18.215  0.00  0.00    +0.000 C 
ENDBRANCH  24  26
ENDBRANCH  23  24
ENDBRANCH  22  23
ENDBRANCH  21  22
ENDBRANCH  17  21
ENDBRANCH   1  17
BRANCH   3  27
ATOM     27  O   UNL     1       0.908   9.491  23.266  0.00  0.00    +0.000 OA
ATOM     28  H   UNL     1       0.286   8.875  23.684  0.00  0.00    +0.000 HD
ENDBRANCH   3  27
BRANCH  14  29
ATOM     29  O   UNL     1      -2.956  12.207  24.041  0.00  0.00    +0.000 OA
ATOM     30  H   UNL     1      -3.521  11.433  23.882  0.00  0.00    +0.000 HD
ENDBRANCH  14  29
TORSDOF 8
ENDMDL
MODEL 2
REMARK VINA RESULT:      -7.3      2.025      3.738
REMARK  Name = 
REMARK  11 active torsions:
REMARK  status: ('A' for Active; 'I' for Inactive)
REMARK    1  A    between atoms: C_1  and  C_2
REMARK    2  A    between atoms: C_2  and  C_3
REMARK    3  A    between atoms: C_3  and  C_4
REMARK    4  A    between atoms: C_4  and  C_5
REMARK    5  A    between atoms: C_5  and  C_6
REMARK    6  A    between atoms: C_6  and  C_7
REMARK    7  A    between atoms: C_7  and  C_8
REMARK    8  A    between atoms: C_10  and  O_11
REMARK    9  A    between atoms: C_16  and  C_17
REMARK   10  A    between atoms: C_16  and  C_18
REMARK   11  A    between atoms: C_22  and  O_23
REMARK                            x       y       z     vdW  Elec       q    Type
REMARK                         _______ _______ _______ _____ _____    ______ ____
ROOT
ATOM      1  C   UNL     1       2.896   6.656  18.636  0.00  0.00    +0.000 A 
ATOM      2  C   UNL     1       2.640   7.651  17.677  0.00  0.00    +0.000 A 
ATOM      3  C   UNL     1       1.959   8.826  17.993  0.00  0.00    +0.000 A 
ATOM      4  C   UNL     1       1.504   9.084  19.292  0.00  0.00    +0.000 A 
ATOM      5  C   UNL     1       1.656   8.057  20.235  0.00  0.00    +0.000 A 
ATOM      6  C   UNL     1       2.336   6.880  19.906  0.00  0.00    +0.000 A 
ATOM      7  O   UNL     1       1.200   8.102  21.527  0.00  0.00    +0.000 OA
ATOM      8  C   UNL     1       0.324   9.194  21.865  0.00  0.00    +0.000 C 
ATOM      9  C   UNL     1       0.309   9.260  23.404  0.00  0.00    +0.000 C 
ATOM     10  C   UNL     1      -1.099   8.821  21.408  0.00  0.00    +0.000 C 
ATOM     11  C   UNL     1       0.898  10.497  21.254  0.00  0.00    +0.000 C 
ATOM     12  C   UNL     1       0.258  11.794  21.774  0.00  0.00    +0.000 C 
ATOM     13  C   UNL     1       0.833  13.029  21.088  0.00  0.00    +0.000 C 
ATOM     14  C   UNL     1       0.728  12.913  19.577  0.00  0.00    +0.000 C 
ATOM     15  C   UNL     1       1.446  11.664  19.080  0.00  0.00    +0.000 C 
ATOM     16  C   UNL     1       0.849  10.389  19.704  0.00  0.00    +0.000 C 
ENDROOT
BRANCH   1  17
ATOM     17  C   UNL     1       3.891   5.423  18.319  0.00  0.00    +0.000 C 
ATOM     18  C   UNL     1       4.796   4.923  19.509  0.00  0.00    +0.000 C 
ATOM     19  C   UNL     1       5.895   5.870  18.990  0.00  0.00    +0.000 C 
ATOM     20  C   UNL     1       5.252   5.741  17.597  0.00  0.00    +0.000 C 
BRANCH  17  21
ATOM     21  C   UNL     1       3.082   4.295  17.633  0.00  0.00    +0.000 C 
BRANCH  21  22
ATOM     22  C   UNL     1       3.539   2.913  18.113  0.00  0.00    +0.000 C 
BRANCH  22  23
ATOM     23  C   UNL     1       2.481   2.224  18.971  0.00  0.00    +0.000 C 
BRANCH  23  24
ATOM     24  C   UNL     1       1.180   3.024  18.929  0.00  0.00    +0.000 C 
BRANCH  24  26
ATOM     25  C   UNL     1       1.664   2.948  21.384  0.00  0.00    +0.000 C 
ATOM     26  C   UNL     1       0.829   3.603  20.295  0.00  0.00    +0.000 C 
ENDBRANCH  24  26
ENDBRANCH  23  24
ENDBRANCH  22  23
ENDBRANCH  21  22
ENDBRANCH  17  21
ENDBRANCH   1  17
BRANCH   3  27
ATOM     27  O   UNL     1       1.753   9.734  16.997  0.00  0.00    +0.000 OA
ATOM     28  H   UNL     1       1.853   9.300  16.135  0.00  0.00    +0.000 HD
ENDBRANCH   3  27
BRANCH  14  29
ATOM     29  O   UNL     1       1.285  14.072  18.967  0.00  0.00    +0.000 OA
ATOM     30  H   UNL     1       2.230  13.904  18.812  0.00  0.00    +0.000 HD
ENDBRANCH  14  29
TORSDOF 8
ENDMDL
MODEL 3
REMARK VINA RESULT:      -7.1      1.995      3.689
REMARK  Name = 
REMARK  11 active torsions:
REMARK  status: ('A' for Active; 'I' for Inactive)
REMARK    1  A    between atoms: C_1  and  C_2
REMARK    2  A    between atoms: C_2  and  C_3
REMARK    3  A    between atoms: C_3  and  C_4
REMARK    4  A    between atoms: C_4  and  C_5
REMARK    5  A    between atoms: C_5  and  C_6
REMARK    6  A    between atoms: C_6  and  C_7
REMARK    7  A    between atoms: C_7  and  C_8
REMARK    8  A    between atoms: C_10  and  O_11
REMARK    9  A    between atoms: C_16  and  C_17
REMARK   10  A    between atoms: C_16  and  C_18
REMARK   11  A    between atoms: C_22  and  O_23
REMARK                            x       y       z     vdW  Elec       q    Type
REMARK                         _______ _______ _______ _____ _____    ______ ____
ROOT
ATOM      1  C   UNL     1       3.094   6.813  18.705  0.00  0.00    +0.000 A 
ATOM      2  C   UNL     1       2.787   7.779  17.732  0.00  0.00    +0.000 A 
ATOM      3  C   UNL     1       2.024   8.909  18.025  0.00  0.00    +0.000 A 
ATOM      4  C   UNL     1       1.534   9.149  19.314  0.00  0.00    +0.000 A 
ATOM      5  C   UNL     1       1.740   8.144  20.270  0.00  0.00    +0.000 A 
ATOM      6  C   UNL     1       2.501   7.012  19.964  0.00  0.00    +0.000 A 
ATOM      7  O   UNL     1       1.263   8.171  21.555  0.00  0.00    +0.000 OA
ATOM      8  C   UNL     1       0.310   9.206  21.868  0.00  0.00    +0.000 C 
ATOM      9  C   UNL     1       0.268   9.285  23.407  0.00  0.00    +0.000 C 
ATOM     10  C   UNL     1      -1.078   8.734  21.395  0.00  0.00    +0.000 C 
ATOM     11  C   UNL     1       0.806  10.538  21.252  0.00  0.00    +0.000 C 
ATOM     12  C   UNL     1       0.074  11.795  21.749  0.00  0.00    +0.000 C 
ATOM     13  C   UNL     1       0.575  13.059  21.058  0.00  0.00    +0.000 C 
ATOM     14  C   UNL     1       0.501  12.921  19.547  0.00  0.00    +0.000 C 
ATOM     15  C   UNL     1       1.308  11.717  19.074  0.00  0.00    +0.000 C 
ATOM     16  C   UNL     1       0.787  10.412  19.702  0.00  0.00    +0.000 C 
ENDROOT
BRANCH   1  17
ATOM     17  C   UNL     1       4.173   5.646  18.414  0.00  0.00    +0.000 C 
ATOM     18  C   UNL     1       5.518   6.087  17.720  0.00  0.00    +0.000 C 
ATOM     19  C   UNL     1       4.862   5.739  16.370  0.00  0.00    +0.000 C 
ATOM     20  C   UNL     1       3.966   4.751  17.138  0.00  0.00    +0.000 C 
BRANCH  17  21
ATOM     21  C   UNL     1       4.379   4.827  19.712  0.00  0.00    +0.000 C 
BRANCH  21  22
ATOM     22  C   UNL     1       4.399   3.321  19.421  0.00  0.00    +0.000 C 
BRANCH  22  23
ATOM     23  C   UNL     1       3.368   2.563  20.250  0.00  0.00    +0.000 C 
BRANCH  23  24
ATOM     24  C   UNL     1       2.414   3.551  20.921  0.00  0.00    +0.000 C 
BRANCH  24  26
ATOM     25  C   UNL     1       0.961   2.806  19.023  0.00  0.00    +0.000 C 
ATOM     26  C   UNL     1       0.980   3.368  20.435  0.00  0.00    +0.000 C 
ENDBRANCH  24  26
ENDBRANCH  23  24
ENDBRANCH  22  23
ENDBRANCH  21  22
ENDBRANCH  17  21
ENDBRANCH   1  17
BRANCH   3  27
ATOM     27  O   UNL     1       1.774   9.793  17.017  0.00  0.00    +0.000 OA
ATOM     28  H   UNL     1       1.351   9.329  16.276  0.00  0.00    +0.000 HD
ENDBRANCH   3  27
BRANCH  14  29
ATOM     29  O   UNL     1       0.989  14.108  18.933  0.00  0.00    +0.000 OA
ATOM     30  H   UNL     1       1.686  13.856  18.304  0.00  0.00    +0.000 HD
ENDBRANCH  14  29
TORSDOF 8
ENDMDL
MODEL 4
REMARK VINA RESULT:      -7.0      2.247      4.694
REMARK  Name = 
REMARK  11 active torsions:
REMARK  status: ('A' for Active; 'I' for Inactive)
REMARK    1  A    between atoms: C_1  and  C_2
REMARK    2  A    between atoms: C_2  and  C_3
REMARK    3  A    between atoms: C_3  and  C_4
REMARK    4  A    between atoms: C_4  and  C_5
REMARK    5  A    between atoms: C_5  and  C_6
REMARK    6  A    between atoms: C_6  and  C_7
REMARK    7  A    between atoms: C_7  and  C_8
REMARK    8  A    between atoms: C_10  and  O_11
REMARK    9  A    between atoms: C_16  and  C_17
REMARK   10  A    between atoms: C_16  and  C_18
REMARK   11  A    between atoms: C_22  and  O_23
REMARK                            x       y       z     vdW  Elec       q    Type
REMARK                         _______ _______ _______ _____ _____    ______ ____
ROOT
ATOM      1  C   UNL     1       2.926   6.520  18.844  0.00  0.00    +0.000 A 
ATOM      2  C   UNL     1       2.705   7.463  17.826  0.00  0.00    +0.000 A 
ATOM      3  C   UNL     1       2.026   8.658  18.059  0.00  0.00    +0.000 A 
ATOM      4  C   UNL     1       1.538   8.990  19.328  0.00  0.00    +0.000 A 
ATOM      5  C   UNL     1       1.655   8.015  20.330  0.00  0.00    +0.000 A 
ATOM      6  C   UNL     1       2.332   6.816  20.084  0.00  0.00    +0.000 A 
ATOM      7  O   UNL     1       1.163   8.132  21.604  0.00  0.00    +0.000 OA
ATOM      8  C   UNL     1       0.287   9.248  21.857  0.00  0.00    +0.000 C 
ATOM      9  C   UNL     1       0.230   9.397  23.390  0.00  0.00    +0.000 C 
ATOM     10  C   UNL     1      -1.126   8.861  21.381  0.00  0.00    +0.000 C 
ATOM     11  C   UNL     1       0.891  10.511  21.193  0.00  0.00    +0.000 C 
ATOM     12  C   UNL     1       0.248  11.840  21.624  0.00  0.00    +0.000 C 
ATOM     13  C   UNL     1       0.853  13.032  20.889  0.00  0.00    +0.000 C 
ATOM     14  C   UNL     1       0.789  12.834  19.385  0.00  0.00    +0.000 C 
ATOM     15  C   UNL     1       1.509  11.555  18.976  0.00  0.00    +0.000 C 
ATOM     16  C   UNL     1       0.883  10.321  19.651  0.00  0.00    +0.000 C 
ENDROOT
BRANCH   1  17
ATOM     17  C   UNL     1       3.918   5.263  18.622  0.00  0.00    +0.000 C 
ATOM     18  C   UNL     1       4.039   4.714  17.149  0.00  0.00    +0.000 C 
ATOM     19  C   UNL     1       2.930   3.704  17.502  0.00  0.00    +0.000 C 
ATOM     20  C   UNL     1       3.379   3.828  18.969  0.00  0.00    +0.000 C 
BRANCH  17  21
ATOM     21  C   UNL     1       5.280   5.584  19.283  0.00  0.00    +0.000 C 
BRANCH  21  22
ATOM     22  C   UNL     1       6.420   4.809  18.611  0.00  0.00    +0.000 C 
BRANCH  22  23
ATOM     23  C   UNL     1       7.595   5.713  18.253  0.00  0.00    +0.000 C 
BRANCH  23  24
ATOM     24  C   UNL     1       7.191   6.667  17.129  0.00  0.00    +0.000 C 
BRANCH  24  26
ATOM     25  C   UNL     1       8.498   8.156  18.659  0.00  0.00    +0.000 C 
ATOM     26  C   UNL     1       7.598   8.104  17.435  0.00  0.00    +0.000 C 
ENDBRANCH  24  26
ENDBRANCH  23  24
ENDBRANCH  22  23
ENDBRANCH  21  22
ENDBRANCH  17  21
ENDBRANCH   1  17
BRANCH   3  27
ATOM     27  O   UNL     1       1.857   9.513  17.010  0.00  0.00    +0.000 OA
ATOM     28  H   UNL     1       0.920   9.754  16.935  0.00  0.00    +0.000 HD
ENDBRANCH   3  27
BRANCH  14  29
ATOM     29  O   UNL     1       1.373  13.954  18.729  0.00  0.00    +0.000 OA
ATOM     30  H   UNL     1       1.213  13.861  17.775  0.00  0.00    +0.000 HD
ENDBRANCH  14  29
TORSDOF 8
ENDMDL
MODEL 5
REMARK VINA RESULT:      -7.0      1.705      3.397
REMARK  Name = 
REMARK  11 active torsions:
REMARK  status: ('A' for Active; 'I' for Inactive)
REMARK    1  A    between atoms: C_1  and  C_2
REMARK    2  A    between atoms: C_2  and  C_3
REMARK    3  A    between atoms: C_3  and  C_4
REMARK    4  A    between atoms: C_4  and  C_5
REMARK    5  A    between atoms: C_5  and  C_6
REMARK    6  A    between atoms: C_6  and  C_7
REMARK    7  A    between atoms: C_7  and  C_8
REMARK    8  A    between atoms: C_10  and  O_11
REMARK    9  A    between atoms: C_16  and  C_17
REMARK   10  A    between atoms: C_16  and  C_18
REMARK   11  A    between atoms: C_22  and  O_23
REMARK                            x       y       z     vdW  Elec       q    Type
REMARK                         _______ _______ _______ _____ _____    ______ ____
ROOT
ATOM      1  C   UNL     1       1.793   7.860  19.267  0.00  0.00    +0.000 A 
ATOM      2  C   UNL     1       2.223   8.693  18.220  0.00  0.00    +0.000 A 
ATOM      3  C   UNL     1       1.972  10.065  18.215  0.00  0.00    +0.000 A 
ATOM      4  C   UNL     1       1.287  10.689  19.265  0.00  0.00    +0.000 A 
ATOM      5  C   UNL     1       0.758   9.858  20.263  0.00  0.00    +0.000 A 
ATOM      6  C   UNL     1       1.011   8.483  20.255  0.00  0.00    +0.000 A 
ATOM      7  O   UNL     1      -0.006  10.284  21.319  0.00  0.00    +0.000 OA
ATOM      8  C   UNL     1      -0.466  11.649  21.273  0.00  0.00    +0.000 C 
ATOM      9  C   UNL     1      -0.907  11.991  22.709  0.00  0.00    +0.000 C 
ATOM     10  C   UNL     1      -1.723  11.697  20.383  0.00  0.00    +0.000 C 
ATOM     11  C   UNL     1       0.707  12.552  20.817  0.00  0.00    +0.000 C 
ATOM     12  C   UNL     1       0.478  14.059  21.010  0.00  0.00    +0.000 C 
ATOM     13  C   UNL     1       1.649  14.886  20.488  0.00  0.00    +0.000 C 
ATOM     14  C   UNL     1       1.957  14.542  19.041  0.00  0.00    +0.000 C 
ATOM     15  C   UNL     1       2.265  13.057  18.892  0.00  0.00    +0.000 C 
ATOM     16  C   UNL     1       1.079  12.190  19.351  0.00  0.00    +0.000 C 
ENDROOT
BRANCH   1  17
ATOM     17  C   UNL     1       2.298   6.329  19.380  0.00  0.00    +0.000 C 
ATOM     18  C   UNL     1       3.840   6.079  19.167  0.00  0.00    +0.000 C 
ATOM     19  C   UNL     1       3.528   5.807  17.683  0.00  0.00    +0.000 C 
ATOM     20  C   UNL     1       2.112   5.397  18.127  0.00  0.00    +0.000 C 
BRANCH  17  21
ATOM     21  C   UNL     1       1.741   5.717  20.688  0.00  0.00    +0.000 C 
BRANCH  21  22
ATOM     22  C   UNL     1       1.029   4.386  20.420  0.00  0.00    +0.000 C 
BRANCH  22  23
ATOM     23  C   UNL     1       1.624   3.242  21.235  0.00  0.00    +0.000 C 
BRANCH  23  24
ATOM     24  C   UNL     1       2.785   2.609  20.469  0.00  0.00    +0.000 C 
BRANCH  24  26
ATOM     25  C   UNL     1       3.537   1.571  18.319  0.00  0.00    +0.000 C 
ATOM     26  C   UNL     1       2.346   2.099  19.101  0.00  0.00    +0.000 C 
ENDBRANCH  24  26
ENDBRANCH  23  24
ENDBRANCH  22  23
ENDBRANCH  21  22
ENDBRANCH  17  21
ENDBRANCH   1  17
BRANCH   3  27
ATOM     27  O   UNL     1       2.424  10.795  17.157  0.00  0.00    +0.000 OA
ATOM     28  H   UNL     1       2.075  10.423  16.332  0.00  0.00    +0.000 HD
ENDBRANCH   3  27
BRANCH  14  29
ATOM     29  O   UNL     1       3.061  15.318  18.588  0.00  0.00    +0.000 OA
ATOM     30  H   UNL     1       3.135  16.098  19.163  0.00  0.00    +0.000 HD
ENDBRANCH  14  29
TORSDOF 8
ENDMDL
MODEL 6
REMARK VINA RESULT:      -7.0      2.015      4.338
REMARK  Name = 
REMARK  11 active torsions:
REMARK  status: ('A' for Active; 'I' for Inactive)
REMARK    1  A    between atoms: C_1  and  C_2
REMARK    2  A    between atoms: C_2  and  C_3
REMARK    3  A    between atoms: C_3  and  C_4
REMARK    4  A    between atoms: C_4  and  C_5
REMARK    5  A    between atoms: C_5  and  C_6
REMARK    6  A    between atoms: C_6  and  C_7
REMARK    7  A    between atoms: C_7  and  C_8
REMARK    8  A    between atoms: C_10  and  O_11
REMARK    9  A    between atoms: C_16  and  C_17
REMARK   10  A    between atoms: C_16  and  C_18
REMARK   11  A    between atoms: C_22  and  O_23
REMARK                            x       y       z     vdW  Elec       q    Type
REMARK                         _______ _______ _______ _____ _____    ______ ____
ROOT
ATOM      1  C   UNL     1       2.055   6.914  19.527  0.00  0.00    +0.000 A 
ATOM      2  C   UNL     1       2.372   7.599  18.342  0.00  0.00    +0.000 A 
ATOM      3  C   UNL     1       2.069   8.949  18.162  0.00  0.00    +0.000 A 
ATOM      4  C   UNL     1       1.442   9.699  19.164  0.00  0.00    +0.000 A 
ATOM      5  C   UNL     1       1.022   9.007  20.309  0.00  0.00    +0.000 A 
ATOM      6  C   UNL     1       1.326   7.652  20.476  0.00  0.00    +0.000 A 
ATOM      7  O   UNL     1       0.324   9.560  21.352  0.00  0.00    +0.000 OA
ATOM      8  C   UNL     1      -0.191  10.890  21.150  0.00  0.00    +0.000 C 
ATOM      9  C   UNL     1      -0.535  11.424  22.554  0.00  0.00    +0.000 C 
ATOM     10  C   UNL     1      -1.512  10.776  20.365  0.00  0.00    +0.000 C 
ATOM     11  C   UNL     1       0.909  11.750  20.478  0.00  0.00    +0.000 C 
ATOM     12  C   UNL     1       0.638  13.263  20.473  0.00  0.00    +0.000 C 
ATOM     13  C   UNL     1       1.733  14.037  19.747  0.00  0.00    +0.000 C 
ATOM     14  C   UNL     1       1.945  13.496  18.344  0.00  0.00    +0.000 C 
ATOM     15  C   UNL     1       2.298  12.014  18.383  0.00  0.00    +0.000 C 
ATOM     16  C   UNL     1       1.183  11.191  19.053  0.00  0.00    +0.000 C 
ENDROOT
BRANCH   1  17
ATOM     17  C   UNL     1       2.626   5.430  19.815  0.00  0.00    +0.000 C 
ATOM     18  C   UNL     1       1.892   4.240  19.087  0.00  0.00    +0.000 C 
ATOM     19  C   UNL     1       1.020   4.088  20.349  0.00  0.00    +0.000 C 
ATOM     20  C   UNL     1       2.181   4.715  21.142  0.00  0.00    +0.000 C 
BRANCH  17  21
ATOM     21  C   UNL     1       4.160   5.440  19.606  0.00  0.00    +0.000 C 
BRANCH  21  22
ATOM     22  C   UNL     1       4.618   4.222  18.796  0.00  0.00    +0.000 C 
BRANCH  22  23
ATOM     23  C   UNL     1       5.719   4.575  17.801  0.00  0.00    +0.000 C 
BRANCH  23  24
ATOM     24  C   UNL     1       5.709   6.079  17.530  0.00  0.00    +0.000 C 
BRANCH  24  26
ATOM     25  C   UNL     1       7.904   6.960  18.350  0.00  0.00    +0.000 C 
ATOM     26  C   UNL     1       7.087   6.588  17.123  0.00  0.00    +0.000 C 
ENDBRANCH  24  26
ENDBRANCH  23  24
ENDBRANCH  22  23
ENDBRANCH  21  22
ENDBRANCH  17  21
ENDBRANCH   1  17
BRANCH   3  27
ATOM     27  O   UNL     1       2.412   9.531  16.978  0.00  0.00    +0.000 OA
ATOM     28  H   UNL     1       2.097  10.448  16.963  0.00  0.00    +0.000 HD
ENDBRANCH   3  27
BRANCH  14  29
ATOM     29  O   UNL     1       2.980  14.229  17.699  0.00  0.00    +0.000 OA
ATOM     30  H   UNL     1       2.671  14.465  16.808  0.00  0.00    +0.000 HD
ENDBRANCH  14  29
TORSDOF 8
ENDMDL
MODEL 7
REMARK VINA RESULT:      -7.0      2.317      4.442
REMARK  Name = 
REMARK  11 active torsions:
REMARK  status: ('A' for Active; 'I' for Inactive)
REMARK    1  A    between atoms: C_1  and  C_2
REMARK    2  A    between atoms: C_2  and  C_3
REMARK    3  A    between atoms: C_3  and  C_4
REMARK    4  A    between atoms: C_4  and  C_5
REMARK    5  A    between atoms: C_5  and  C_6
REMARK    6  A    between atoms: C_6  and  C_7
REMARK    7  A    between atoms: C_7  and  C_8
REMARK    8  A    between atoms: C_10  and  O_11
REMARK    9  A    between atoms: C_16  and  C_17
REMARK   10  A    between atoms: C_16  and  C_18
REMARK   11  A    between atoms: C_22  and  O_23
REMARK                            x       y       z     vdW  Elec       q    Type
REMARK                         _______ _______ _______ _____ _____    ______ ____
ROOT
ATOM      1  C   UNL     1       2.874   6.590  18.790  0.00  0.00    +0.000 A 
ATOM      2  C   UNL     1       2.654   7.552  17.790  0.00  0.00    +0.000 A 
ATOM      3  C   UNL     1       1.988   8.750  18.048  0.00  0.00    +0.000 A 
ATOM      4  C   UNL     1       1.514   9.064  19.327  0.00  0.00    +0.000 A 
ATOM      5  C   UNL     1       1.630   8.071  20.311  0.00  0.00    +0.000 A 
ATOM      6  C   UNL     1       2.294   6.871  20.040  0.00  0.00    +0.000 A 
ATOM      7  O   UNL     1       1.150   8.173  21.592  0.00  0.00    +0.000 OA
ATOM      8  C   UNL     1       0.287   9.292  21.871  0.00  0.00    +0.000 C 
ATOM      9  C   UNL     1       0.245   9.416  23.406  0.00  0.00    +0.000 C 
ATOM     10  C   UNL     1      -1.134   8.927  21.400  0.00  0.00    +0.000 C 
ATOM     11  C   UNL     1       0.897  10.561  21.223  0.00  0.00    +0.000 C 
ATOM     12  C   UNL     1       0.271  11.888  21.682  0.00  0.00    +0.000 C 
ATOM     13  C   UNL     1       0.881  13.086  20.962  0.00  0.00    +0.000 C 
ATOM     14  C   UNL     1       0.803  12.915  19.455  0.00  0.00    +0.000 C 
ATOM     15  C   UNL     1       1.507  11.635  19.019  0.00  0.00    +0.000 C 
ATOM     16  C   UNL     1       0.875  10.396  19.677  0.00  0.00    +0.000 C 
ENDROOT
BRANCH   1  17
ATOM     17  C   UNL     1       3.852   5.328  18.538  0.00  0.00    +0.000 C 
ATOM     18  C   UNL     1       3.367   4.261  17.484  0.00  0.00    +0.000 C 
ATOM     19  C   UNL     1       2.749   3.475  18.657  0.00  0.00    +0.000 C 
ATOM     20  C   UNL     1       3.800   4.139  19.565  0.00  0.00    +0.000 C 
BRANCH  17  21
ATOM     21  C   UNL     1       5.285   5.854  18.281  0.00  0.00    +0.000 C 
BRANCH  21  22
ATOM     22  C   UNL     1       6.316   4.724  18.372  0.00  0.00    +0.000 C 
BRANCH  22  23
ATOM     23  C   UNL     1       7.455   4.904  17.373  0.00  0.00    +0.000 C 
BRANCH  23  24
ATOM     24  C   UNL     1       6.884   5.128  15.973  0.00  0.00    +0.000 C 
BRANCH  24  26
ATOM     25  C   UNL     1       5.750   4.093  13.995  0.00  0.00    +0.000 C 
ATOM     26  C   UNL     1       6.321   3.840  15.381  0.00  0.00    +0.000 C 
ENDBRANCH  24  26
ENDBRANCH  23  24
ENDBRANCH  22  23
ENDBRANCH  21  22
ENDBRANCH  17  21
ENDBRANCH   1  17
BRANCH   3  27
ATOM     27  O   UNL     1       1.818   9.624  17.016  0.00  0.00    +0.000 OA
ATOM     28  H   UNL     1       1.152   9.276  16.402  0.00  0.00    +0.000 HD
ENDBRANCH   3  27
BRANCH  14  29
ATOM     29  O   UNL     1       1.393  14.040  18.813  0.00  0.00    +0.000 OA
ATOM     30  H   UNL     1       2.358  13.959  18.892  0.00  0.00    +0.000 HD
ENDBRANCH  14  29
TORSDOF 8
ENDMDL
MODEL 8
REMARK VINA RESULT:      -6.9      2.171      4.291
REMARK  Name = 
REMARK  11 active torsions:
REMARK  status: ('A' for Active; 'I' for Inactive)
REMARK    1  A    between atoms: C_1  and  C_2
REMARK    2  A    between atoms: C_2  and  C_3
REMARK    3  A    between atoms: C_3  and  C_4
REMARK    4  A    between atoms: C_4  and  C_5
REMARK    5  A    between atoms: C_5  and  C_6
REMARK    6  A    between atoms: C_6  and  C_7
REMARK    7  A    between atoms: C_7  and  C_8
REMARK    8  A    between atoms: C_10  and  O_11
REMARK    9  A    between atoms: C_16  and  C_17
REMARK   10  A    between atoms: C_16  and  C_18
REMARK   11  A    between atoms: C_22  and  O_23
REMARK                            x       y       z     vdW  Elec       q    Type
REMARK                         _______ _______ _______ _____ _____    ______ ____
ROOT
ATOM      1  C   UNL     1       2.098   6.604  19.610  0.00  0.00    +0.000 A 
ATOM      2  C   UNL     1       2.399   7.263  18.405  0.00  0.00    +0.000 A 
ATOM      3  C   UNL     1       2.090   8.607  18.200  0.00  0.00    +0.000 A 
ATOM      4  C   UNL     1       1.475   9.379  19.194  0.00  0.00    +0.000 A 
ATOM      5  C   UNL     1       1.072   8.712  20.359  0.00  0.00    +0.000 A 
ATOM      6  C   UNL     1       1.381   7.361  20.552  0.00  0.00    +0.000 A 
ATOM      7  O   UNL     1       0.387   9.287  21.399  0.00  0.00    +0.000 OA
ATOM      8  C   UNL     1      -0.132  10.611  21.174  0.00  0.00    +0.000 C 
ATOM      9  C   UNL     1      -0.459  11.176  22.570  0.00  0.00    +0.000 C 
ATOM     10  C   UNL     1      -1.464  10.477  20.410  0.00  0.00    +0.000 C 
ATOM     11  C   UNL     1       0.957  11.457  20.468  0.00  0.00    +0.000 C 
ATOM     12  C   UNL     1       0.683  12.970  20.434  0.00  0.00    +0.000 C 
ATOM     13  C   UNL     1       1.766  13.729  19.676  0.00  0.00    +0.000 C 
ATOM     14  C   UNL     1       1.960  13.158  18.282  0.00  0.00    +0.000 C 
ATOM     15  C   UNL     1       2.317  11.678  18.349  0.00  0.00    +0.000 C 
ATOM     16  C   UNL     1       1.213  10.867  19.053  0.00  0.00    +0.000 C 
ENDROOT
BRANCH   1  17
ATOM     17  C   UNL     1       2.676   5.127  19.923  0.00  0.00    +0.000 C 
ATOM     18  C   UNL     1       1.945   3.921  19.218  0.00  0.00    +0.000 C 
ATOM     19  C   UNL     1       1.077   3.789  20.485  0.00  0.00    +0.000 C 
ATOM     20  C   UNL     1       2.237   4.434  21.264  0.00  0.00    +0.000 C 
BRANCH  17  21
ATOM     21  C   UNL     1       4.209   5.139  19.711  0.00  0.00    +0.000 C 
BRANCH  21  22
ATOM     22  C   UNL     1       4.612   4.255  18.525  0.00  0.00    +0.000 C 
BRANCH  22  23
ATOM     23  C   UNL     1       5.365   5.039  17.454  0.00  0.00    +0.000 C 
BRANCH  23  24
ATOM     24  C   UNL     1       5.091   4.430  16.079  0.00  0.00    +0.000 C 
BRANCH  24  26
ATOM     25  C   UNL     1       6.036   3.906  13.821  0.00  0.00    +0.000 C 
ATOM     26  C   UNL     1       6.362   4.331  15.243  0.00  0.00    +0.000 C 
ENDBRANCH  24  26
ENDBRANCH  23  24
ENDBRANCH  22  23
ENDBRANCH  21  22
ENDBRANCH  17  21
ENDBRANCH   1  17
BRANCH   3  27
ATOM     27  O   UNL     1       2.417   9.163  16.999  0.00  0.00    +0.000 OA
ATOM     28  H   UNL     1       2.094   8.597  16.280  0.00  0.00    +0.000 HD
ENDBRANCH   3  27
BRANCH  14  29
ATOM     29  O   UNL     1       2.986  13.877  17.607  0.00  0.00    +0.000 OA
ATOM     30  H   UNL     1       2.578  14.360  16.869  0.00  0.00    +0.000 HD
ENDBRANCH  14  29
TORSDOF 8
ENDMDL
MODEL 9
REMARK VINA RESULT:      -6.8      1.063      1.543
REMARK  Name = 
REMARK  11 active torsions:
REMARK  status: ('A' for Active; 'I' for Inactive)
REMARK    1  A    between atoms: C_1  and  C_2
REMARK    2  A    between atoms: C_2  and  C_3
REMARK    3  A    between atoms: C_3  and  C_4
REMARK    4  A    between atoms: C_4  and  C_5
REMARK    5  A    between atoms: C_5  and  C_6
REMARK    6  A    between atoms: C_6  and  C_7
REMARK    7  A    between atoms: C_7  and  C_8
REMARK    8  A    between atoms: C_10  and  O_11
REMARK    9  A    between atoms: C_16  and  C_17
REMARK   10  A    between atoms: C_16  and  C_18
REMARK   11  A    between atoms: C_22  and  O_23
REMARK                            x       y       z     vdW  Elec       q    Type
REMARK                         _______ _______ _______ _____ _____    ______ ____
ROOT
ATOM      1  C   UNL     1       2.285   7.450  19.148  0.00  0.00    +0.000 A 
ATOM      2  C   UNL     1       2.105   7.519  20.540  0.00  0.00    +0.000 A 
ATOM      3  C   UNL     1       1.472   8.600  21.153  0.00  0.00    +0.000 A 
ATOM      4  C   UNL     1       0.968   9.673  20.407  0.00  0.00    +0.000 A 
ATOM      5  C   UNL     1       1.233   9.672  19.030  0.00  0.00    +0.000 A 
ATOM      6  C   UNL     1       1.874   8.585  18.427  0.00  0.00    +0.000 A 
ATOM      7  O   UNL     1       0.888  10.675  18.161  0.00  0.00    +0.000 OA
ATOM      8  C   UNL     1       0.410  11.901  18.748  0.00  0.00    +0.000 C 
ATOM      9  C   UNL     1      -0.290  12.666  17.609  0.00  0.00    +0.000 C 
ATOM     10  C   UNL     1       1.635  12.733  19.175  0.00  0.00    +0.000 C 
ATOM     11  C   UNL     1      -0.585  11.551  19.883  0.00  0.00    +0.000 C 
ATOM     12  C   UNL     1      -1.417  12.735  20.403  0.00  0.00    +0.000 C 
ATOM     13  C   UNL     1      -2.331  12.328  21.555  0.00  0.00    +0.000 C 
ATOM     14  C   UNL     1      -1.542  11.658  22.667  0.00  0.00    +0.000 C 
ATOM     15  C   UNL     1      -0.797  10.437  22.142  0.00  0.00    +0.000 C 
ATOM     16  C   UNL     1       0.185  10.820  21.019  0.00  0.00    +0.000 C 
ENDROOT
BRANCH   1  17
ATOM     17  C   UNL     1       2.794   6.092  18.436  0.00  0.00    +0.000 C 
ATOM     18  C   UNL     1       3.966   5.318  19.153  0.00  0.00    +0.000 C 
ATOM     19  C   UNL     1       4.946   6.092  18.250  0.00  0.00    +0.000 C 
ATOM     20  C   UNL     1       3.798   6.223  17.233  0.00  0.00    +0.000 C 
BRANCH  17  21
ATOM     21  C   UNL     1       1.565   5.207  18.117  0.00  0.00    +0.000 C 
BRANCH  21  22
ATOM     22  C   UNL     1       1.987   3.880  17.476  0.00  0.00    +0.000 C 
BRANCH  22  23
ATOM     23  C   UNL     1       1.520   2.676  18.287  0.00  0.00    +0.000 C 
BRANCH  23  24
ATOM     24  C   UNL     1       0.921   3.146  19.613  0.00  0.00    +0.000 C 
BRANCH  24  26
ATOM     25  C   UNL     1       2.131   3.608  21.755  0.00  0.00    +0.000 C 
ATOM     26  C   UNL     1       1.640   2.527  20.806  0.00  0.00    +0.000 C 
ENDBRANCH  24  26
ENDBRANCH  23  24
ENDBRANCH  22  23
ENDBRANCH  21  22
ENDBRANCH  17  21
ENDBRANCH   1  17
BRANCH   3  27
ATOM     27  O   UNL     1       1.343   8.583  22.510  0.00  0.00    +0.000 OA
ATOM     28  H   UNL     1       0.439   8.837  22.754  0.00  0.00    +0.000 HD
ENDBRANCH   3  27
BRANCH  14  29
ATOM     29  O   UNL     1      -2.423  11.278  23.718  0.00  0.00    +0.000 OA
ATOM     30  H   UNL     1      -2.003  10.557  24.215  0.00  0.00    +0.000 HD
ENDBRANCH  14  29
TORSDOF 8
ENDMDL
