MODEL 1
REMARK VINA RESULT:      -8.3      0.000      0.000
REMARK  Name = 
REMARK  13 active torsions:
REMARK  status: ('A' for Active; 'I' for Inactive)
REMARK    1  A    between atoms: C_1  and  C_2
REMARK    2  A    between atoms: C_4  and  C_5
REMARK    3  A    between atoms: C_11  and  C_12
REMARK    4  A    between atoms: C_12  and  C_13
REMARK    5  A    between atoms: C_13  and  O_14
REMARK    6  A    between atoms: O_14  and  C_15
REMARK    7  A    between atoms: C_18  and  C_19
REMARK    8  A    between atoms: C_19  and  C_20
REMARK    9  A    between atoms: C_20  and  C_21
REMARK   10  A    between atoms: C_20  and  O_22
REMARK   11  A    between atoms: C_20  and  C_29
REMARK   12  A    between atoms: O_22  and  C_23
REMARK   13  A    between atoms: C_29  and  O_31
REMARK                            x       y       z     vdW  Elec       q    Type
REMARK                         _______ _______ _______ _____ _____    ______ ____
ROOT
ATOM      1  C   UNL     1       1.620   8.481  19.381  0.00  0.00    +0.000 A 
ATOM      2  C   UNL     1       2.187   8.760  18.132  0.00  0.00    +0.000 A 
ATOM      3  C   UNL     1       3.031   7.841  17.511  0.00  0.00    +0.000 A 
ATOM      4  C   UNL     1       3.340   6.616  18.119  0.00  0.00    +0.000 A 
ATOM      5  C   UNL     1       2.820   6.362  19.392  0.00  0.00    +0.000 A 
ATOM      6  C   UNL     1       1.970   7.291  20.023  0.00  0.00    +0.000 A 
ENDROOT
BRANCH   1   7
ATOM      7  O   UNL     1       0.713   9.301  20.028  0.00  0.00    +0.000 OA
BRANCH   7   8
ATOM      8  C   UNL     1       0.867  10.684  19.682  0.00  0.00    +0.000 C 
BRANCH   8   9
ATOM      9  C   UNL     1       1.007  11.618  20.883  0.00  0.00    +0.000 C 
BRANCH   9  15
ATOM     10  C   UNL     1       0.075   9.471  23.354  0.00  0.00    +0.000 C 
ATOM     11  C   UNL     1      -0.558  10.646  22.732  0.00  0.00    +0.000 A 
ATOM     12  O   UNL     1      -1.752  11.048  23.259  0.00  0.00    +0.000 OA
ATOM     13  C   UNL     1      -2.111  12.160  22.535  0.00  0.00    +0.000 A 
ATOM     14  N   UNL     1      -1.227  12.466  21.599  0.00  0.00    +0.000 NA
ATOM     15  C   UNL     1      -0.229  11.518  21.719  0.00  0.00    +0.000 A 
BRANCH  13  16
ATOM     16  C   UNL     1      -3.311  12.918  22.773  0.00  0.00    +0.000 A 
ATOM     17  C   UNL     1      -4.469  12.912  22.018  0.00  0.00    +0.000 A 
ATOM     18  C   UNL     1      -5.478  13.767  22.552  0.00  0.00    +0.000 A 
ATOM     19  C   UNL     1      -5.054  14.410  23.693  0.00  0.00    +0.000 A 
ATOM     20  S   UNL     1      -3.450  13.984  24.109  0.00  0.00    +0.000 S 
ENDBRANCH  13  16
ENDBRANCH   9  15
ENDBRANCH   8   9
ENDBRANCH   7   8
ENDBRANCH   1   7
BRANCH   4  21
ATOM     21  C   UNL     1       4.175   5.612  17.348  0.00  0.00    +0.000 C 
BRANCH  21  22
ATOM     22  C   UNL     1       5.264   4.801  18.079  0.00  0.00    +0.000 C 
ATOM     23  C   UNL     1       5.925   5.502  19.267  0.00  0.00    +0.000 C 
BRANCH  22  24
ATOM     24  C   UNL     1       6.413   4.463  17.090  0.00  0.00    +0.000 C 
ATOM     25  O   UNL     1       7.565   4.862  17.180  0.00  0.00    +0.000 OA
BRANCH  24  26
ATOM     26  O   UNL     1       6.045   3.609  16.095  0.00  0.00    +0.000 OA
ATOM     27  H   UNL     1       6.851   3.305  15.622  0.00  0.00    +0.000 HD
ENDBRANCH  24  26
ENDBRANCH  22  24
BRANCH  22  28
ATOM     28  O   UNL     1       4.768   3.472  18.412  0.00  0.00    +0.000 OA
BRANCH  28  29
ATOM     29  C   UNL     1       3.503   3.157  18.796  0.00  0.00    +0.000 A 
ATOM     30  C   UNL     1       3.326   3.120  20.187  0.00  0.00    +0.000 A 
ATOM     31  C   UNL     1       2.064   2.913  20.749  0.00  0.00    +0.000 A 
ATOM     32  C   UNL     1       0.959   2.749  19.922  0.00  0.00    +0.000 A 
ATOM     33  C   UNL     1       1.126   2.761  18.541  0.00  0.00    +0.000 A 
ATOM     34  C   UNL     1       2.399   2.951  17.980  0.00  0.00    +0.000 A 
ENDBRANCH  28  29
ENDBRANCH  22  28
ENDBRANCH  21  22
ENDBRANCH   4  21
TORSDOF 11
ENDMDL
MODEL 2
REMARK VINA RESULT:      -8.1      0.625      1.252
REMARK  Name = 
REMARK  13 active torsions:
REMARK  status: ('A' for Active; 'I' for Inactive)
REMARK    1  A    between atoms: C_1  and  C_2
REMARK    2  A    between atoms: C_4  and  C_5
REMARK    3  A    between atoms: C_11  and  C_12
REMARK    4  A    between atoms: C_12  and  C_13
REMARK    5  A    between atoms: C_13  and  O_14
REMARK    6  A    between atoms: O_14  and  C_15
REMARK    7  A    between atoms: C_18  and  C_19
REMARK    8  A    between atoms: C_19  and  C_20
REMARK    9  A    between atoms: C_20  and  C_21
REMARK   10  A    between atoms: C_20  and  O_22
REMARK   11  A    between atoms: C_20  and  C_29
REMARK   12  A    between atoms: O_22  and  C_23
REMARK   13  A    between atoms: C_29  and  O_31
REMARK                            x       y       z     vdW  Elec       q    Type
REMARK                         _______ _______ _______ _____ _____    ______ ____
ROOT
ATOM      1  C   UNL     1       1.735   8.361  19.390  0.00  0.00    +0.000 A 
ATOM      2  C   UNL     1       2.259   8.755  18.154  0.00  0.00    +0.000 A 
ATOM      3  C   UNL     1       3.128   7.924  17.449  0.00  0.00    +0.000 A 
ATOM      4  C   UNL     1       3.503   6.672  17.958  0.00  0.00    +0.000 A 
ATOM      5  C   UNL     1       3.025   6.302  19.218  0.00  0.00    +0.000 A 
ATOM      6  C   UNL     1       2.151   7.144  19.934  0.00  0.00    +0.000 A 
ENDROOT
BRANCH   1   7
ATOM      7  O   UNL     1       0.809   9.089  20.114  0.00  0.00    +0.000 OA
BRANCH   7   8
ATOM      8  C   UNL     1       0.702  10.449  19.674  0.00  0.00    +0.000 C 
BRANCH   8   9
ATOM      9  C   UNL     1       0.871  11.483  20.787  0.00  0.00    +0.000 C 
BRANCH   9  15
ATOM     10  C   UNL     1       0.040   9.499  23.424  0.00  0.00    +0.000 C 
ATOM     11  C   UNL     1      -0.619  10.632  22.754  0.00  0.00    +0.000 A 
ATOM     12  O   UNL     1      -1.792  11.067  23.299  0.00  0.00    +0.000 OA
ATOM     13  C   UNL     1      -2.181  12.131  22.521  0.00  0.00    +0.000 A 
ATOM     14  N   UNL     1      -1.335  12.376  21.533  0.00  0.00    +0.000 NA
ATOM     15  C   UNL     1      -0.331  11.437  21.675  0.00  0.00    +0.000 A 
BRANCH  13  16
ATOM     16  C   UNL     1      -3.373  12.903  22.756  0.00  0.00    +0.000 A 
ATOM     17  C   UNL     1      -3.628  13.746  23.823  0.00  0.00    +0.000 A 
ATOM     18  C   UNL     1      -4.905  14.376  23.731  0.00  0.00    +0.000 A 
ATOM     19  C   UNL     1      -5.591  13.984  22.604  0.00  0.00    +0.000 A 
ATOM     20  S   UNL     1      -4.698  12.864  21.669  0.00  0.00    +0.000 S 
ENDBRANCH  13  16
ENDBRANCH   9  15
ENDBRANCH   8   9
ENDBRANCH   7   8
ENDBRANCH   1   7
BRANCH   4  21
ATOM     21  C   UNL     1       4.362   5.766  17.096  0.00  0.00    +0.000 C 
BRANCH  21  22
ATOM     22  C   UNL     1       5.336   4.774  17.765  0.00  0.00    +0.000 C 
ATOM     23  C   UNL     1       6.010   5.270  19.045  0.00  0.00    +0.000 C 
BRANCH  22  24
ATOM     24  C   UNL     1       6.489   4.434  16.781  0.00  0.00    +0.000 C 
ATOM     25  O   UNL     1       6.346   4.022  15.639  0.00  0.00    +0.000 OA
BRANCH  24  26
ATOM     26  O   UNL     1       7.729   4.684  17.284  0.00  0.00    +0.000 OA
ATOM     27  H   UNL     1       8.380   4.102  16.832  0.00  0.00    +0.000 HD
ENDBRANCH  24  26
ENDBRANCH  22  24
BRANCH  22  28
ATOM     28  O   UNL     1       4.701   3.474  17.929  0.00  0.00    +0.000 OA
BRANCH  28  29
ATOM     29  C   UNL     1       3.592   3.207  18.668  0.00  0.00    +0.000 A 
ATOM     30  C   UNL     1       2.431   3.026  17.902  0.00  0.00    +0.000 A 
ATOM     31  C   UNL     1       1.226   2.643  18.496  0.00  0.00    +0.000 A 
ATOM     32  C   UNL     1       1.170   2.428  19.868  0.00  0.00    +0.000 A 
ATOM     33  C   UNL     1       2.310   2.628  20.641  0.00  0.00    +0.000 A 
ATOM     34  C   UNL     1       3.514   3.029  20.043  0.00  0.00    +0.000 A 
ENDBRANCH  28  29
ENDBRANCH  22  28
ENDBRANCH  21  22
ENDBRANCH   4  21
TORSDOF 11
ENDMDL
MODEL 3
REMARK VINA RESULT:      -7.9      1.864      3.651
REMARK  Name = 
REMARK  13 active torsions:
REMARK  status: ('A' for Active; 'I' for Inactive)
REMARK    1  A    between atoms: C_1  and  C_2
REMARK    2  A    between atoms: C_4  and  C_5
REMARK    3  A    between atoms: C_11  and  C_12
REMARK    4  A    between atoms: C_12  and  C_13
REMARK    5  A    between atoms: C_13  and  O_14
REMARK    6  A    between atoms: O_14  and  C_15
REMARK    7  A    between atoms: C_18  and  C_19
REMARK    8  A    between atoms: C_19  and  C_20
REMARK    9  A    between atoms: C_20  and  C_21
REMARK   10  A    between atoms: C_20  and  O_22
REMARK   11  A    between atoms: C_20  and  C_29
REMARK   12  A    between atoms: O_22  and  C_23
REMARK   13  A    between atoms: C_29  and  O_31
REMARK                            x       y       z     vdW  Elec       q    Type
REMARK                         _______ _______ _______ _____ _____    ______ ____
ROOT
ATOM      1  C   UNL     1       1.541   9.252  18.764  0.00  0.00    +0.000 A 
ATOM      2  C   UNL     1       1.299   8.640  19.999  0.00  0.00    +0.000 A 
ATOM      3  C   UNL     1       1.851   7.397  20.301  0.00  0.00    +0.000 A 
ATOM      4  C   UNL     1       2.662   6.722  19.376  0.00  0.00    +0.000 A 
ATOM      5  C   UNL     1       2.857   7.305  18.121  0.00  0.00    +0.000 A 
ATOM      6  C   UNL     1       2.295   8.560  17.814  0.00  0.00    +0.000 A 
ENDROOT
BRANCH   1   7
ATOM      7  O   UNL     1       1.098  10.515  18.416  0.00  0.00    +0.000 OA
BRANCH   7   8
ATOM      8  C   UNL     1       1.080  11.423  19.526  0.00  0.00    +0.000 C 
BRANCH   8   9
ATOM      9  C   UNL     1       0.378  12.750  19.237  0.00  0.00    +0.000 C 
BRANCH   9  15
ATOM     10  C   UNL     1      -2.156  11.441  17.379  0.00  0.00    +0.000 C 
ATOM     11  C   UNL     1      -2.077  12.028  18.728  0.00  0.00    +0.000 A 
ATOM     12  O   UNL     1      -3.226  12.017  19.467  0.00  0.00    +0.000 OA
ATOM     13  C   UNL     1      -2.886  12.584  20.672  0.00  0.00    +0.000 A 
ATOM     14  N   UNL     1      -1.614  12.947  20.725  0.00  0.00    +0.000 NA
ATOM     15  C   UNL     1      -1.085  12.590  19.499  0.00  0.00    +0.000 A 
BRANCH  13  16
ATOM     16  C   UNL     1      -3.807  12.756  21.765  0.00  0.00    +0.000 A 
ATOM     17  C   UNL     1      -5.177  12.929  21.686  0.00  0.00    +0.000 A 
ATOM     18  C   UNL     1      -5.790  13.046  22.969  0.00  0.00    +0.000 A 
ATOM     19  C   UNL     1      -4.866  12.972  23.988  0.00  0.00    +0.000 A 
ATOM     20  S   UNL     1      -3.275  12.765  23.395  0.00  0.00    +0.000 S 
ENDBRANCH  13  16
ENDBRANCH   9  15
ENDBRANCH   8   9
ENDBRANCH   7   8
ENDBRANCH   1   7
BRANCH   4  21
ATOM     21  C   UNL     1       3.323   5.424  19.802  0.00  0.00    +0.000 C 
BRANCH  21  22
ATOM     22  C   UNL     1       2.902   4.098  19.136  0.00  0.00    +0.000 C 
ATOM     23  C   UNL     1       1.590   4.138  18.351  0.00  0.00    +0.000 C 
BRANCH  22  24
ATOM     24  C   UNL     1       2.715   3.006  20.224  0.00  0.00    +0.000 C 
ATOM     25  O   UNL     1       3.618   2.403  20.784  0.00  0.00    +0.000 OA
BRANCH  24  26
ATOM     26  O   UNL     1       1.415   2.791  20.564  0.00  0.00    +0.000 OA
ATOM     27  H   UNL     1       1.009   2.182  19.907  0.00  0.00    +0.000 HD
ENDBRANCH  24  26
ENDBRANCH  22  24
BRANCH  22  28
ATOM     28  O   UNL     1       4.007   3.549  18.360  0.00  0.00    +0.000 OA
BRANCH  28  29
ATOM     29  C   UNL     1       4.883   4.253  17.595  0.00  0.00    +0.000 A 
ATOM     30  C   UNL     1       6.149   4.402  18.177  0.00  0.00    +0.000 A 
ATOM     31  C   UNL     1       7.197   5.009  17.481  0.00  0.00    +0.000 A 
ATOM     32  C   UNL     1       6.991   5.468  16.186  0.00  0.00    +0.000 A 
ATOM     33  C   UNL     1       5.731   5.348  15.607  0.00  0.00    +0.000 A 
ATOM     34  C   UNL     1       4.676   4.753  16.316  0.00  0.00    +0.000 A 
ENDBRANCH  28  29
ENDBRANCH  22  28
ENDBRANCH  21  22
ENDBRANCH   4  21
TORSDOF 11
ENDMDL
MODEL 4
REMARK VINA RESULT:      -7.9      2.411      4.040
REMARK  Name = 
REMARK  13 active torsions:
REMARK  status: ('A' for Active; 'I' for Inactive)
REMARK    1  A    between atoms: C_1  and  C_2
REMARK    2  A    between atoms: C_4  and  C_5
REMARK    3  A    between atoms: C_11  and  C_12
REMARK    4  A    between atoms: C_12  and  C_13
REMARK    5  A    between atoms: C_13  and  O_14
REMARK    6  A    between atoms: O_14  and  C_15
REMARK    7  A    between atoms: C_18  and  C_19
REMARK    8  A    between atoms: C_19  and  C_20
REMARK    9  A    between atoms: C_20  and  C_21
REMARK   10  A    between atoms: C_20  and  O_22
REMARK   11  A    between atoms: C_20  and  C_29
REMARK   12  A    between atoms: O_22  and  C_23
REMARK   13  A    between atoms: C_29  and  O_31
REMARK                            x       y       z     vdW  Elec       q    Type
REMARK                         _______ _______ _______ _____ _____    ______ ____
ROOT
ATOM      1  C   UNL     1       1.172   9.441  18.976  0.00  0.00    +0.000 A 
ATOM      2  C   UNL     1       1.158   8.716  20.173  0.00  0.00    +0.000 A 
ATOM      3  C   UNL     1       1.901   7.545  20.306  0.00  0.00    +0.000 A 
ATOM      4  C   UNL     1       2.680   7.057  19.246  0.00  0.00    +0.000 A 
ATOM      5  C   UNL     1       2.648   7.749  18.032  0.00  0.00    +0.000 A 
ATOM      6  C   UNL     1       1.894   8.931  17.895  0.00  0.00    +0.000 A 
ENDROOT
BRANCH   1   7
ATOM      7  O   UNL     1       0.528  10.650  18.787  0.00  0.00    +0.000 OA
BRANCH   7   8
ATOM      8  C   UNL     1      -0.689  10.757  19.538  0.00  0.00    +0.000 C 
BRANCH   8   9
ATOM      9  C   UNL     1      -0.836  12.069  20.308  0.00  0.00    +0.000 C 
BRANCH   9  15
ATOM     10  C   UNL     1      -2.492  12.608  23.233  0.00  0.00    +0.000 C 
ATOM     11  C   UNL     1      -2.911  12.526  21.824  0.00  0.00    +0.000 A 
ATOM     12  O   UNL     1      -4.229  12.770  21.563  0.00  0.00    +0.000 OA
ATOM     13  C   UNL     1      -4.355  12.662  20.199  0.00  0.00    +0.000 A 
ATOM     14  N   UNL     1      -3.211  12.363  19.603  0.00  0.00    +0.000 NA
ATOM     15  C   UNL     1      -2.282  12.284  20.623  0.00  0.00    +0.000 A 
BRANCH  13  16
ATOM     16  C   UNL     1      -5.591  12.862  19.489  0.00  0.00    +0.000 A 
ATOM     17  C   UNL     1      -6.706  13.552  19.927  0.00  0.00    +0.000 A 
ATOM     18  C   UNL     1      -7.753  13.576  18.958  0.00  0.00    +0.000 A 
ATOM     19  C   UNL     1      -7.409  12.891  17.815  0.00  0.00    +0.000 A 
ATOM     20  S   UNL     1      -5.837  12.225  17.916  0.00  0.00    +0.000 S 
ENDBRANCH  13  16
ENDBRANCH   9  15
ENDBRANCH   8   9
ENDBRANCH   7   8
ENDBRANCH   1   7
BRANCH   4  21
ATOM     21  C   UNL     1       3.551   5.839  19.486  0.00  0.00    +0.000 C 
BRANCH  21  22
ATOM     22  C   UNL     1       3.035   4.440  19.092  0.00  0.00    +0.000 C 
ATOM     23  C   UNL     1       1.717   4.415  18.316  0.00  0.00    +0.000 C 
BRANCH  22  24
ATOM     24  C   UNL     1       2.791   3.596  20.373  0.00  0.00    +0.000 C 
ATOM     25  O   UNL     1       3.337   2.535  20.635  0.00  0.00    +0.000 OA
BRANCH  24  26
ATOM     26  O   UNL     1       1.923   4.171  21.250  0.00  0.00    +0.000 OA
ATOM     27  H   UNL     1       1.887   5.137  21.076  0.00  0.00    +0.000 HD
ENDBRANCH  24  26
ENDBRANCH  22  24
BRANCH  22  28
ATOM     28  O   UNL     1       4.089   3.677  18.437  0.00  0.00    +0.000 OA
BRANCH  28  29
ATOM     29  C   UNL     1       4.943   4.136  17.485  0.00  0.00    +0.000 A 
ATOM     30  C   UNL     1       6.254   4.328  17.944  0.00  0.00    +0.000 A 
ATOM     31  C   UNL     1       7.279   4.697  17.071  0.00  0.00    +0.000 A 
ATOM     32  C   UNL     1       7.005   4.871  15.719  0.00  0.00    +0.000 A 
ATOM     33  C   UNL     1       5.703   4.706  15.256  0.00  0.00    +0.000 A 
ATOM     34  C   UNL     1       4.672   4.352  16.140  0.00  0.00    +0.000 A 
ENDBRANCH  28  29
ENDBRANCH  22  28
ENDBRANCH  21  22
ENDBRANCH   4  21
TORSDOF 11
ENDMDL
MODEL 5
REMARK VINA RESULT:      -7.9      2.097      3.923
REMARK  Name = 
REMARK  13 active torsions:
REMARK  status: ('A' for Active; 'I' for Inactive)
REMARK    1  A    between atoms: C_1  and  C_2
REMARK    2  A    between atoms: C_4  and  C_5
REMARK    3  A    between atoms: C_11  and  C_12
REMARK    4  A    between atoms: C_12  and  C_13
REMARK    5  A    between atoms: C_13  and  O_14
REMARK    6  A    between atoms: O_14  and  C_15
REMARK    7  A    between atoms: C_18  and  C_19
REMARK    8  A    between atoms: C_19  and  C_20
REMARK    9  A    between atoms: C_20  and  C_21
REMARK   10  A    between atoms: C_20  and  O_22
REMARK   11  A    between atoms: C_20  and  C_29
REMARK   12  A    between atoms: O_22  and  C_23
REMARK   13  A    between atoms: C_29  and  O_31
REMARK                            x       y       z     vdW  Elec       q    Type
REMARK                         _______ _______ _______ _____ _____    ______ ____
ROOT
ATOM      1  C   UNL     1       1.633   9.135  18.837  0.00  0.00    +0.000 A 
ATOM      2  C   UNL     1       1.359   8.477  20.041  0.00  0.00    +0.000 A 
ATOM      3  C   UNL     1       1.844   7.193  20.279  0.00  0.00    +0.000 A 
ATOM      4  C   UNL     1       2.615   6.521  19.320  0.00  0.00    +0.000 A 
ATOM      5  C   UNL     1       2.839   7.154  18.094  0.00  0.00    +0.000 A 
ATOM      6  C   UNL     1       2.346   8.451  17.851  0.00  0.00    +0.000 A 
ENDROOT
BRANCH   1   7
ATOM      7  O   UNL     1       1.258  10.435  18.553  0.00  0.00    +0.000 OA
BRANCH   7   8
ATOM      8  C   UNL     1      -0.164  10.620  18.564  0.00  0.00    +0.000 C 
BRANCH   8   9
ATOM      9  C   UNL     1      -0.605  12.084  18.574  0.00  0.00    +0.000 C 
BRANCH   9  15
ATOM     10  C   UNL     1      -3.515  11.255  17.015  0.00  0.00    +0.000 C 
ATOM     11  C   UNL     1      -3.188  11.781  18.351  0.00  0.00    +0.000 A 
ATOM     12  O   UNL     1      -4.230  11.934  19.219  0.00  0.00    +0.000 OA
ATOM     13  C   UNL     1      -3.667  12.403  20.382  0.00  0.00    +0.000 A 
ATOM     14  N   UNL     1      -2.355  12.554  20.288  0.00  0.00    +0.000 NA
ATOM     15  C   UNL     1      -2.035  12.153  19.005  0.00  0.00    +0.000 A 
BRANCH  13  16
ATOM     16  C   UNL     1      -4.416  12.688  21.578  0.00  0.00    +0.000 A 
ATOM     17  C   UNL     1      -5.775  12.924  21.678  0.00  0.00    +0.000 A 
ATOM     18  C   UNL     1      -6.195  13.152  23.023  0.00  0.00    +0.000 A 
ATOM     19  C   UNL     1      -5.140  13.096  23.906  0.00  0.00    +0.000 A 
ATOM     20  S   UNL     1      -3.658  12.774  23.113  0.00  0.00    +0.000 S 
ENDBRANCH  13  16
ENDBRANCH   9  15
ENDBRANCH   8   9
ENDBRANCH   7   8
ENDBRANCH   1   7
BRANCH   4  21
ATOM     21  C   UNL     1       3.205   5.170  19.678  0.00  0.00    +0.000 C 
BRANCH  21  22
ATOM     22  C   UNL     1       2.843   3.930  18.836  0.00  0.00    +0.000 C 
ATOM     23  C   UNL     1       1.630   4.085  17.917  0.00  0.00    +0.000 C 
BRANCH  22  24
ATOM     24  C   UNL     1       2.513   2.740  19.778  0.00  0.00    +0.000 C 
ATOM     25  O   UNL     1       1.682   1.872  19.558  0.00  0.00    +0.000 OA
BRANCH  24  26
ATOM     26  O   UNL     1       3.288   2.698  20.897  0.00  0.00    +0.000 OA
ATOM     27  H   UNL     1       4.113   2.204  20.696  0.00  0.00    +0.000 HD
ENDBRANCH  24  26
ENDBRANCH  22  24
BRANCH  22  28
ATOM     28  O   UNL     1       4.019   3.430  18.138  0.00  0.00    +0.000 OA
BRANCH  28  29
ATOM     29  C   UNL     1       5.050   4.176  17.661  0.00  0.00    +0.000 A 
ATOM     30  C   UNL     1       4.870   4.614  16.341  0.00  0.00    +0.000 A 
ATOM     31  C   UNL     1       5.786   5.476  15.734  0.00  0.00    +0.000 A 
ATOM     32  C   UNL     1       6.894   5.918  16.446  0.00  0.00    +0.000 A 
ATOM     33  C   UNL     1       7.096   5.471  17.748  0.00  0.00    +0.000 A 
ATOM     34  C   UNL     1       6.183   4.592  18.349  0.00  0.00    +0.000 A 
ENDBRANCH  28  29
ENDBRANCH  22  28
ENDBRANCH  21  22
ENDBRANCH   4  21
TORSDOF 11
ENDMDL
MODEL 6
REMARK VINA RESULT:      -7.9      2.791      4.487
REMARK  Name = 
REMARK  13 active torsions:
REMARK  status: ('A' for Active; 'I' for Inactive)
REMARK    1  A    between atoms: C_1  and  C_2
REMARK    2  A    between atoms: C_4  and  C_5
REMARK    3  A    between atoms: C_11  and  C_12
REMARK    4  A    between atoms: C_12  and  C_13
REMARK    5  A    between atoms: C_13  and  O_14
REMARK    6  A    between atoms: O_14  and  C_15
REMARK    7  A    between atoms: C_18  and  C_19
REMARK    8  A    between atoms: C_19  and  C_20
REMARK    9  A    between atoms: C_20  and  C_21
REMARK   10  A    between atoms: C_20  and  O_22
REMARK   11  A    between atoms: C_20  and  C_29
REMARK   12  A    between atoms: O_22  and  C_23
REMARK   13  A    between atoms: C_29  and  O_31
REMARK                            x       y       z     vdW  Elec       q    Type
REMARK                         _______ _______ _______ _____ _____    ______ ____
ROOT
ATOM      1  C   UNL     1       1.647   8.425  19.679  0.00  0.00    +0.000 A 
ATOM      2  C   UNL     1       2.137   8.018  18.434  0.00  0.00    +0.000 A 
ATOM      3  C   UNL     1       2.453   6.682  18.193  0.00  0.00    +0.000 A 
ATOM      4  C   UNL     1       2.293   5.709  19.190  0.00  0.00    +0.000 A 
ATOM      5  C   UNL     1       1.858   6.124  20.452  0.00  0.00    +0.000 A 
ATOM      6  C   UNL     1       1.542   7.475  20.698  0.00  0.00    +0.000 A 
ENDROOT
BRANCH   1   7
ATOM      7  O   UNL     1       1.236   9.711  19.976  0.00  0.00    +0.000 OA
BRANCH   7   8
ATOM      8  C   UNL     1       0.973   9.903  21.373  0.00  0.00    +0.000 C 
BRANCH   8   9
ATOM      9  C   UNL     1       0.169  11.164  21.691  0.00  0.00    +0.000 C 
BRANCH   9  15
ATOM     10  C   UNL     1       1.276  13.655  19.653  0.00  0.00    +0.000 C 
ATOM     11  C   UNL     1       0.133  12.728  19.602  0.00  0.00    +0.000 A 
ATOM     12  O   UNL     1      -0.656  12.792  18.490  0.00  0.00    +0.000 OA
ATOM     13  C   UNL     1      -1.615  11.825  18.670  0.00  0.00    +0.000 A 
ATOM     14  N   UNL     1      -1.476  11.176  19.816  0.00  0.00    +0.000 NA
ATOM     15  C   UNL     1      -0.362  11.733  20.414  0.00  0.00    +0.000 A 
BRANCH  13  16
ATOM     16  C   UNL     1      -2.654  11.538  17.716  0.00  0.00    +0.000 A 
ATOM     17  C   UNL     1      -2.497  11.156  16.396  0.00  0.00    +0.000 A 
ATOM     18  C   UNL     1      -3.743  10.928  15.739  0.00  0.00    +0.000 A 
ATOM     19  C   UNL     1      -4.813  11.155  16.574  0.00  0.00    +0.000 A 
ATOM     20  S   UNL     1      -4.313  11.642  18.136  0.00  0.00    +0.000 S 
ENDBRANCH  13  16
ENDBRANCH   9  15
ENDBRANCH   8   9
ENDBRANCH   7   8
ENDBRANCH   1   7
BRANCH   4  21
ATOM     21  C   UNL     1       2.549   4.257  18.836  0.00  0.00    +0.000 C 
BRANCH  21  22
ATOM     22  C   UNL     1       3.980   3.794  18.495  0.00  0.00    +0.000 C 
ATOM     23  C   UNL     1       4.328   3.762  17.006  0.00  0.00    +0.000 C 
BRANCH  22  24
ATOM     24  C   UNL     1       4.196   2.346  19.015  0.00  0.00    +0.000 C 
ATOM     25  O   UNL     1       3.712   1.338  18.523  0.00  0.00    +0.000 OA
BRANCH  24  26
ATOM     26  O   UNL     1       5.045   2.268  20.077  0.00  0.00    +0.000 OA
ATOM     27  H   UNL     1       5.422   1.361  20.117  0.00  0.00    +0.000 HD
ENDBRANCH  24  26
ENDBRANCH  22  24
BRANCH  22  28
ATOM     28  O   UNL     1       4.954   4.534  19.286  0.00  0.00    +0.000 OA
BRANCH  28  29
ATOM     29  C   UNL     1       5.938   5.339  18.806  0.00  0.00    +0.000 A 
ATOM     30  C   UNL     1       5.543   6.131  17.719  0.00  0.00    +0.000 A 
ATOM     31  C   UNL     1       6.400   7.087  17.171  0.00  0.00    +0.000 A 
ATOM     32  C   UNL     1       7.668   7.268  17.713  0.00  0.00    +0.000 A 
ATOM     33  C   UNL     1       8.080   6.471  18.776  0.00  0.00    +0.000 A 
ATOM     34  C   UNL     1       7.221   5.499  19.312  0.00  0.00    +0.000 A 
ENDBRANCH  28  29
ENDBRANCH  22  28
ENDBRANCH  21  22
ENDBRANCH   4  21
TORSDOF 11
ENDMDL
MODEL 7
REMARK VINA RESULT:      -7.9      0.738      1.165
REMARK  Name = 
REMARK  13 active torsions:
REMARK  status: ('A' for Active; 'I' for Inactive)
REMARK    1  A    between atoms: C_1  and  C_2
REMARK    2  A    between atoms: C_4  and  C_5
REMARK    3  A    between atoms: C_11  and  C_12
REMARK    4  A    between atoms: C_12  and  C_13
REMARK    5  A    between atoms: C_13  and  O_14
REMARK    6  A    between atoms: O_14  and  C_15
REMARK    7  A    between atoms: C_18  and  C_19
REMARK    8  A    between atoms: C_19  and  C_20
REMARK    9  A    between atoms: C_20  and  C_21
REMARK   10  A    between atoms: C_20  and  O_22
REMARK   11  A    between atoms: C_20  and  C_29
REMARK   12  A    between atoms: O_22  and  C_23
REMARK   13  A    between atoms: C_29  and  O_31
REMARK                            x       y       z     vdW  Elec       q    Type
REMARK                         _______ _______ _______ _____ _____    ______ ____
ROOT
ATOM      1  C   UNL     1       1.810   8.105  19.491  0.00  0.00    +0.000 A 
ATOM      2  C   UNL     1       2.249   6.834  19.878  0.00  0.00    +0.000 A 
ATOM      3  C   UNL     1       3.151   6.120  19.091  0.00  0.00    +0.000 A 
ATOM      4  C   UNL     1       3.642   6.652  17.890  0.00  0.00    +0.000 A 
ATOM      5  C   UNL     1       3.160   7.897  17.474  0.00  0.00    +0.000 A 
ATOM      6  C   UNL     1       2.245   8.617  18.266  0.00  0.00    +0.000 A 
ENDROOT
BRANCH   1   7
ATOM      7  O   UNL     1       0.981   8.910  20.249  0.00  0.00    +0.000 OA
BRANCH   7   8
ATOM      8  C   UNL     1       0.825  10.225  19.697  0.00  0.00    +0.000 C 
BRANCH   8   9
ATOM      9  C   UNL     1       1.003  11.355  20.711  0.00  0.00    +0.000 C 
BRANCH   9  15
ATOM     10  C   UNL     1      -0.092   9.551  23.382  0.00  0.00    +0.000 C 
ATOM     11  C   UNL     1      -0.624  10.712  22.647  0.00  0.00    +0.000 A 
ATOM     12  O   UNL     1      -1.774  11.267  23.132  0.00  0.00    +0.000 OA
ATOM     13  C   UNL     1      -2.040  12.330  22.302  0.00  0.00    +0.000 A 
ATOM     14  N   UNL     1      -1.141  12.464  21.340  0.00  0.00    +0.000 NA
ATOM     15  C   UNL     1      -0.229  11.447  21.553  0.00  0.00    +0.000 A 
BRANCH  13  16
ATOM     16  C   UNL     1      -3.166  13.211  22.465  0.00  0.00    +0.000 A 
ATOM     17  C   UNL     1      -4.481  12.854  22.702  0.00  0.00    +0.000 A 
ATOM     18  C   UNL     1      -5.342  13.985  22.835  0.00  0.00    +0.000 A 
ATOM     19  C   UNL     1      -4.658  15.170  22.682  0.00  0.00    +0.000 A 
ATOM     20  S   UNL     1      -2.994  14.915  22.378  0.00  0.00    +0.000 S 
ENDBRANCH  13  16
ENDBRANCH   9  15
ENDBRANCH   8   9
ENDBRANCH   7   8
ENDBRANCH   1   7
BRANCH   4  21
ATOM     21  C   UNL     1       4.704   5.877  17.133  0.00  0.00    +0.000 C 
BRANCH  21  22
ATOM     22  C   UNL     1       5.689   4.976  17.905  0.00  0.00    +0.000 C 
ATOM     23  C   UNL     1       6.059   5.452  19.310  0.00  0.00    +0.000 C 
BRANCH  22  24
ATOM     24  C   UNL     1       7.027   4.877  17.123  0.00  0.00    +0.000 C 
ATOM     25  O   UNL     1       7.287   5.471  16.087  0.00  0.00    +0.000 OA
BRANCH  24  26
ATOM     26  O   UNL     1       7.954   4.083  17.725  0.00  0.00    +0.000 OA
ATOM     27  H   UNL     1       8.515   4.636  18.312  0.00  0.00    +0.000 HD
ENDBRANCH  24  26
ENDBRANCH  22  24
BRANCH  22  28
ATOM     28  O   UNL     1       5.235   3.592  17.879  0.00  0.00    +0.000 OA
BRANCH  28  29
ATOM     29  C   UNL     1       4.042   3.126  18.337  0.00  0.00    +0.000 A 
ATOM     30  C   UNL     1       4.022   2.881  19.717  0.00  0.00    +0.000 A 
ATOM     31  C   UNL     1       2.846   2.498  20.365  0.00  0.00    +0.000 A 
ATOM     32  C   UNL     1       1.669   2.363  19.638  0.00  0.00    +0.000 A 
ATOM     33  C   UNL     1       1.683   2.580  18.264  0.00  0.00    +0.000 A 
ATOM     34  C   UNL     1       2.871   2.948  17.613  0.00  0.00    +0.000 A 
ENDBRANCH  28  29
ENDBRANCH  22  28
ENDBRANCH  21  22
ENDBRANCH   4  21
TORSDOF 11
ENDMDL
MODEL 8
REMARK VINA RESULT:      -7.8      2.982      4.869
REMARK  Name = 
REMARK  13 active torsions:
REMARK  status: ('A' for Active; 'I' for Inactive)
REMARK    1  A    between atoms: C_1  and  C_2
REMARK    2  A    between atoms: C_4  and  C_5
REMARK    3  A    between atoms: C_11  and  C_12
REMARK    4  A    between atoms: C_12  and  C_13
REMARK    5  A    between atoms: C_13  and  O_14
REMARK    6  A    between atoms: O_14  and  C_15
REMARK    7  A    between atoms: C_18  and  C_19
REMARK    8  A    between atoms: C_19  and  C_20
REMARK    9  A    between atoms: C_20  and  C_21
REMARK   10  A    between atoms: C_20  and  O_22
REMARK   11  A    between atoms: C_20  and  C_29
REMARK   12  A    between atoms: O_22  and  C_23
REMARK   13  A    between atoms: C_29  and  O_31
REMARK                            x       y       z     vdW  Elec       q    Type
REMARK                         _______ _______ _______ _____ _____    ______ ____
ROOT
ATOM      1  C   UNL     1       1.758   8.151  19.742  0.00  0.00    +0.000 A 
ATOM      2  C   UNL     1       2.111   7.680  18.472  0.00  0.00    +0.000 A 
ATOM      3  C   UNL     1       2.258   6.316  18.232  0.00  0.00    +0.000 A 
ATOM      4  C   UNL     1       2.062   5.376  19.254  0.00  0.00    +0.000 A 
ATOM      5  C   UNL     1       1.766   5.848  20.536  0.00  0.00    +0.000 A 
ATOM      6  C   UNL     1       1.621   7.227  20.781  0.00  0.00    +0.000 A 
ENDROOT
BRANCH   1   7
ATOM      7  O   UNL     1       1.514   9.478  20.044  0.00  0.00    +0.000 OA
BRANCH   7   8
ATOM      8  C   UNL     1       0.117   9.768  20.190  0.00  0.00    +0.000 C 
BRANCH   8   9
ATOM      9  C   UNL     1      -0.536  10.348  18.935  0.00  0.00    +0.000 C 
BRANCH   9  15
ATOM     10  C   UNL     1      -2.794  12.581  20.161  0.00  0.00    +0.000 C 
ATOM     11  C   UNL     1      -1.454  12.709  19.563  0.00  0.00    +0.000 A 
ATOM     12  O   UNL     1      -0.923  13.966  19.517  0.00  0.00    +0.000 OA
ATOM     13  C   UNL     1       0.320  13.813  18.951  0.00  0.00    +0.000 A 
ATOM     14  N   UNL     1       0.588  12.555  18.640  0.00  0.00    +0.000 NA
ATOM     15  C   UNL     1      -0.527  11.840  19.032  0.00  0.00    +0.000 A 
BRANCH  13  16
ATOM     16  C   UNL     1       1.239  14.899  18.729  0.00  0.00    +0.000 A 
ATOM     17  C   UNL     1       0.948  16.251  18.710  0.00  0.00    +0.000 A 
ATOM     18  C   UNL     1       2.103  17.058  18.484  0.00  0.00    +0.000 A 
ATOM     19  C   UNL     1       3.238  16.295  18.325  0.00  0.00    +0.000 A 
ATOM     20  S   UNL     1       2.906  14.621  18.445  0.00  0.00    +0.000 S 
ENDBRANCH  13  16
ENDBRANCH   9  15
ENDBRANCH   8   9
ENDBRANCH   7   8
ENDBRANCH   1   7
BRANCH   4  21
ATOM     21  C   UNL     1       2.129   3.901  18.907  0.00  0.00    +0.000 C 
BRANCH  21  22
ATOM     22  C   UNL     1       3.499   3.194  18.834  0.00  0.00    +0.000 C 
ATOM     23  C   UNL     1       3.603   2.058  17.815  0.00  0.00    +0.000 C 
BRANCH  22  24
ATOM     24  C   UNL     1       3.833   2.563  20.212  0.00  0.00    +0.000 C 
ATOM     25  O   UNL     1       3.115   2.598  21.200  0.00  0.00    +0.000 OA
BRANCH  24  26
ATOM     26  O   UNL     1       5.017   1.891  20.233  0.00  0.00    +0.000 OA
ATOM     27  H   UNL     1       5.739   2.522  20.451  0.00  0.00    +0.000 HD
ENDBRANCH  24  26
ENDBRANCH  22  24
BRANCH  22  28
ATOM     28  O   UNL     1       4.567   4.175  18.696  0.00  0.00    +0.000 OA
BRANCH  28  29
ATOM     29  C   UNL     1       5.262   4.457  17.563  0.00  0.00    +0.000 A 
ATOM     30  C   UNL     1       6.654   4.405  17.723  0.00  0.00    +0.000 A 
ATOM     31  C   UNL     1       7.513   4.567  16.635  0.00  0.00    +0.000 A 
ATOM     32  C   UNL     1       6.987   4.776  15.365  0.00  0.00    +0.000 A 
ATOM     33  C   UNL     1       5.608   4.854  15.198  0.00  0.00    +0.000 A 
ATOM     34  C   UNL     1       4.748   4.708  16.297  0.00  0.00    +0.000 A 
ENDBRANCH  28  29
ENDBRANCH  22  28
ENDBRANCH  21  22
ENDBRANCH   4  21
TORSDOF 11
ENDMDL
MODEL 9
REMARK VINA RESULT:      -7.8      1.897      3.635
REMARK  Name = 
REMARK  13 active torsions:
REMARK  status: ('A' for Active; 'I' for Inactive)
REMARK    1  A    between atoms: C_1  and  C_2
REMARK    2  A    between atoms: C_4  and  C_5
REMARK    3  A    between atoms: C_11  and  C_12
REMARK    4  A    between atoms: C_12  and  C_13
REMARK    5  A    between atoms: C_13  and  O_14
REMARK    6  A    between atoms: O_14  and  C_15
REMARK    7  A    between atoms: C_18  and  C_19
REMARK    8  A    between atoms: C_19  and  C_20
REMARK    9  A    between atoms: C_20  and  C_21
REMARK   10  A    between atoms: C_20  and  O_22
REMARK   11  A    between atoms: C_20  and  C_29
REMARK   12  A    between atoms: O_22  and  C_23
REMARK   13  A    between atoms: C_29  and  O_31
REMARK                            x       y       z     vdW  Elec       q    Type
REMARK                         _______ _______ _______ _____ _____    ______ ____
ROOT
ATOM      1  C   UNL     1       1.503   8.564  19.993  0.00  0.00    +0.000 A 
ATOM      2  C   UNL     1       1.914   8.385  18.668  0.00  0.00    +0.000 A 
ATOM      3  C   UNL     1       2.253   7.120  18.190  0.00  0.00    +0.000 A 
ATOM      4  C   UNL     1       2.195   5.993  19.023  0.00  0.00    +0.000 A 
ATOM      5  C   UNL     1       1.839   6.181  20.362  0.00  0.00    +0.000 A 
ATOM      6  C   UNL     1       1.501   7.459  20.846  0.00  0.00    +0.000 A 
ENDROOT
BRANCH   1   7
ATOM      7  O   UNL     1       1.075   9.768  20.523  0.00  0.00    +0.000 OA
BRANCH   7   8
ATOM      8  C   UNL     1       0.891  10.782  19.525  0.00  0.00    +0.000 C 
BRANCH   8   9
ATOM      9  C   UNL     1       0.541  12.159  20.089  0.00  0.00    +0.000 C 
BRANCH   9  15
ATOM     10  C   UNL     1      -1.851  11.831  17.689  0.00  0.00    +0.000 C 
ATOM     11  C   UNL     1      -1.887  12.134  19.130  0.00  0.00    +0.000 A 
ATOM     12  O   UNL     1      -3.122  12.262  19.697  0.00  0.00    +0.000 OA
ATOM     13  C   UNL     1      -2.885  12.509  21.028  0.00  0.00    +0.000 A 
ATOM     14  N   UNL     1      -1.594  12.549  21.318  0.00  0.00    +0.000 NA
ATOM     15  C   UNL     1      -0.947  12.302  20.122  0.00  0.00    +0.000 A 
BRANCH  13  16
ATOM     16  C   UNL     1      -3.925  12.695  22.006  0.00  0.00    +0.000 A 
ATOM     17  C   UNL     1      -5.280  12.839  21.771  0.00  0.00    +0.000 A 
ATOM     18  C   UNL     1      -6.034  12.982  22.974  0.00  0.00    +0.000 A 
ATOM     19  C   UNL     1      -5.229  12.956  24.090  0.00  0.00    +0.000 A 
ATOM     20  S   UNL     1      -3.578  12.763  23.684  0.00  0.00    +0.000 S 
ENDBRANCH  13  16
ENDBRANCH   9  15
ENDBRANCH   8   9
ENDBRANCH   7   8
ENDBRANCH   1   7
BRANCH   4  21
ATOM     21  C   UNL     1       2.469   4.629  18.419  0.00  0.00    +0.000 C 
BRANCH  21  22
ATOM     22  C   UNL     1       3.864   3.991  18.574  0.00  0.00    +0.000 C 
ATOM     23  C   UNL     1       4.501   3.470  17.285  0.00  0.00    +0.000 C 
BRANCH  22  24
ATOM     24  C   UNL     1       3.775   2.769  19.529  0.00  0.00    +0.000 C 
ATOM     25  O   UNL     1       2.746   2.325  20.015  0.00  0.00    +0.000 OA
BRANCH  24  26
ATOM     26  O   UNL     1       4.974   2.166  19.759  0.00  0.00    +0.000 OA
ATOM     27  H   UNL     1       5.691   2.829  19.647  0.00  0.00    +0.000 HD
ENDBRANCH  24  26
ENDBRANCH  22  24
BRANCH  22  28
ATOM     28  O   UNL     1       4.747   4.878  19.320  0.00  0.00    +0.000 OA
BRANCH  28  29
ATOM     29  C   UNL     1       5.818   5.552  18.825  0.00  0.00    +0.000 A 
ATOM     30  C   UNL     1       5.511   6.386  17.740  0.00  0.00    +0.000 A 
ATOM     31  C   UNL     1       6.475   7.226  17.180  0.00  0.00    +0.000 A 
ATOM     32  C   UNL     1       7.761   7.249  17.705  0.00  0.00    +0.000 A 
ATOM     33  C   UNL     1       8.084   6.408  18.766  0.00  0.00    +0.000 A 
ATOM     34  C   UNL     1       7.117   5.552  19.316  0.00  0.00    +0.000 A 
ENDBRANCH  28  29
ENDBRANCH  22  28
ENDBRANCH  21  22
ENDBRANCH   4  21
TORSDOF 11
ENDMDL
