MODEL 1
REMARK VINA RESULT:      -7.8      0.000      0.000
REMARK  Name = 
REMARK  8 active torsions:
REMARK  status: ('A' for Active; 'I' for Inactive)
REMARK    1  A    between atoms: C_1  and  O_2
REMARK    2  A    between atoms: O_2  and  C_3
REMARK    3  A    between atoms: C_7  and  C_8
REMARK    4  A    between atoms: N_10  and  CA_11
REMARK    5  A    between atoms: CA_11  and  C_12
REMARK    6  A    between atoms: CA_11  and  C_15
REMARK    7  A    between atoms: C_12  and  OXT_14
REMARK    8  A    between atoms: C_22  and  C_23
REMARK                            x       y       z     vdW  Elec       q    Type
REMARK                         _______ _______ _______ _____ _____    ______ ____
ROOT
ATOM      1  C   UNL     1      -0.730  10.412  22.372  0.00  0.00    +0.000 A 
ATOM      2  C   UNL     1      -0.645   9.179  21.742  0.00  0.00    +0.000 A 
ATOM      3  C   UNL     1       0.103   9.049  20.571  0.00  0.00    +0.000 A 
ATOM      4  C   UNL     1       0.825  10.141  20.026  0.00  0.00    +0.000 A 
ATOM      5  C   UNL     1       1.669  10.091  18.889  0.00  0.00    +0.000 A 
ATOM      6  C   UNL     1       2.226  11.270  18.386  0.00  0.00    +0.000 A 
ATOM      7  C   UNL     1       1.988  12.475  19.027  0.00  0.00    +0.000 A 
ATOM      8  N   UNL     1       1.256  12.524  20.165  0.00  0.00    +0.000 NA
ATOM      9  C   UNL     1       0.687  11.404  20.645  0.00  0.00    +0.000 A 
ATOM     10  C   UNL     1      -0.077  11.508  21.802  0.00  0.00    +0.000 A 
ENDROOT
BRANCH   7  11
ATOM     11  C   UNL     1       2.551  13.750  18.531  0.00  0.00    +0.000 A 
ATOM     12  C   UNL     1       3.875  13.838  18.058  0.00  0.00    +0.000 A 
ATOM     13  C   UNL     1       4.431  15.056  17.655  0.00  0.00    +0.000 A 
ATOM     14  C   UNL     1       3.668  16.218  17.705  0.00  0.00    +0.000 A 
ATOM     15  C   UNL     1       2.346  16.156  18.134  0.00  0.00    +0.000 A 
ATOM     16  C   UNL     1       1.793  14.934  18.538  0.00  0.00    +0.000 A 
ENDBRANCH   7  11
BRANCH   5  17
ATOM     17  C   UNL     1       2.090   8.859  18.156  0.00  0.00    +0.000 C 
ATOM     18  O   UNL     1       2.286   8.918  16.947  0.00  0.00    +0.000 OA
ATOM     19  N   UNL     1       2.366   7.728  18.894  0.00  0.00    +0.000 N 
ATOM     20  H   UNL     1       2.100   7.678  19.869  0.00  0.00    +0.000 HD
BRANCH  19  21
ATOM     21  CA  UNL     1       2.800   6.475  18.247  0.00  0.00    +0.000 C 
BRANCH  21  22
ATOM     22  C   UNL     1       2.118   5.262  18.851  0.00  0.00    +0.000 A 
ATOM     23  C   UNL     1       1.754   4.189  18.015  0.00  0.00    +0.000 A 
ATOM     24  C   UNL     1       1.132   3.051  18.533  0.00  0.00    +0.000 A 
ATOM     25  C   UNL     1       0.857   2.968  19.895  0.00  0.00    +0.000 A 
ATOM     26  C   UNL     1       1.203   4.023  20.737  0.00  0.00    +0.000 A 
ATOM     27  C   UNL     1       1.822   5.165  20.219  0.00  0.00    +0.000 A 
ENDBRANCH  21  22
BRANCH  21  28
ATOM     28  C   UNL     1       4.345   6.422  18.261  0.00  0.00    +0.000 C 
ATOM     29  O   UNL     1       5.043   5.757  19.010  0.00  0.00    +0.000 OA
BRANCH  28  30
ATOM     30  OXT UNL     1       4.895   7.159  17.251  0.00  0.00    +0.000 OA
ATOM     31  HXT UNL     1       4.521   8.064  17.241  0.00  0.00    +0.000 HD
ENDBRANCH  28  30
ENDBRANCH  21  28
ENDBRANCH  19  21
ENDBRANCH   5  17
BRANCH   1  33
ATOM     32  C   UNL     1      -2.384  11.729  23.461  0.00  0.00    +0.000 C 
ATOM     33  O   UNL     1      -1.427  10.676  23.518  0.00  0.00    +0.000 OA
ENDBRANCH   1  33
TORSDOF 7
ENDMDL
MODEL 2
REMARK VINA RESULT:      -7.6      0.130      1.353
REMARK  Name = 
REMARK  8 active torsions:
REMARK  status: ('A' for Active; 'I' for Inactive)
REMARK    1  A    between atoms: C_1  and  O_2
REMARK    2  A    between atoms: O_2  and  C_3
REMARK    3  A    between atoms: C_7  and  C_8
REMARK    4  A    between atoms: N_10  and  CA_11
REMARK    5  A    between atoms: CA_11  and  C_12
REMARK    6  A    between atoms: CA_11  and  C_15
REMARK    7  A    between atoms: C_12  and  OXT_14
REMARK    8  A    between atoms: C_22  and  C_23
REMARK                            x       y       z     vdW  Elec       q    Type
REMARK                         _______ _______ _______ _____ _____    ______ ____
ROOT
ATOM      1  C   UNL     1      -0.746  10.310  22.388  0.00  0.00    +0.000 A 
ATOM      2  C   UNL     1      -0.643   9.091  21.732  0.00  0.00    +0.000 A 
ATOM      3  C   UNL     1       0.105   8.998  20.557  0.00  0.00    +0.000 A 
ATOM      4  C   UNL     1       0.808  10.112  20.034  0.00  0.00    +0.000 A 
ATOM      5  C   UNL     1       1.650  10.099  18.895  0.00  0.00    +0.000 A 
ATOM      6  C   UNL     1       2.187  11.297  18.416  0.00  0.00    +0.000 A 
ATOM      7  C   UNL     1       1.931  12.484  19.082  0.00  0.00    +0.000 A 
ATOM      8  N   UNL     1       1.201  12.498  20.222  0.00  0.00    +0.000 NA
ATOM      9  C   UNL     1       0.651  11.359  20.679  0.00  0.00    +0.000 A 
ATOM     10  C   UNL     1      -0.112  11.428  21.840  0.00  0.00    +0.000 A 
ENDROOT
BRANCH   7  11
ATOM     11  C   UNL     1       2.473  13.778  18.612  0.00  0.00    +0.000 A 
ATOM     12  C   UNL     1       1.714  14.963  18.673  0.00  0.00    +0.000 A 
ATOM     13  C   UNL     1       2.198  16.173  18.166  0.00  0.00    +0.000 A 
ATOM     14  C   UNL     1       3.465  16.228  17.593  0.00  0.00    +0.000 A 
ATOM     15  C   UNL     1       4.253  15.082  17.551  0.00  0.00    +0.000 A 
ATOM     16  C   UNL     1       3.763  13.871  18.059  0.00  0.00    +0.000 A 
ENDBRANCH   7  11
BRANCH   5  17
ATOM     17  C   UNL     1       2.089   8.890  18.136  0.00  0.00    +0.000 C 
ATOM     18  O   UNL     1       2.313   8.984  16.933  0.00  0.00    +0.000 OA
ATOM     19  N   UNL     1       2.350   7.738  18.846  0.00  0.00    +0.000 N 
ATOM     20  H   UNL     1       2.063   7.659  19.813  0.00  0.00    +0.000 HD
BRANCH  19  21
ATOM     21  CA  UNL     1       2.801   6.505  18.172  0.00  0.00    +0.000 C 
BRANCH  21  22
ATOM     22  C   UNL     1       2.131   5.270  18.748  0.00  0.00    +0.000 A 
ATOM     23  C   UNL     1       1.789   5.246  20.113  0.00  0.00    +0.000 A 
ATOM     24  C   UNL     1       1.165   4.133  20.680  0.00  0.00    +0.000 A 
ATOM     25  C   UNL     1       0.876   3.022  19.892  0.00  0.00    +0.000 A 
ATOM     26  C   UNL     1       1.213   3.025  18.540  0.00  0.00    +0.000 A 
ATOM     27  C   UNL     1       1.843   4.137  17.972  0.00  0.00    +0.000 A 
ENDBRANCH  21  22
BRANCH  21  28
ATOM     28  C   UNL     1       4.346   6.469  18.189  0.00  0.00    +0.000 C 
ATOM     29  O   UNL     1       5.096   7.093  17.455  0.00  0.00    +0.000 OA
BRANCH  28  30
ATOM     30  OXT UNL     1       4.832   5.703  19.209  0.00  0.00    +0.000 OA
ATOM     31  HXT UNL     1       4.109   5.202  19.640  0.00  0.00    +0.000 HD
ENDBRANCH  28  30
ENDBRANCH  21  28
ENDBRANCH  19  21
ENDBRANCH   5  17
BRANCH   1  33
ATOM     32  C   UNL     1      -2.353  11.635  23.535  0.00  0.00    +0.000 C 
ATOM     33  O   UNL     1      -1.445  10.539  23.541  0.00  0.00    +0.000 OA
ENDBRANCH   1  33
TORSDOF 7
ENDMDL
MODEL 3
REMARK VINA RESULT:      -7.4      3.856      6.821
REMARK  Name = 
REMARK  8 active torsions:
REMARK  status: ('A' for Active; 'I' for Inactive)
REMARK    1  A    between atoms: C_1  and  O_2
REMARK    2  A    between atoms: O_2  and  C_3
REMARK    3  A    between atoms: C_7  and  C_8
REMARK    4  A    between atoms: N_10  and  CA_11
REMARK    5  A    between atoms: CA_11  and  C_12
REMARK    6  A    between atoms: CA_11  and  C_15
REMARK    7  A    between atoms: C_12  and  OXT_14
REMARK    8  A    between atoms: C_22  and  C_23
REMARK                            x       y       z     vdW  Elec       q    Type
REMARK                         _______ _______ _______ _____ _____    ______ ____
ROOT
ATOM      1  C   UNL     1       3.383   3.012  20.160  0.00  0.00    +0.000 A 
ATOM      2  C   UNL     1       4.204   2.786  19.064  0.00  0.00    +0.000 A 
ATOM      3  C   UNL     1       4.418   3.808  18.138  0.00  0.00    +0.000 A 
ATOM      4  C   UNL     1       3.854   5.096  18.310  0.00  0.00    +0.000 A 
ATOM      5  C   UNL     1       4.073   6.215  17.468  0.00  0.00    +0.000 A 
ATOM      6  C   UNL     1       3.357   7.396  17.684  0.00  0.00    +0.000 A 
ATOM      7  C   UNL     1       2.472   7.483  18.745  0.00  0.00    +0.000 A 
ATOM      8  N   UNL     1       2.320   6.453  19.610  0.00  0.00    +0.000 NA
ATOM      9  C   UNL     1       2.977   5.298  19.399  0.00  0.00    +0.000 A 
ATOM     10  C   UNL     1       2.769   4.259  20.299  0.00  0.00    +0.000 A 
ENDROOT
BRANCH   7  11
ATOM     11  C   UNL     1       1.689   8.710  19.013  0.00  0.00    +0.000 A 
ATOM     12  C   UNL     1       1.085   8.943  20.265  0.00  0.00    +0.000 A 
ATOM     13  C   UNL     1       0.287  10.067  20.498  0.00  0.00    +0.000 A 
ATOM     14  C   UNL     1       0.083  10.995  19.482  0.00  0.00    +0.000 A 
ATOM     15  C   UNL     1       0.695  10.811  18.246  0.00  0.00    +0.000 A 
ATOM     16  C   UNL     1       1.493   9.682  18.016  0.00  0.00    +0.000 A 
ENDBRANCH   7  11
BRANCH   5  17
ATOM     17  C   UNL     1       5.059   6.299  16.350  0.00  0.00    +0.000 C 
ATOM     18  O   UNL     1       5.854   7.233  16.318  0.00  0.00    +0.000 OA
ATOM     19  N   UNL     1       5.122   5.248  15.460  0.00  0.00    +0.000 N 
ATOM     20  H   UNL     1       4.394   4.545  15.449  0.00  0.00    +0.000 HD
BRANCH  19  21
ATOM     21  CA  UNL     1       6.078   5.248  14.336  0.00  0.00    +0.000 C 
BRANCH  21  22
ATOM     22  C   UNL     1       5.703   4.227  13.277  0.00  0.00    +0.000 A 
ATOM     23  C   UNL     1       6.670   3.300  12.842  0.00  0.00    +0.000 A 
ATOM     24  C   UNL     1       6.364   2.340  11.876  0.00  0.00    +0.000 A 
ATOM     25  C   UNL     1       5.088   2.293  11.323  0.00  0.00    +0.000 A 
ATOM     26  C   UNL     1       4.120   3.206  11.736  0.00  0.00    +0.000 A 
ATOM     27  C   UNL     1       4.426   4.171  12.700  0.00  0.00    +0.000 A 
ENDBRANCH  21  22
BRANCH  21  28
ATOM     28  C   UNL     1       7.507   5.096  14.903  0.00  0.00    +0.000 C 
ATOM     29  O   UNL     1       7.827   4.495  15.917  0.00  0.00    +0.000 OA
BRANCH  28  30
ATOM     30  OXT UNL     1       8.448   5.650  14.084  0.00  0.00    +0.000 OA
ATOM     31  HXT UNL     1       8.097   6.455  13.649  0.00  0.00    +0.000 HD
ENDBRANCH  28  30
ENDBRANCH  21  28
ENDBRANCH  19  21
ENDBRANCH   5  17
BRANCH   1  33
ATOM     32  C   UNL     1       1.882   2.305  21.864  0.00  0.00    +0.000 C 
ATOM     33  O   UNL     1       3.089   2.102  21.138  0.00  0.00    +0.000 OA
ENDBRANCH   1  33
TORSDOF 7
ENDMDL
MODEL 4
REMARK VINA RESULT:      -7.3      3.848      6.696
REMARK  Name = 
REMARK  8 active torsions:
REMARK  status: ('A' for Active; 'I' for Inactive)
REMARK    1  A    between atoms: C_1  and  O_2
REMARK    2  A    between atoms: O_2  and  C_3
REMARK    3  A    between atoms: C_7  and  C_8
REMARK    4  A    between atoms: N_10  and  CA_11
REMARK    5  A    between atoms: CA_11  and  C_12
REMARK    6  A    between atoms: CA_11  and  C_15
REMARK    7  A    between atoms: C_12  and  OXT_14
REMARK    8  A    between atoms: C_22  and  C_23
REMARK                            x       y       z     vdW  Elec       q    Type
REMARK                         _______ _______ _______ _____ _____    ______ ____
ROOT
ATOM      1  C   UNL     1       2.427   3.017  19.522  0.00  0.00    +0.000 A 
ATOM      2  C   UNL     1       3.306   2.745  18.483  0.00  0.00    +0.000 A 
ATOM      3  C   UNL     1       3.781   3.789  17.687  0.00  0.00    +0.000 A 
ATOM      4  C   UNL     1       3.426   5.137  17.941  0.00  0.00    +0.000 A 
ATOM      5  C   UNL     1       3.913   6.268  17.240  0.00  0.00    +0.000 A 
ATOM      6  C   UNL     1       3.386   7.534  17.513  0.00  0.00    +0.000 A 
ATOM      7  C   UNL     1       2.424   7.684  18.498  0.00  0.00    +0.000 A 
ATOM      8  N   UNL     1       2.014   6.626  19.237  0.00  0.00    +0.000 NA
ATOM      9  C   UNL     1       2.488   5.396  18.966  0.00  0.00    +0.000 A 
ATOM     10  C   UNL     1       2.019   4.336  19.734  0.00  0.00    +0.000 A 
ENDROOT
BRANCH   7  11
ATOM     11  C   UNL     1       1.833   9.001  18.821  0.00  0.00    +0.000 A 
ATOM     12  C   UNL     1       0.996   9.181  19.940  0.00  0.00    +0.000 A 
ATOM     13  C   UNL     1       0.381  10.408  20.208  0.00  0.00    +0.000 A 
ATOM     14  C   UNL     1       0.601  11.492  19.365  0.00  0.00    +0.000 A 
ATOM     15  C   UNL     1       1.452  11.355  18.272  0.00  0.00    +0.000 A 
ATOM     16  C   UNL     1       2.064  10.124  18.007  0.00  0.00    +0.000 A 
ENDBRANCH   7  11
BRANCH   5  17
ATOM     17  C   UNL     1       5.008   6.273  16.225  0.00  0.00    +0.000 C 
ATOM     18  O   UNL     1       5.891   7.121  16.298  0.00  0.00    +0.000 OA
ATOM     19  N   UNL     1       5.053   5.239  15.314  0.00  0.00    +0.000 N 
ATOM     20  H   UNL     1       4.264   4.615  15.213  0.00  0.00    +0.000 HD
BRANCH  19  21
ATOM     21  CA  UNL     1       6.111   5.163  14.288  0.00  0.00    +0.000 C 
BRANCH  21  22
ATOM     22  C   UNL     1       5.789   4.132  13.221  0.00  0.00    +0.000 A 
ATOM     23  C   UNL     1       4.489   4.082  12.683  0.00  0.00    +0.000 A 
ATOM     24  C   UNL     1       4.154   3.154  11.695  0.00  0.00    +0.000 A 
ATOM     25  C   UNL     1       5.112   2.257  11.231  0.00  0.00    +0.000 A 
ATOM     26  C   UNL     1       6.402   2.288  11.757  0.00  0.00    +0.000 A 
ATOM     27  C   UNL     1       6.738   3.213  12.750  0.00  0.00    +0.000 A 
ENDBRANCH  21  22
BRANCH  21  28
ATOM     28  C   UNL     1       7.471   4.960  14.994  0.00  0.00    +0.000 C 
ATOM     29  O   UNL     1       7.683   4.270  15.979  0.00  0.00    +0.000 OA
BRANCH  28  30
ATOM     30  OXT UNL     1       8.491   5.585  14.337  0.00  0.00    +0.000 OA
ATOM     31  HXT UNL     1       8.852   6.318  14.876  0.00  0.00    +0.000 HD
ENDBRANCH  28  30
ENDBRANCH  21  28
ENDBRANCH  19  21
ENDBRANCH   5  17
BRANCH   1  33
ATOM     32  C   UNL     1       1.677   2.503  21.719  0.00  0.00    +0.000 C 
ATOM     33  O   UNL     1       1.887   2.092  20.372  0.00  0.00    +0.000 OA
ENDBRANCH   1  33
TORSDOF 7
ENDMDL
MODEL 5
REMARK VINA RESULT:      -7.2      3.216      7.716
REMARK  Name = 
REMARK  8 active torsions:
REMARK  status: ('A' for Active; 'I' for Inactive)
REMARK    1  A    between atoms: C_1  and  O_2
REMARK    2  A    between atoms: O_2  and  C_3
REMARK    3  A    between atoms: C_7  and  C_8
REMARK    4  A    between atoms: N_10  and  CA_11
REMARK    5  A    between atoms: CA_11  and  C_12
REMARK    6  A    between atoms: CA_11  and  C_15
REMARK    7  A    between atoms: C_12  and  OXT_14
REMARK    8  A    between atoms: C_22  and  C_23
REMARK                            x       y       z     vdW  Elec       q    Type
REMARK                         _______ _______ _______ _____ _____    ______ ____
ROOT
ATOM      1  C   UNL     1       2.498   3.588  20.846  0.00  0.00    +0.000 A 
ATOM      2  C   UNL     1       1.991   4.832  21.193  0.00  0.00    +0.000 A 
ATOM      3  C   UNL     1       2.229   5.932  20.368  0.00  0.00    +0.000 A 
ATOM      4  C   UNL     1       2.940   5.805  19.148  0.00  0.00    +0.000 A 
ATOM      5  C   UNL     1       3.167   6.842  18.210  0.00  0.00    +0.000 A 
ATOM      6  C   UNL     1       3.990   6.610  17.104  0.00  0.00    +0.000 A 
ATOM      7  C   UNL     1       4.543   5.356  16.906  0.00  0.00    +0.000 A 
ATOM      8  N   UNL     1       4.263   4.332  17.746  0.00  0.00    +0.000 NA
ATOM      9  C   UNL     1       3.498   4.546  18.832  0.00  0.00    +0.000 A 
ATOM     10  C   UNL     1       3.258   3.470  19.680  0.00  0.00    +0.000 A 
ENDROOT
BRANCH   7  11
ATOM     11  C   UNL     1       5.423   5.061  15.754  0.00  0.00    +0.000 A 
ATOM     12  C   UNL     1       6.749   5.533  15.698  0.00  0.00    +0.000 A 
ATOM     13  C   UNL     1       7.560   5.315  14.580  0.00  0.00    +0.000 A 
ATOM     14  C   UNL     1       7.064   4.605  13.491  0.00  0.00    +0.000 A 
ATOM     15  C   UNL     1       5.770   4.095  13.533  0.00  0.00    +0.000 A 
ATOM     16  C   UNL     1       4.961   4.317  14.654  0.00  0.00    +0.000 A 
ENDBRANCH   7  11
BRANCH   5  17
ATOM     17  C   UNL     1       2.564   8.208  18.242  0.00  0.00    +0.000 C 
ATOM     18  O   UNL     1       2.789   8.985  17.319  0.00  0.00    +0.000 OA
ATOM     19  N   UNL     1       1.672   8.500  19.250  0.00  0.00    +0.000 N 
ATOM     20  H   UNL     1       1.583   7.883  20.047  0.00  0.00    +0.000 HD
BRANCH  19  21
ATOM     21  CA  UNL     1       1.022   9.822  19.344  0.00  0.00    +0.000 C 
BRANCH  21  22
ATOM     22  C   UNL     1       0.377  10.038  20.702  0.00  0.00    +0.000 A 
ATOM     23  C   UNL     1      -0.252  11.268  20.976  0.00  0.00    +0.000 A 
ATOM     24  C   UNL     1      -0.864  11.504  22.208  0.00  0.00    +0.000 A 
ATOM     25  C   UNL     1      -0.853  10.518  23.190  0.00  0.00    +0.000 A 
ATOM     26  C   UNL     1      -0.229   9.297  22.939  0.00  0.00    +0.000 A 
ATOM     27  C   UNL     1       0.388   9.061  21.707  0.00  0.00    +0.000 A 
ENDBRANCH  21  22
BRANCH  21  28
ATOM     28  C   UNL     1       0.068   9.990  18.140  0.00  0.00    +0.000 C 
ATOM     29  O   UNL     1      -0.543   9.102  17.567  0.00  0.00    +0.000 OA
BRANCH  28  30
ATOM     30  OXT UNL     1      -0.113  11.301  17.806  0.00  0.00    +0.000 OA
ATOM     31  HXT UNL     1       0.730  11.794  17.873  0.00  0.00    +0.000 HD
ENDBRANCH  28  30
ENDBRANCH  21  28
ENDBRANCH  19  21
ENDBRANCH   5  17
BRANCH   1  33
ATOM     32  C   UNL     1       1.101   2.262  22.242  0.00  0.00    +0.000 C 
ATOM     33  O   UNL     1       2.341   2.434  21.563  0.00  0.00    +0.000 OA
ENDBRANCH   1  33
TORSDOF 7
ENDMDL
MODEL 6
REMARK VINA RESULT:      -7.2      3.977      6.488
REMARK  Name = 
REMARK  8 active torsions:
REMARK  status: ('A' for Active; 'I' for Inactive)
REMARK    1  A    between atoms: C_1  and  O_2
REMARK    2  A    between atoms: O_2  and  C_3
REMARK    3  A    between atoms: C_7  and  C_8
REMARK    4  A    between atoms: N_10  and  CA_11
REMARK    5  A    between atoms: CA_11  and  C_12
REMARK    6  A    between atoms: CA_11  and  C_15
REMARK    7  A    between atoms: C_12  and  OXT_14
REMARK    8  A    between atoms: C_22  and  C_23
REMARK                            x       y       z     vdW  Elec       q    Type
REMARK                         _______ _______ _______ _____ _____    ______ ____
ROOT
ATOM      1  C   UNL     1      -3.528  10.435  16.015  0.00  0.00    +0.000 A 
ATOM      2  C   UNL     1      -2.194  10.120  16.234  0.00  0.00    +0.000 A 
ATOM      3  C   UNL     1      -1.576  10.515  17.422  0.00  0.00    +0.000 A 
ATOM      4  C   UNL     1      -2.289  11.194  18.440  0.00  0.00    +0.000 A 
ATOM      5  C   UNL     1      -1.772  11.568  19.705  0.00  0.00    +0.000 A 
ATOM      6  C   UNL     1      -2.549  12.343  20.571  0.00  0.00    +0.000 A 
ATOM      7  C   UNL     1      -3.837  12.703  20.209  0.00  0.00    +0.000 A 
ATOM      8  N   UNL     1      -4.375  12.277  19.042  0.00  0.00    +0.000 NA
ATOM      9  C   UNL     1      -3.630  11.558  18.183  0.00  0.00    +0.000 A 
ATOM     10  C   UNL     1      -4.218  11.164  16.986  0.00  0.00    +0.000 A 
ENDROOT
BRANCH   7  11
ATOM     11  C   UNL     1      -4.697  13.525  21.088  0.00  0.00    +0.000 A 
ATOM     12  C   UNL     1      -6.079  13.279  21.209  0.00  0.00    +0.000 A 
ATOM     13  C   UNL     1      -6.905  14.097  21.985  0.00  0.00    +0.000 A 
ATOM     14  C   UNL     1      -6.363  15.179  22.672  0.00  0.00    +0.000 A 
ATOM     15  C   UNL     1      -4.996  15.425  22.601  0.00  0.00    +0.000 A 
ATOM     16  C   UNL     1      -4.171  14.604  21.821  0.00  0.00    +0.000 A 
ENDBRANCH   7  11
BRANCH   5  17
ATOM     17  C   UNL     1      -0.446  11.175  20.268  0.00  0.00    +0.000 C 
ATOM     18  O   UNL     1       0.272  12.033  20.770  0.00  0.00    +0.000 OA
ATOM     19  N   UNL     1      -0.133   9.833  20.314  0.00  0.00    +0.000 N 
ATOM     20  H   UNL     1      -0.693   9.162  19.805  0.00  0.00    +0.000 HD
BRANCH  19  21
ATOM     21  CA  UNL     1       1.151   9.361  20.867  0.00  0.00    +0.000 C 
BRANCH  21  22
ATOM     22  C   UNL     1       1.607   8.070  20.212  0.00  0.00    +0.000 A 
ATOM     23  C   UNL     1       2.134   8.109  18.907  0.00  0.00    +0.000 A 
ATOM     24  C   UNL     1       2.572   6.944  18.272  0.00  0.00    +0.000 A 
ATOM     25  C   UNL     1       2.485   5.720  18.929  0.00  0.00    +0.000 A 
ATOM     26  C   UNL     1       1.959   5.662  20.218  0.00  0.00    +0.000 A 
ATOM     27  C   UNL     1       1.516   6.826  20.853  0.00  0.00    +0.000 A 
ENDBRANCH  21  22
BRANCH  21  28
ATOM     28  C   UNL     1       1.033   9.299  22.407  0.00  0.00    +0.000 C 
ATOM     29  O   UNL     1       0.005   9.161  23.052  0.00  0.00    +0.000 OA
BRANCH  28  30
ATOM     30  OXT UNL     1       2.253   9.327  23.018  0.00  0.00    +0.000 OA
ATOM     31  HXT UNL     1       2.366  10.157  23.525  0.00  0.00    +0.000 HD
ENDBRANCH  28  30
ENDBRANCH  21  28
ENDBRANCH  19  21
ENDBRANCH   5  17
BRANCH   1  33
ATOM     32  C   UNL     1      -3.527   9.973  13.682  0.00  0.00    +0.000 C 
ATOM     33  O   UNL     1      -4.251  10.112  14.900  0.00  0.00    +0.000 OA
ENDBRANCH   1  33
TORSDOF 7
ENDMDL
MODEL 7
REMARK VINA RESULT:      -7.1      3.932      6.831
REMARK  Name = 
REMARK  8 active torsions:
REMARK  status: ('A' for Active; 'I' for Inactive)
REMARK    1  A    between atoms: C_1  and  O_2
REMARK    2  A    between atoms: O_2  and  C_3
REMARK    3  A    between atoms: C_7  and  C_8
REMARK    4  A    between atoms: N_10  and  CA_11
REMARK    5  A    between atoms: CA_11  and  C_12
REMARK    6  A    between atoms: CA_11  and  C_15
REMARK    7  A    between atoms: C_12  and  OXT_14
REMARK    8  A    between atoms: C_22  and  C_23
REMARK                            x       y       z     vdW  Elec       q    Type
REMARK                         _______ _______ _______ _____ _____    ______ ____
ROOT
ATOM      1  C   UNL     1       2.612   2.892  19.426  0.00  0.00    +0.000 A 
ATOM      2  C   UNL     1       3.465   2.644  18.360  0.00  0.00    +0.000 A 
ATOM      3  C   UNL     1       3.901   3.701  17.560  0.00  0.00    +0.000 A 
ATOM      4  C   UNL     1       3.531   5.041  17.835  0.00  0.00    +0.000 A 
ATOM      5  C   UNL     1       3.979   6.185  17.130  0.00  0.00    +0.000 A 
ATOM      6  C   UNL     1       3.440   7.440  17.429  0.00  0.00    +0.000 A 
ATOM      7  C   UNL     1       2.505   7.567  18.442  0.00  0.00    +0.000 A 
ATOM      8  N   UNL     1       2.133   6.496  19.183  0.00  0.00    +0.000 NA
ATOM      9  C   UNL     1       2.619   5.277  18.888  0.00  0.00    +0.000 A 
ATOM     10  C   UNL     1       2.189   4.203  19.661  0.00  0.00    +0.000 A 
ENDROOT
BRANCH   7  11
ATOM     11  C   UNL     1       1.902   8.871  18.794  0.00  0.00    +0.000 A 
ATOM     12  C   UNL     1       2.120  10.021  18.009  0.00  0.00    +0.000 A 
ATOM     13  C   UNL     1       1.609  11.269  18.377  0.00  0.00    +0.000 A 
ATOM     14  C   UNL     1       0.854  11.395  19.539  0.00  0.00    +0.000 A 
ATOM     15  C   UNL     1       0.592  10.270  20.315  0.00  0.00    +0.000 A 
ATOM     16  C   UNL     1       1.107   9.021  19.944  0.00  0.00    +0.000 A 
ENDBRANCH   7  11
BRANCH   5  17
ATOM     17  C   UNL     1       5.045   6.216  16.084  0.00  0.00    +0.000 C 
ATOM     18  O   UNL     1       5.947   7.044  16.170  0.00  0.00    +0.000 OA
ATOM     19  N   UNL     1       5.043   5.226  15.126  0.00  0.00    +0.000 N 
ATOM     20  H   UNL     1       4.238   4.622  15.019  0.00  0.00    +0.000 HD
BRANCH  19  21
ATOM     21  CA  UNL     1       6.069   5.178  14.067  0.00  0.00    +0.000 C 
BRANCH  21  22
ATOM     22  C   UNL     1       5.769   4.101  13.039  0.00  0.00    +0.000 A 
ATOM     23  C   UNL     1       6.805   3.247  12.615  0.00  0.00    +0.000 A 
ATOM     24  C   UNL     1       6.569   2.240  11.678  0.00  0.00    +0.000 A 
ATOM     25  C   UNL     1       5.295   2.071  11.144  0.00  0.00    +0.000 A 
ATOM     26  C   UNL     1       4.258   2.912  11.547  0.00  0.00    +0.000 A 
ATOM     27  C   UNL     1       4.494   3.924  12.482  0.00  0.00    +0.000 A 
ENDBRANCH  21  22
BRANCH  21  28
ATOM     28  C   UNL     1       7.460   5.068  14.731  0.00  0.00    +0.000 C 
ATOM     29  O   UNL     1       8.481   5.637  14.378  0.00  0.00    +0.000 OA
BRANCH  28  30
ATOM     30  OXT UNL     1       7.432   4.304  15.862  0.00  0.00    +0.000 OA
ATOM     31  HXT UNL     1       7.206   3.376  15.646  0.00  0.00    +0.000 HD
ENDBRANCH  28  30
ENDBRANCH  21  28
ENDBRANCH  19  21
ENDBRANCH   5  17
BRANCH   1  33
ATOM     32  C   UNL     1       1.853   2.372  21.618  0.00  0.00    +0.000 C 
ATOM     33  O   UNL     1       2.112   1.952  20.283  0.00  0.00    +0.000 OA
ENDBRANCH   1  33
TORSDOF 7
ENDMDL
MODEL 8
REMARK VINA RESULT:      -7.1      3.458      6.185
REMARK  Name = 
REMARK  8 active torsions:
REMARK  status: ('A' for Active; 'I' for Inactive)
REMARK    1  A    between atoms: C_1  and  O_2
REMARK    2  A    between atoms: O_2  and  C_3
REMARK    3  A    between atoms: C_7  and  C_8
REMARK    4  A    between atoms: N_10  and  CA_11
REMARK    5  A    between atoms: CA_11  and  C_12
REMARK    6  A    between atoms: CA_11  and  C_15
REMARK    7  A    between atoms: C_12  and  OXT_14
REMARK    8  A    between atoms: C_22  and  C_23
REMARK                            x       y       z     vdW  Elec       q    Type
REMARK                         _______ _______ _______ _____ _____    ______ ____
ROOT
ATOM      1  C   UNL     1       1.834   3.141  20.369  0.00  0.00    +0.000 A 
ATOM      2  C   UNL     1       2.620   3.190  19.227  0.00  0.00    +0.000 A 
ATOM      3  C   UNL     1       2.916   4.422  18.641  0.00  0.00    +0.000 A 
ATOM      4  C   UNL     1       2.470   5.640  19.210  0.00  0.00    +0.000 A 
ATOM      5  C   UNL     1       2.779   6.938  18.734  0.00  0.00    +0.000 A 
ATOM      6  C   UNL     1       2.173   8.055  19.319  0.00  0.00    +0.000 A 
ATOM      7  C   UNL     1       1.310   7.891  20.389  0.00  0.00    +0.000 A 
ATOM      8  N   UNL     1       1.075   6.664  20.911  0.00  0.00    +0.000 NA
ATOM      9  C   UNL     1       1.625   5.577  20.341  0.00  0.00    +0.000 A 
ATOM     10  C   UNL     1       1.334   4.335  20.896  0.00  0.00    +0.000 A 
ENDROOT
BRANCH   7  11
ATOM     11  C   UNL     1       0.641   9.039  21.039  0.00  0.00    +0.000 A 
ATOM     12  C   UNL     1       0.487  10.274  20.379  0.00  0.00    +0.000 A 
ATOM     13  C   UNL     1      -0.082  11.381  21.016  0.00  0.00    +0.000 A 
ATOM     14  C   UNL     1      -0.523  11.275  22.331  0.00  0.00    +0.000 A 
ATOM     15  C   UNL     1      -0.416  10.058  22.997  0.00  0.00    +0.000 A 
ATOM     16  C   UNL     1       0.156   8.951  22.356  0.00  0.00    +0.000 A 
ENDBRANCH   7  11
BRANCH   5  17
ATOM     17  C   UNL     1       3.758   7.274  17.657  0.00  0.00    +0.000 C 
ATOM     18  O   UNL     1       3.502   8.183  16.874  0.00  0.00    +0.000 OA
ATOM     19  N   UNL     1       4.976   6.628  17.664  0.00  0.00    +0.000 N 
ATOM     20  H   UNL     1       5.120   5.818  18.254  0.00  0.00    +0.000 HD
BRANCH  19  21
ATOM     21  CA  UNL     1       6.003   6.912  16.644  0.00  0.00    +0.000 C 
BRANCH  21  22
ATOM     22  C   UNL     1       6.110   5.792  15.624  0.00  0.00    +0.000 A 
ATOM     23  C   UNL     1       5.175   4.741  15.656  0.00  0.00    +0.000 A 
ATOM     24  C   UNL     1       5.233   3.697  14.731  0.00  0.00    +0.000 A 
ATOM     25  C   UNL     1       6.231   3.682  13.761  0.00  0.00    +0.000 A 
ATOM     26  C   UNL     1       7.170   4.711  13.718  0.00  0.00    +0.000 A 
ATOM     27  C   UNL     1       7.116   5.755  14.647  0.00  0.00    +0.000 A 
ENDBRANCH  21  22
BRANCH  21  28
ATOM     28  C   UNL     1       7.327   7.263  17.360  0.00  0.00    +0.000 C 
ATOM     29  O   UNL     1       7.929   8.323  17.297  0.00  0.00    +0.000 OA
BRANCH  28  30
ATOM     30  OXT UNL     1       7.748   6.260  18.184  0.00  0.00    +0.000 OA
ATOM     31  HXT UNL     1       7.586   6.492  19.122  0.00  0.00    +0.000 HD
ENDBRANCH  28  30
ENDBRANCH  21  28
ENDBRANCH  19  21
ENDBRANCH   5  17
BRANCH   1  33
ATOM     32  C   UNL     1       1.190   2.142  22.429  0.00  0.00    +0.000 C 
ATOM     33  O   UNL     1       1.469   2.007  21.040  0.00  0.00    +0.000 OA
ENDBRANCH   1  33
TORSDOF 7
ENDMDL
MODEL 9
REMARK VINA RESULT:      -7.1      3.867      6.510
REMARK  Name = 
REMARK  8 active torsions:
REMARK  status: ('A' for Active; 'I' for Inactive)
REMARK    1  A    between atoms: C_1  and  O_2
REMARK    2  A    between atoms: O_2  and  C_3
REMARK    3  A    between atoms: C_7  and  C_8
REMARK    4  A    between atoms: N_10  and  CA_11
REMARK    5  A    between atoms: CA_11  and  C_12
REMARK    6  A    between atoms: CA_11  and  C_15
REMARK    7  A    between atoms: C_12  and  OXT_14
REMARK    8  A    between atoms: C_22  and  C_23
REMARK                            x       y       z     vdW  Elec       q    Type
REMARK                         _______ _______ _______ _____ _____    ______ ____
ROOT
ATOM      1  C   UNL     1      -3.553  10.808  16.272  0.00  0.00    +0.000 A 
ATOM      2  C   UNL     1      -2.215  10.479  16.434  0.00  0.00    +0.000 A 
ATOM      3  C   UNL     1      -1.564  10.795  17.627  0.00  0.00    +0.000 A 
ATOM      4  C   UNL     1      -2.248  11.406  18.707  0.00  0.00    +0.000 A 
ATOM      5  C   UNL     1      -1.695  11.697  19.979  0.00  0.00    +0.000 A 
ATOM      6  C   UNL     1      -2.447  12.414  20.914  0.00  0.00    +0.000 A 
ATOM      7  C   UNL     1      -3.743  12.798  20.611  0.00  0.00    +0.000 A 
ATOM      8  N   UNL     1      -4.314  12.450  19.434  0.00  0.00    +0.000 NA
ATOM      9  C   UNL     1      -3.594  11.787  18.511  0.00  0.00    +0.000 A 
ATOM     10  C   UNL     1      -4.215  11.473  17.307  0.00  0.00    +0.000 A 
ENDROOT
BRANCH   7  11
ATOM     11  C   UNL     1      -4.576  13.561  21.566  0.00  0.00    +0.000 A 
ATOM     12  C   UNL     1      -5.434  12.916  22.479  0.00  0.00    +0.000 A 
ATOM     13  C   UNL     1      -6.274  13.636  23.333  0.00  0.00    +0.000 A 
ATOM     14  C   UNL     1      -6.267  15.027  23.302  0.00  0.00    +0.000 A 
ATOM     15  C   UNL     1      -5.405  15.693  22.437  0.00  0.00    +0.000 A 
ATOM     16  C   UNL     1      -4.566  14.967  21.581  0.00  0.00    +0.000 A 
ENDBRANCH   7  11
BRANCH   5  17
ATOM     17  C   UNL     1      -0.355  11.267  20.478  0.00  0.00    +0.000 C 
ATOM     18  O   UNL     1       0.413  12.106  20.938  0.00  0.00    +0.000 OA
ATOM     19  N   UNL     1      -0.081   9.917  20.519  0.00  0.00    +0.000 N 
ATOM     20  H   UNL     1      -0.686   9.259  20.044  0.00  0.00    +0.000 HD
BRANCH  19  21
ATOM     21  CA  UNL     1       1.214   9.409  21.012  0.00  0.00    +0.000 C 
BRANCH  21  22
ATOM     22  C   UNL     1       1.638   8.145  20.285  0.00  0.00    +0.000 A 
ATOM     23  C   UNL     1       1.539   6.906  20.946  0.00  0.00    +0.000 A 
ATOM     24  C   UNL     1       1.911   5.720  20.311  0.00  0.00    +0.000 A 
ATOM     25  C   UNL     1       2.394   5.752  19.006  0.00  0.00    +0.000 A 
ATOM     26  C   UNL     1       2.505   6.970  18.339  0.00  0.00    +0.000 A 
ATOM     27  C   UNL     1       2.138   8.160  18.975  0.00  0.00    +0.000 A 
ENDBRANCH  21  22
BRANCH  21  28
ATOM     28  C   UNL     1       1.140   9.277  22.550  0.00  0.00    +0.000 C 
ATOM     29  O   UNL     1       0.135   9.080  23.215  0.00  0.00    +0.000 OA
BRANCH  28  30
ATOM     30  OXT UNL     1       2.375   9.316  23.130  0.00  0.00    +0.000 OA
ATOM     31  HXT UNL     1       2.312   9.128  24.089  0.00  0.00    +0.000 HD
ENDBRANCH  28  30
ENDBRANCH  21  28
ENDBRANCH  19  21
ENDBRANCH   5  17
BRANCH   1  33
ATOM     32  C   UNL     1      -3.633   9.994  14.039  0.00  0.00    +0.000 C 
ATOM     33  O   UNL     1      -4.307  10.559  15.159  0.00  0.00    +0.000 OA
ENDBRANCH   1  33
TORSDOF 7
ENDMDL
