MODEL 1
REMARK VINA RESULT:      -7.2      0.000      0.000
REMARK  Name = 
REMARK  5 active torsions:
REMARK  status: ('A' for Active; 'I' for Inactive)
REMARK    1  A    between atoms: C_2  and  N_3
REMARK    2  A    between atoms: C_2  and  N_11
REMARK    3  A    between atoms: N_4  and  C_5
REMARK    4  A    between atoms: N_11  and  N_12
REMARK    5  A    between atoms: N_12  and  C_13
REMARK                            x       y       z     vdW  Elec       q    Type
REMARK                         _______ _______ _______ _____ _____    ______ ____
ROOT
ATOM      1  S   UNL     1       7.800   5.736  19.011  0.00  0.00    +0.000 S 
ATOM      2  C   UNL     1       7.139   4.785  17.791  0.00  0.00    +0.000 C 
ENDROOT
BRANCH   2   3
ATOM      3  N   UNL     1       5.938   4.108  17.889  0.00  0.00    +0.000 NA
ATOM      4  N   UNL     1       4.966   4.867  17.660  0.00  0.00    +0.000 NA
BRANCH   4   5
ATOM      5  C   UNL     1       3.743   4.219  17.914  0.00  0.00    +0.000 A 
ATOM      6  C   UNL     1       3.649   2.842  17.682  0.00  0.00    +0.000 A 
ATOM      7  C   UNL     1       2.462   2.152  17.936  0.00  0.00    +0.000 A 
ATOM      8  C   UNL     1       1.359   2.836  18.442  0.00  0.00    +0.000 A 
ATOM      9  C   UNL     1       1.445   4.206  18.693  0.00  0.00    +0.000 A 
ATOM     10  C   UNL     1       2.630   4.894  18.432  0.00  0.00    +0.000 A 
ENDBRANCH   4   5
ENDBRANCH   2   3
BRANCH   2  11
ATOM     11  N   UNL     1       7.799   4.753  16.567  0.00  0.00    +0.000 N 
ATOM     12  H   UNL     1       8.790   4.531  16.581  0.00  0.00    +0.000 HD
BRANCH  11  13
ATOM     13  N   UNL     1       7.374   5.620  15.537  0.00  0.00    +0.000 N 
ATOM     14  H   UNL     1       6.647   6.260  15.880  0.00  0.00    +0.000 HD
BRANCH  13  15
ATOM     15  C   UNL     1       6.914   4.959  14.368  0.00  0.00    +0.000 A 
ATOM     16  C   UNL     1       7.728   4.980  13.225  0.00  0.00    +0.000 A 
ATOM     17  C   UNL     1       7.374   4.278  12.070  0.00  0.00    +0.000 A 
ATOM     18  C   UNL     1       6.216   3.507  12.055  0.00  0.00    +0.000 A 
ATOM     19  C   UNL     1       5.418   3.440  13.192  0.00  0.00    +0.000 A 
ATOM     20  C   UNL     1       5.769   4.154  14.344  0.00  0.00    +0.000 A 
ENDBRANCH  13  15
ENDBRANCH  11  13
ENDBRANCH   2  11
TORSDOF 5
ENDMDL
MODEL 2
REMARK VINA RESULT:      -7.1      0.960      6.196
REMARK  Name = 
REMARK  5 active torsions:
REMARK  status: ('A' for Active; 'I' for Inactive)
REMARK    1  A    between atoms: C_2  and  N_3
REMARK    2  A    between atoms: C_2  and  N_11
REMARK    3  A    between atoms: N_4  and  C_5
REMARK    4  A    between atoms: N_11  and  N_12
REMARK    5  A    between atoms: N_12  and  C_13
REMARK                            x       y       z     vdW  Elec       q    Type
REMARK                         _______ _______ _______ _____ _____    ______ ____
ROOT
ATOM      1  S   UNL     1       7.492   5.965  18.813  0.00  0.00    +0.000 S 
ATOM      2  C   UNL     1       6.756   4.739  17.928  0.00  0.00    +0.000 C 
ENDROOT
BRANCH   2   3
ATOM      3  N   UNL     1       7.048   4.442  16.610  0.00  0.00    +0.000 NA
ATOM      4  N   UNL     1       6.428   5.196  15.824  0.00  0.00    +0.000 NA
BRANCH   4   5
ATOM      5  C   UNL     1       6.601   4.793  14.487  0.00  0.00    +0.000 A 
ATOM      6  C   UNL     1       7.609   5.397  13.726  0.00  0.00    +0.000 A 
ATOM      7  C   UNL     1       7.832   5.017  12.401  0.00  0.00    +0.000 A 
ATOM      8  C   UNL     1       7.053   4.014  11.828  0.00  0.00    +0.000 A 
ATOM      9  C   UNL     1       6.056   3.393  12.581  0.00  0.00    +0.000 A 
ATOM     10  C   UNL     1       5.832   3.779  13.903  0.00  0.00    +0.000 A 
ENDBRANCH   4   5
ENDBRANCH   2   3
BRANCH   2  11
ATOM     11  N   UNL     1       5.862   3.908  18.594  0.00  0.00    +0.000 N 
ATOM     12  H   UNL     1       6.233   3.338  19.347  0.00  0.00    +0.000 HD
BRANCH  11  13
ATOM     13  N   UNL     1       4.776   3.358  17.878  0.00  0.00    +0.000 N 
ATOM     14  H   UNL     1       4.694   3.796  16.953  0.00  0.00    +0.000 HD
BRANCH  13  15
ATOM     15  C   UNL     1       3.531   3.435  18.555  0.00  0.00    +0.000 A 
ATOM     16  C   UNL     1       2.510   2.549  18.176  0.00  0.00    +0.000 A 
ATOM     17  C   UNL     1       1.290   2.515  18.857  0.00  0.00    +0.000 A 
ATOM     18  C   UNL     1       1.088   3.341  19.959  0.00  0.00    +0.000 A 
ATOM     19  C   UNL     1       2.104   4.195  20.376  0.00  0.00    +0.000 A 
ATOM     20  C   UNL     1       3.320   4.236  19.683  0.00  0.00    +0.000 A 
ENDBRANCH  13  15
ENDBRANCH  11  13
ENDBRANCH   2  11
TORSDOF 5
ENDMDL
MODEL 3
REMARK VINA RESULT:      -7.1      3.675      6.001
REMARK  Name = 
REMARK  5 active torsions:
REMARK  status: ('A' for Active; 'I' for Inactive)
REMARK    1  A    between atoms: C_2  and  N_3
REMARK    2  A    between atoms: C_2  and  N_11
REMARK    3  A    between atoms: N_4  and  C_5
REMARK    4  A    between atoms: N_11  and  N_12
REMARK    5  A    between atoms: N_12  and  C_13
REMARK                            x       y       z     vdW  Elec       q    Type
REMARK                         _______ _______ _______ _____ _____    ______ ____
ROOT
ATOM      1  S   UNL     1       6.877   5.269  17.482  0.00  0.00    +0.000 S 
ATOM      2  C   UNL     1       5.596   4.857  18.491  0.00  0.00    +0.000 C 
ENDROOT
BRANCH   2   3
ATOM      3  N   UNL     1       4.665   5.754  18.981  0.00  0.00    +0.000 NA
ATOM      4  N   UNL     1       3.787   6.013  18.125  0.00  0.00    +0.000 NA
BRANCH   4   5
ATOM      5  C   UNL     1       2.933   7.041  18.566  0.00  0.00    +0.000 A 
ATOM      6  C   UNL     1       2.569   8.047  17.663  0.00  0.00    +0.000 A 
ATOM      7  C   UNL     1       1.709   9.078  18.047  0.00  0.00    +0.000 A 
ATOM      8  C   UNL     1       1.192   9.101  19.341  0.00  0.00    +0.000 A 
ATOM      9  C   UNL     1       1.534   8.095  20.245  0.00  0.00    +0.000 A 
ATOM     10  C   UNL     1       2.399   7.070  19.859  0.00  0.00    +0.000 A 
ENDBRANCH   4   5
ENDBRANCH   2   3
BRANCH   2  11
ATOM     11  N   UNL     1       5.406   3.509  18.777  0.00  0.00    +0.000 N 
ATOM     12  H   UNL     1       6.237   2.933  18.867  0.00  0.00    +0.000 HD
BRANCH  11  13
ATOM     13  N   UNL     1       4.254   2.860  18.282  0.00  0.00    +0.000 N 
ATOM     14  H   UNL     1       3.942   3.295  17.406  0.00  0.00    +0.000 HD
BRANCH  13  15
ATOM     15  C   UNL     1       3.172   2.809  19.200  0.00  0.00    +0.000 A 
ATOM     16  C   UNL     1       3.462   2.653  20.565  0.00  0.00    +0.000 A 
ATOM     17  C   UNL     1       2.449   2.680  21.528  0.00  0.00    +0.000 A 
ATOM     18  C   UNL     1       1.131   2.906  21.143  0.00  0.00    +0.000 A 
ATOM     19  C   UNL     1       0.830   3.105  19.799  0.00  0.00    +0.000 A 
ATOM     20  C   UNL     1       1.845   3.065  18.835  0.00  0.00    +0.000 A 
ENDBRANCH  13  15
ENDBRANCH  11  13
ENDBRANCH   2  11
TORSDOF 5
ENDMDL
MODEL 4
REMARK VINA RESULT:      -7.0      3.652      5.962
REMARK  Name = 
REMARK  5 active torsions:
REMARK  status: ('A' for Active; 'I' for Inactive)
REMARK    1  A    between atoms: C_2  and  N_3
REMARK    2  A    between atoms: C_2  and  N_11
REMARK    3  A    between atoms: N_4  and  C_5
REMARK    4  A    between atoms: N_11  and  N_12
REMARK    5  A    between atoms: N_12  and  C_13
REMARK                            x       y       z     vdW  Elec       q    Type
REMARK                         _______ _______ _______ _____ _____    ______ ____
ROOT
ATOM      1  S   UNL     1       5.349   4.245  16.537  0.00  0.00    +0.000 S 
ATOM      2  C   UNL     1       5.110   4.553  18.173  0.00  0.00    +0.000 C 
ENDROOT
BRANCH   2   3
ATOM      3  N   UNL     1       4.404   5.632  18.671  0.00  0.00    +0.000 NA
ATOM      4  N   UNL     1       3.300   5.763  18.092  0.00  0.00    +0.000 NA
BRANCH   4   5
ATOM      5  C   UNL     1       2.653   6.948  18.488  0.00  0.00    +0.000 A 
ATOM      6  C   UNL     1       2.205   7.062  19.809  0.00  0.00    +0.000 A 
ATOM      7  C   UNL     1       1.574   8.226  20.254  0.00  0.00    +0.000 A 
ATOM      8  C   UNL     1       1.400   9.296  19.379  0.00  0.00    +0.000 A 
ATOM      9  C   UNL     1       1.858   9.202  18.064  0.00  0.00    +0.000 A 
ATOM     10  C   UNL     1       2.482   8.035  17.621  0.00  0.00    +0.000 A 
ENDBRANCH   4   5
ENDBRANCH   2   3
BRANCH   2  11
ATOM     11  N   UNL     1       5.574   3.610  19.083  0.00  0.00    +0.000 N 
ATOM     12  H   UNL     1       6.579   3.541  19.207  0.00  0.00    +0.000 HD
BRANCH  11  13
ATOM     13  N   UNL     1       4.845   2.414  19.259  0.00  0.00    +0.000 N 
ATOM     14  H   UNL     1       4.966   1.793  18.450  0.00  0.00    +0.000 HD
BRANCH  13  15
ATOM     15  C   UNL     1       3.461   2.604  19.511  0.00  0.00    +0.000 A 
ATOM     16  C   UNL     1       2.541   2.171  18.543  0.00  0.00    +0.000 A 
ATOM     17  C   UNL     1       1.163   2.251  18.765  0.00  0.00    +0.000 A 
ATOM     18  C   UNL     1       0.684   2.729  19.981  0.00  0.00    +0.000 A 
ATOM     19  C   UNL     1       1.581   3.123  20.969  0.00  0.00    +0.000 A 
ATOM     20  C   UNL     1       2.960   3.053  20.738  0.00  0.00    +0.000 A 
ENDBRANCH  13  15
ENDBRANCH  11  13
ENDBRANCH   2  11
TORSDOF 5
ENDMDL
MODEL 5
REMARK VINA RESULT:      -7.0      1.098      5.995
REMARK  Name = 
REMARK  5 active torsions:
REMARK  status: ('A' for Active; 'I' for Inactive)
REMARK    1  A    between atoms: C_2  and  N_3
REMARK    2  A    between atoms: C_2  and  N_11
REMARK    3  A    between atoms: N_4  and  C_5
REMARK    4  A    between atoms: N_11  and  N_12
REMARK    5  A    between atoms: N_12  and  C_13
REMARK                            x       y       z     vdW  Elec       q    Type
REMARK                         _______ _______ _______ _____ _____    ______ ____
ROOT
ATOM      1  S   UNL     1       7.657   6.300  18.460  0.00  0.00    +0.000 S 
ATOM      2  C   UNL     1       6.638   5.032  18.032  0.00  0.00    +0.000 C 
ENDROOT
BRANCH   2   3
ATOM      3  N   UNL     1       6.489   4.546  16.747  0.00  0.00    +0.000 NA
ATOM      4  N   UNL     1       7.304   5.082  15.959  0.00  0.00    +0.000 NA
BRANCH   4   5
ATOM      5  C   UNL     1       7.048   4.706  14.627  0.00  0.00    +0.000 A 
ATOM      6  C   UNL     1       5.971   3.851  14.364  0.00  0.00    +0.000 A 
ATOM      7  C   UNL     1       5.666   3.465  13.057  0.00  0.00    +0.000 A 
ATOM      8  C   UNL     1       6.432   3.946  11.997  0.00  0.00    +0.000 A 
ATOM      9  C   UNL     1       7.498   4.811  12.245  0.00  0.00    +0.000 A 
ATOM     10  C   UNL     1       7.804   5.190  13.553  0.00  0.00    +0.000 A 
ENDBRANCH   4   5
ENDBRANCH   2   3
BRANCH   2  11
ATOM     11  N   UNL     1       5.970   4.365  19.055  0.00  0.00    +0.000 N 
ATOM     12  H   UNL     1       6.388   4.400  19.980  0.00  0.00    +0.000 HD
BRANCH  11  13
ATOM     13  N   UNL     1       5.243   3.195  18.747  0.00  0.00    +0.000 N 
ATOM     14  H   UNL     1       5.410   2.910  17.776  0.00  0.00    +0.000 HD
BRANCH  13  15
ATOM     15  C   UNL     1       3.846   3.297  18.981  0.00  0.00    +0.000 A 
ATOM     16  C   UNL     1       3.024   3.736  17.931  0.00  0.00    +0.000 A 
ATOM     17  C   UNL     1       1.634   3.777  18.068  0.00  0.00    +0.000 A 
ATOM     18  C   UNL     1       1.040   3.339  19.248  0.00  0.00    +0.000 A 
ATOM     19  C   UNL     1       1.836   2.862  20.284  0.00  0.00    +0.000 A 
ATOM     20  C   UNL     1       3.229   2.833  20.148  0.00  0.00    +0.000 A 
ENDBRANCH  13  15
ENDBRANCH  11  13
ENDBRANCH   2  11
TORSDOF 5
ENDMDL
MODEL 6
REMARK VINA RESULT:      -7.0      3.039      5.929
REMARK  Name = 
REMARK  5 active torsions:
REMARK  status: ('A' for Active; 'I' for Inactive)
REMARK    1  A    between atoms: C_2  and  N_3
REMARK    2  A    between atoms: C_2  and  N_11
REMARK    3  A    between atoms: N_4  and  C_5
REMARK    4  A    between atoms: N_11  and  N_12
REMARK    5  A    between atoms: N_12  and  C_13
REMARK                            x       y       z     vdW  Elec       q    Type
REMARK                         _______ _______ _______ _____ _____    ______ ____
ROOT
ATOM      1  S   UNL     1       5.875   4.046  15.331  0.00  0.00    +0.000 S 
ATOM      2  C   UNL     1       5.015   4.266  16.759  0.00  0.00    +0.000 C 
ENDROOT
BRANCH   2   3
ATOM      3  N   UNL     1       4.191   5.345  17.019  0.00  0.00    +0.000 NA
ATOM      4  N   UNL     1       4.309   5.736  18.204  0.00  0.00    +0.000 NA
BRANCH   4   5
ATOM      5  C   UNL     1       3.360   6.728  18.511  0.00  0.00    +0.000 A 
ATOM      6  C   UNL     1       2.670   6.646  19.727  0.00  0.00    +0.000 A 
ATOM      7  C   UNL     1       1.732   7.617  20.085  0.00  0.00    +0.000 A 
ATOM      8  C   UNL     1       1.488   8.692  19.231  0.00  0.00    +0.000 A 
ATOM      9  C   UNL     1       2.181   8.793  18.025  0.00  0.00    +0.000 A 
ATOM     10  C   UNL     1       3.113   7.818  17.667  0.00  0.00    +0.000 A 
ENDBRANCH   4   5
ENDBRANCH   2   3
BRANCH   2  11
ATOM     11  N   UNL     1       5.061   3.248  17.706  0.00  0.00    +0.000 N 
ATOM     12  H   UNL     1       5.969   2.837  17.900  0.00  0.00    +0.000 HD
BRANCH  11  13
ATOM     13  N   UNL     1       3.951   2.387  17.840  0.00  0.00    +0.000 N 
ATOM     14  H   UNL     1       3.408   2.359  16.969  0.00  0.00    +0.000 HD
BRANCH  13  15
ATOM     15  C   UNL     1       3.093   2.702  18.927  0.00  0.00    +0.000 A 
ATOM     16  C   UNL     1       1.745   2.981  18.653  0.00  0.00    +0.000 A 
ATOM     17  C   UNL     1       0.830   3.215  19.684  0.00  0.00    +0.000 A 
ATOM     18  C   UNL     1       1.244   3.132  21.010  0.00  0.00    +0.000 A 
ATOM     19  C   UNL     1       2.567   2.814  21.301  0.00  0.00    +0.000 A 
ATOM     20  C   UNL     1       3.483   2.592  20.266  0.00  0.00    +0.000 A 
ENDBRANCH  13  15
ENDBRANCH  11  13
ENDBRANCH   2  11
TORSDOF 5
ENDMDL
MODEL 7
REMARK VINA RESULT:      -6.9      3.722      5.980
REMARK  Name = 
REMARK  5 active torsions:
REMARK  status: ('A' for Active; 'I' for Inactive)
REMARK    1  A    between atoms: C_2  and  N_3
REMARK    2  A    between atoms: C_2  and  N_11
REMARK    3  A    between atoms: N_4  and  C_5
REMARK    4  A    between atoms: N_11  and  N_12
REMARK    5  A    between atoms: N_12  and  C_13
REMARK                            x       y       z     vdW  Elec       q    Type
REMARK                         _______ _______ _______ _____ _____    ______ ____
ROOT
ATOM      1  S   UNL     1       5.376   4.623  16.651  0.00  0.00    +0.000 S 
ATOM      2  C   UNL     1       5.051   4.705  18.299  0.00  0.00    +0.000 C 
ENDROOT
BRANCH   2   3
ATOM      3  N   UNL     1       4.252   5.665  18.893  0.00  0.00    +0.000 NA
ATOM      4  N   UNL     1       3.330   6.029  18.127  0.00  0.00    +0.000 NA
BRANCH   4   5
ATOM      5  C   UNL     1       2.615   7.114  18.668  0.00  0.00    +0.000 A 
ATOM      6  C   UNL     1       2.304   8.197  17.837  0.00  0.00    +0.000 A 
ATOM      7  C   UNL     1       1.581   9.288  18.323  0.00  0.00    +0.000 A 
ATOM      8  C   UNL     1       1.148   9.296  19.648  0.00  0.00    +0.000 A 
ATOM      9  C   UNL     1       1.438   8.216  20.482  0.00  0.00    +0.000 A 
ATOM     10  C   UNL     1       2.166   7.130  19.994  0.00  0.00    +0.000 A 
ENDBRANCH   4   5
ENDBRANCH   2   3
BRANCH   2  11
ATOM     11  N   UNL     1       5.542   3.685  19.107  0.00  0.00    +0.000 N 
ATOM     12  H   UNL     1       6.551   3.580  19.158  0.00  0.00    +0.000 HD
BRANCH  11  13
ATOM     13  N   UNL     1       4.788   2.499  19.246  0.00  0.00    +0.000 N 
ATOM     14  H   UNL     1       4.906   1.897  18.423  0.00  0.00    +0.000 HD
BRANCH  13  15
ATOM     15  C   UNL     1       3.406   2.711  19.489  0.00  0.00    +0.000 A 
ATOM     16  C   UNL     1       2.495   2.419  18.460  0.00  0.00    +0.000 A 
ATOM     17  C   UNL     1       1.117   2.524  18.662  0.00  0.00    +0.000 A 
ATOM     18  C   UNL     1       0.624   2.884  19.913  0.00  0.00    +0.000 A 
ATOM     19  C   UNL     1       1.510   3.135  20.956  0.00  0.00    +0.000 A 
ATOM     20  C   UNL     1       2.891   3.041  20.747  0.00  0.00    +0.000 A 
ENDBRANCH  13  15
ENDBRANCH  11  13
ENDBRANCH   2  11
TORSDOF 5
ENDMDL
MODEL 8
REMARK VINA RESULT:      -6.9      0.915      1.779
REMARK  Name = 
REMARK  5 active torsions:
REMARK  status: ('A' for Active; 'I' for Inactive)
REMARK    1  A    between atoms: C_2  and  N_3
REMARK    2  A    between atoms: C_2  and  N_11
REMARK    3  A    between atoms: N_4  and  C_5
REMARK    4  A    between atoms: N_11  and  N_12
REMARK    5  A    between atoms: N_12  and  C_13
REMARK                            x       y       z     vdW  Elec       q    Type
REMARK                         _______ _______ _______ _____ _____    ______ ____
ROOT
ATOM      1  S   UNL     1       7.590   5.855  19.015  0.00  0.00    +0.000 S 
ATOM      2  C   UNL     1       6.715   4.738  18.112  0.00  0.00    +0.000 C 
ENDROOT
BRANCH   2   3
ATOM      3  N   UNL     1       5.485   4.224  18.480  0.00  0.00    +0.000 NA
ATOM      4  N   UNL     1       4.571   5.066  18.318  0.00  0.00    +0.000 NA
BRANCH   4   5
ATOM      5  C   UNL     1       3.350   4.600  18.838  0.00  0.00    +0.000 A 
ATOM      6  C   UNL     1       2.985   4.973  20.137  0.00  0.00    +0.000 A 
ATOM      7  C   UNL     1       1.775   4.552  20.690  0.00  0.00    +0.000 A 
ATOM      8  C   UNL     1       0.908   3.761  19.938  0.00  0.00    +0.000 A 
ATOM      9  C   UNL     1       1.252   3.396  18.636  0.00  0.00    +0.000 A 
ATOM     10  C   UNL     1       2.466   3.814  18.088  0.00  0.00    +0.000 A 
ENDBRANCH   4   5
ENDBRANCH   2   3
BRANCH   2  11
ATOM     11  N   UNL     1       7.218   4.377  16.867  0.00  0.00    +0.000 N 
ATOM     12  H   UNL     1       7.950   3.674  16.849  0.00  0.00    +0.000 HD
BRANCH  11  13
ATOM     13  N   UNL     1       7.267   5.347  15.842  0.00  0.00    +0.000 N 
ATOM     14  H   UNL     1       6.576   6.087  16.011  0.00  0.00    +0.000 HD
BRANCH  13  15
ATOM     15  C   UNL     1       7.093   4.824  14.533  0.00  0.00    +0.000 A 
ATOM     16  C   UNL     1       6.048   3.912  14.313  0.00  0.00    +0.000 A 
ATOM     17  C   UNL     1       5.770   3.425  13.033  0.00  0.00    +0.000 A 
ATOM     18  C   UNL     1       6.509   3.877  11.943  0.00  0.00    +0.000 A 
ATOM     19  C   UNL     1       7.521   4.812  12.136  0.00  0.00    +0.000 A 
ATOM     20  C   UNL     1       7.805   5.289  13.422  0.00  0.00    +0.000 A 
ENDBRANCH  13  15
ENDBRANCH  11  13
ENDBRANCH   2  11
TORSDOF 5
ENDMDL
MODEL 9
REMARK VINA RESULT:      -6.8      0.784      5.865
REMARK  Name = 
REMARK  5 active torsions:
REMARK  status: ('A' for Active; 'I' for Inactive)
REMARK    1  A    between atoms: C_2  and  N_3
REMARK    2  A    between atoms: C_2  and  N_11
REMARK    3  A    between atoms: N_4  and  C_5
REMARK    4  A    between atoms: N_11  and  N_12
REMARK    5  A    between atoms: N_12  and  C_13
REMARK                            x       y       z     vdW  Elec       q    Type
REMARK                         _______ _______ _______ _____ _____    ______ ____
ROOT
ATOM      1  S   UNL     1       8.080   5.720  19.142  0.00  0.00    +0.000 S 
ATOM      2  C   UNL     1       7.098   4.939  18.023  0.00  0.00    +0.000 C 
ENDROOT
BRANCH   2   3
ATOM      3  N   UNL     1       7.313   4.940  16.657  0.00  0.00    +0.000 NA
ATOM      4  N   UNL     1       6.260   4.683  16.028  0.00  0.00    +0.000 NA
BRANCH   4   5
ATOM      5  C   UNL     1       6.512   4.528  14.652  0.00  0.00    +0.000 A 
ATOM      6  C   UNL     1       7.547   5.270  14.070  0.00  0.00    +0.000 A 
ATOM      7  C   UNL     1       7.847   5.136  12.713  0.00  0.00    +0.000 A 
ATOM      8  C   UNL     1       7.120   4.243  11.927  0.00  0.00    +0.000 A 
ATOM      9  C   UNL     1       6.098   3.487  12.500  0.00  0.00    +0.000 A 
ATOM     10  C   UNL     1       5.796   3.627  13.855  0.00  0.00    +0.000 A 
ENDBRANCH   4   5
ENDBRANCH   2   3
BRANCH   2  11
ATOM     11  N   UNL     1       6.051   4.164  18.510  0.00  0.00    +0.000 N 
ATOM     12  H   UNL     1       5.953   3.227  18.130  0.00  0.00    +0.000 HD
BRANCH  11  13
ATOM     13  N   UNL     1       4.854   4.800  18.904  0.00  0.00    +0.000 N 
ATOM     14  H   UNL     1       4.944   5.184  19.852  0.00  0.00    +0.000 HD
BRANCH  13  15
ATOM     15  C   UNL     1       3.701   3.975  18.831  0.00  0.00    +0.000 A 
ATOM     16  C   UNL     1       2.484   4.561  18.449  0.00  0.00    +0.000 A 
ATOM     17  C   UNL     1       1.332   3.790  18.275  0.00  0.00    +0.000 A 
ATOM     18  C   UNL     1       1.389   2.410  18.442  0.00  0.00    +0.000 A 
ATOM     19  C   UNL     1       2.596   1.806  18.780  0.00  0.00    +0.000 A 
ATOM     20  C   UNL     1       3.746   2.583  18.965  0.00  0.00    +0.000 A 
ENDBRANCH  13  15
ENDBRANCH  11  13
ENDBRANCH   2  11
TORSDOF 5
ENDMDL
