MODEL 1
REMARK VINA RESULT:      -8.9      0.000      0.000
REMARK  Name = 
REMARK  5 active torsions:
REMARK  status: ('A' for Active; 'I' for Inactive)
REMARK    1  A    between atoms: C_4  and  C_5
REMARK    2  A    between atoms: C_10  and  C_11
REMARK    3  A    between atoms: C_15  and  O_16
REMARK    4  A    between atoms: O_16  and  C_17
REMARK    5  A    between atoms: N_22  and  C_23
REMARK                            x       y       z     vdW  Elec       q    Type
REMARK                         _______ _______ _______ _____ _____    ______ ____
ROOT
ATOM      1  C   UNL     1       1.255  10.335  18.847  0.00  0.00    +0.000 C 
ATOM      2  O   UNL     1       0.922   9.682  19.836  0.00  0.00    +0.000 OA
ATOM      3  N   UNL     1       2.000   9.842  17.796  0.00  0.00    +0.000 N 
ATOM      4  C   UNL     1       2.427   8.535  17.754  0.00  0.00    +0.000 A 
ATOM      5  C   UNL     1       1.724   7.398  18.177  0.00  0.00    +0.000 A 
ATOM      6  C   UNL     1       2.569   6.322  17.971  0.00  0.00    +0.000 A 
ATOM      7  N   UNL     1       3.781   6.907  17.589  0.00  0.00    +0.000 N 
ATOM      8  N   UNL     1       3.600   8.211  17.216  0.00  0.00    +0.000 NA
ATOM      9  H   UNL     1       2.525  10.471  17.202  0.00  0.00    +0.000 HD
ENDROOT
BRANCH   1  13
ATOM     10  O   UNL     1       2.383  13.656  21.304  0.00  0.00    +0.000 OA
ATOM     11  C   UNL     1       1.649  13.070  20.530  0.00  0.00    +0.000 C 
ATOM     12  C   UNL     1       1.948  12.732  19.091  0.00  0.00    +0.000 C 
ATOM     13  C   UNL     1       0.808  11.786  18.719  0.00  0.00    +0.000 C 
ATOM     14  C   UNL     1      -0.319  12.166  19.661  0.00  0.00    +0.000 C 
ATOM     15  N   UNL     1       0.372  12.632  20.827  0.00  0.00    +0.000 N 
ATOM     16  H   UNL     1      -0.060  12.920  21.698  0.00  0.00    +0.000 HD
ENDBRANCH   1  13
BRANCH   7  17
ATOM     17  C   UNL     1       5.081   6.326  17.532  0.00  0.00    +0.000 A 
ATOM     18  C   UNL     1       5.620   5.934  16.305  0.00  0.00    +0.000 A 
ATOM     19  C   UNL     1       6.806   5.196  16.273  0.00  0.00    +0.000 A 
ATOM     20  C   UNL     1       7.459   4.877  17.458  0.00  0.00    +0.000 A 
ATOM     21  F   UNL     1       8.558   4.109  17.425  0.00  0.00    +0.000 F 
ATOM     22  C   UNL     1       6.990   5.337  18.677  0.00  0.00    +0.000 A 
ATOM     23  C   UNL     1       5.823   6.098  18.713  0.00  0.00    +0.000 A 
ENDBRANCH   7  17
BRANCH   6  24
ATOM     24  C   UNL     1       2.272   4.893  18.152  0.00  0.00    +0.000 A 
ATOM     25  C   UNL     1       2.500   3.941  17.147  0.00  0.00    +0.000 A 
ATOM     26  C   UNL     1       2.327   2.583  17.408  0.00  0.00    +0.000 A 
ATOM     27  C   UNL     1       1.794   2.176  18.628  0.00  0.00    +0.000 A 
ATOM     28  C   UNL     1       1.433   3.119  19.590  0.00  0.00    +0.000 A 
ATOM     29  C   UNL     1       1.740   4.461  19.376  0.00  0.00    +0.000 A 
BRANCH  28  30
ATOM     30  O   UNL     1       0.839   2.621  20.708  0.00  0.00    +0.000 OA
BRANCH  30  31
ATOM     31  C   UNL     1       1.593   2.577  21.916  0.00  0.00    +0.000 C 
ATOM     32  F   UNL     1       2.627   1.709  21.899  0.00  0.00    +0.000 F 
ATOM     33  F   UNL     1       2.099   3.809  22.150  0.00  0.00    +0.000 F 
ATOM     34  F   UNL     1       0.772   2.257  22.939  0.00  0.00    +0.000 F 
ENDBRANCH  30  31
ENDBRANCH  28  30
ENDBRANCH   6  24
TORSDOF 5
ENDMDL
MODEL 2
REMARK VINA RESULT:      -8.7      1.785      2.336
REMARK  Name = 
REMARK  5 active torsions:
REMARK  status: ('A' for Active; 'I' for Inactive)
REMARK    1  A    between atoms: C_4  and  C_5
REMARK    2  A    between atoms: C_10  and  C_11
REMARK    3  A    between atoms: C_15  and  O_16
REMARK    4  A    between atoms: O_16  and  C_17
REMARK    5  A    between atoms: N_22  and  C_23
REMARK                            x       y       z     vdW  Elec       q    Type
REMARK                         _______ _______ _______ _____ _____    ______ ____
ROOT
ATOM      1  C   UNL     1       1.413  11.189  18.871  0.00  0.00    +0.000 C 
ATOM      2  O   UNL     1       1.392  10.812  20.043  0.00  0.00    +0.000 OA
ATOM      3  N   UNL     1       1.791  10.404  17.801  0.00  0.00    +0.000 N 
ATOM      4  C   UNL     1       2.167   9.090  17.956  0.00  0.00    +0.000 A 
ATOM      5  C   UNL     1       1.614   8.146  18.833  0.00  0.00    +0.000 A 
ATOM      6  C   UNL     1       2.340   6.982  18.657  0.00  0.00    +0.000 A 
ATOM      7  N   UNL     1       3.383   7.355  17.802  0.00  0.00    +0.000 N 
ATOM      8  N   UNL     1       3.112   8.550  17.192  0.00  0.00    +0.000 NA
ATOM      9  H   UNL     1       2.115  10.832  16.942  0.00  0.00    +0.000 HD
ENDROOT
BRANCH   1  13
ATOM     10  O   UNL     1       3.564  14.839  19.489  0.00  0.00    +0.000 OA
ATOM     11  C   UNL     1       2.553  14.182  19.323  0.00  0.00    +0.000 C 
ATOM     12  C   UNL     1       2.158  13.445  18.069  0.00  0.00    +0.000 C 
ATOM     13  C   UNL     1       0.967  12.605  18.530  0.00  0.00    +0.000 C 
ATOM     14  C   UNL     1       0.400  13.371  19.709  0.00  0.00    +0.000 C 
ATOM     15  N   UNL     1       1.552  14.021  20.262  0.00  0.00    +0.000 N 
ATOM     16  H   UNL     1       1.569  14.583  21.106  0.00  0.00    +0.000 HD
ENDBRANCH   1  13
BRANCH   7  17
ATOM     17  C   UNL     1       4.593   6.664  17.507  0.00  0.00    +0.000 A 
ATOM     18  C   UNL     1       4.941   6.393  16.182  0.00  0.00    +0.000 A 
ATOM     19  C   UNL     1       6.025   5.556  15.908  0.00  0.00    +0.000 A 
ATOM     20  C   UNL     1       6.770   5.017  16.950  0.00  0.00    +0.000 A 
ATOM     21  F   UNL     1       7.765   4.159  16.682  0.00  0.00    +0.000 F 
ATOM     22  C   UNL     1       6.498   5.350  18.266  0.00  0.00    +0.000 A 
ATOM     23  C   UNL     1       5.436   6.208  18.546  0.00  0.00    +0.000 A 
ENDBRANCH   7  17
BRANCH   6  24
ATOM     24  C   UNL     1       2.095   5.665  19.262  0.00  0.00    +0.000 A 
ATOM     25  C   UNL     1       1.606   5.511  20.567  0.00  0.00    +0.000 A 
ATOM     26  C   UNL     1       1.265   4.249  21.052  0.00  0.00    +0.000 A 
ATOM     27  C   UNL     1       1.539   3.118  20.286  0.00  0.00    +0.000 A 
ATOM     28  C   UNL     1       2.153   3.242  19.040  0.00  0.00    +0.000 A 
ATOM     29  C   UNL     1       2.360   4.512  18.507  0.00  0.00    +0.000 A 
BRANCH  28  30
ATOM     30  O   UNL     1       2.459   2.072  18.417  0.00  0.00    +0.000 OA
BRANCH  30  31
ATOM     31  C   UNL     1       3.831   1.754  18.203  0.00  0.00    +0.000 C 
ATOM     32  F   UNL     1       4.336   2.211  17.037  0.00  0.00    +0.000 F 
ATOM     33  F   UNL     1       4.558   2.301  19.203  0.00  0.00    +0.000 F 
ATOM     34  F   UNL     1       3.988   0.415  18.250  0.00  0.00    +0.000 F 
ENDBRANCH  30  31
ENDBRANCH  28  30
ENDBRANCH   6  24
TORSDOF 5
ENDMDL
MODEL 3
REMARK VINA RESULT:      -8.7      2.884      5.511
REMARK  Name = 
REMARK  5 active torsions:
REMARK  status: ('A' for Active; 'I' for Inactive)
REMARK    1  A    between atoms: C_4  and  C_5
REMARK    2  A    between atoms: C_10  and  C_11
REMARK    3  A    between atoms: C_15  and  O_16
REMARK    4  A    between atoms: O_16  and  C_17
REMARK    5  A    between atoms: N_22  and  C_23
REMARK                            x       y       z     vdW  Elec       q    Type
REMARK                         _______ _______ _______ _____ _____    ______ ____
ROOT
ATOM      1  C   UNL     1       0.567   9.970  18.634  0.00  0.00    +0.000 C 
ATOM      2  O   UNL     1       0.838   9.992  17.433  0.00  0.00    +0.000 OA
ATOM      3  N   UNL     1       1.092   9.073  19.541  0.00  0.00    +0.000 N 
ATOM      4  C   UNL     1       2.006   8.113  19.172  0.00  0.00    +0.000 A 
ATOM      5  C   UNL     1       3.053   8.247  18.249  0.00  0.00    +0.000 A 
ATOM      6  C   UNL     1       3.673   7.012  18.185  0.00  0.00    +0.000 A 
ATOM      7  N   UNL     1       2.855   6.178  18.956  0.00  0.00    +0.000 N 
ATOM      8  N   UNL     1       2.011   6.912  19.743  0.00  0.00    +0.000 NA
ATOM      9  H   UNL     1       0.602   8.872  20.404  0.00  0.00    +0.000 HD
ENDROOT
BRANCH   1  13
ATOM     10  O   UNL     1      -3.027  11.489  16.870  0.00  0.00    +0.000 OA
ATOM     11  C   UNL     1      -2.072  11.544  17.623  0.00  0.00    +0.000 C 
ATOM     12  C   UNL     1      -1.831  10.676  18.831  0.00  0.00    +0.000 C 
ATOM     13  C   UNL     1      -0.387  11.010  19.207  0.00  0.00    +0.000 C 
ATOM     14  C   UNL     1      -0.170  12.409  18.663  0.00  0.00    +0.000 C 
ATOM     15  N   UNL     1      -1.036  12.453  17.521  0.00  0.00    +0.000 N 
ATOM     16  H   UNL     1      -1.115  13.223  16.865  0.00  0.00    +0.000 HD
ENDBRANCH   1  13
BRANCH   7  17
ATOM     17  C   UNL     1       2.825   4.755  19.014  0.00  0.00    +0.000 A 
ATOM     18  C   UNL     1       3.753   4.065  19.797  0.00  0.00    +0.000 A 
ATOM     19  C   UNL     1       3.842   2.675  19.704  0.00  0.00    +0.000 A 
ATOM     20  C   UNL     1       2.991   1.978  18.855  0.00  0.00    +0.000 A 
ATOM     21  F   UNL     1       3.128   0.651  18.719  0.00  0.00    +0.000 F 
ATOM     22  C   UNL     1       2.001   2.635  18.142  0.00  0.00    +0.000 A 
ATOM     23  C   UNL     1       1.889   4.019  18.252  0.00  0.00    +0.000 A 
ENDBRANCH   7  17
BRANCH   6  24
ATOM     24  C   UNL     1       4.891   6.650  17.446  0.00  0.00    +0.000 A 
ATOM     25  C   UNL     1       6.173   6.752  18.006  0.00  0.00    +0.000 A 
ATOM     26  C   UNL     1       7.287   6.275  17.316  0.00  0.00    +0.000 A 
ATOM     27  C   UNL     1       7.145   5.820  16.007  0.00  0.00    +0.000 A 
ATOM     28  C   UNL     1       5.898   5.840  15.384  0.00  0.00    +0.000 A 
ATOM     29  C   UNL     1       4.771   6.185  16.128  0.00  0.00    +0.000 A 
BRANCH  28  30
ATOM     30  O   UNL     1       5.886   5.460  14.077  0.00  0.00    +0.000 OA
BRANCH  30  31
ATOM     31  C   UNL     1       5.932   4.069  13.774  0.00  0.00    +0.000 C 
ATOM     32  F   UNL     1       5.915   3.260  14.855  0.00  0.00    +0.000 F 
ATOM     33  F   UNL     1       4.854   3.760  13.018  0.00  0.00    +0.000 F 
ATOM     34  F   UNL     1       7.043   3.810  13.053  0.00  0.00    +0.000 F 
ENDBRANCH  30  31
ENDBRANCH  28  30
ENDBRANCH   6  24
TORSDOF 5
ENDMDL
MODEL 4
REMARK VINA RESULT:      -8.6      2.435      4.528
REMARK  Name = 
REMARK  5 active torsions:
REMARK  status: ('A' for Active; 'I' for Inactive)
REMARK    1  A    between atoms: C_4  and  C_5
REMARK    2  A    between atoms: C_10  and  C_11
REMARK    3  A    between atoms: C_15  and  O_16
REMARK    4  A    between atoms: O_16  and  C_17
REMARK    5  A    between atoms: N_22  and  C_23
REMARK                            x       y       z     vdW  Elec       q    Type
REMARK                         _______ _______ _______ _____ _____    ______ ____
ROOT
ATOM      1  C   UNL     1       0.298  10.498  18.891  0.00  0.00    +0.000 C 
ATOM      2  O   UNL     1       0.166  10.136  17.721  0.00  0.00    +0.000 OA
ATOM      3  N   UNL     1       0.987   9.794  19.856  0.00  0.00    +0.000 N 
ATOM      4  C   UNL     1       1.621   8.605  19.580  0.00  0.00    +0.000 A 
ATOM      5  C   UNL     1       2.321   8.267  18.413  0.00  0.00    +0.000 A 
ATOM      6  C   UNL     1       2.748   6.962  18.582  0.00  0.00    +0.000 A 
ATOM      7  N   UNL     1       2.137   6.553  19.773  0.00  0.00    +0.000 N 
ATOM      8  N   UNL     1       1.680   7.630  20.482  0.00  0.00    +0.000 NA
ATOM      9  H   UNL     1       0.784   9.940  20.838  0.00  0.00    +0.000 HD
ENDROOT
BRANCH   1  13
ATOM     10  O   UNL     1      -3.820  11.672  18.842  0.00  0.00    +0.000 OA
ATOM     11  C   UNL     1      -2.622  11.890  18.852  0.00  0.00    +0.000 C 
ATOM     12  C   UNL     1      -1.668  11.606  19.984  0.00  0.00    +0.000 C 
ATOM     13  C   UNL     1      -0.300  11.825  19.338  0.00  0.00    +0.000 C 
ATOM     14  C   UNL     1      -0.571  12.791  18.201  0.00  0.00    +0.000 C 
ATOM     15  N   UNL     1      -1.917  12.478  17.819  0.00  0.00    +0.000 N 
ATOM     16  H   UNL     1      -2.425  12.888  17.042  0.00  0.00    +0.000 HD
ENDBRANCH   1  13
BRANCH   7  17
ATOM     17  C   UNL     1       1.972   5.237  20.291  0.00  0.00    +0.000 A 
ATOM     18  C   UNL     1       0.969   4.406  19.788  0.00  0.00    +0.000 A 
ATOM     19  C   UNL     1       0.689   3.194  20.424  0.00  0.00    +0.000 A 
ATOM     20  C   UNL     1       1.425   2.806  21.537  0.00  0.00    +0.000 A 
ATOM     21  F   UNL     1       1.105   1.675  22.184  0.00  0.00    +0.000 F 
ATOM     22  C   UNL     1       2.485   3.571  21.993  0.00  0.00    +0.000 A 
ATOM     23  C   UNL     1       2.788   4.767  21.346  0.00  0.00    +0.000 A 
ENDBRANCH   7  17
BRANCH   6  24
ATOM     24  C   UNL     1       3.614   6.173  17.693  0.00  0.00    +0.000 A 
ATOM     25  C   UNL     1       4.492   6.764  16.773  0.00  0.00    +0.000 A 
ATOM     26  C   UNL     1       5.387   5.981  16.045  0.00  0.00    +0.000 A 
ATOM     27  C   UNL     1       5.316   4.593  16.130  0.00  0.00    +0.000 A 
ATOM     28  C   UNL     1       4.357   3.983  16.937  0.00  0.00    +0.000 A 
ATOM     29  C   UNL     1       3.563   4.773  17.765  0.00  0.00    +0.000 A 
BRANCH  28  30
ATOM     30  O   UNL     1       4.315   2.624  16.877  0.00  0.00    +0.000 OA
BRANCH  30  31
ATOM     31  C   UNL     1       3.640   1.918  17.913  0.00  0.00    +0.000 C 
ATOM     32  F   UNL     1       3.823   2.430  19.150  0.00  0.00    +0.000 F 
ATOM     33  F   UNL     1       2.313   1.945  17.655  0.00  0.00    +0.000 F 
ATOM     34  F   UNL     1       4.046   0.631  17.910  0.00  0.00    +0.000 F 
ENDBRANCH  30  31
ENDBRANCH  28  30
ENDBRANCH   6  24
TORSDOF 5
ENDMDL
MODEL 5
REMARK VINA RESULT:      -8.6      2.711      5.525
REMARK  Name = 
REMARK  5 active torsions:
REMARK  status: ('A' for Active; 'I' for Inactive)
REMARK    1  A    between atoms: C_4  and  C_5
REMARK    2  A    between atoms: C_10  and  C_11
REMARK    3  A    between atoms: C_15  and  O_16
REMARK    4  A    between atoms: O_16  and  C_17
REMARK    5  A    between atoms: N_22  and  C_23
REMARK                            x       y       z     vdW  Elec       q    Type
REMARK                         _______ _______ _______ _____ _____    ______ ____
ROOT
ATOM      1  C   UNL     1       0.803  10.313  18.854  0.00  0.00    +0.000 C 
ATOM      2  O   UNL     1       1.187  10.253  17.685  0.00  0.00    +0.000 OA
ATOM      3  N   UNL     1       1.058   9.355  19.813  0.00  0.00    +0.000 N 
ATOM      4  C   UNL     1       1.803   8.230  19.542  0.00  0.00    +0.000 A 
ATOM      5  C   UNL     1       2.940   8.141  18.727  0.00  0.00    +0.000 A 
ATOM      6  C   UNL     1       3.316   6.809  18.732  0.00  0.00    +0.000 A 
ATOM      7  N   UNL     1       2.283   6.165  19.423  0.00  0.00    +0.000 N 
ATOM      8  N   UNL     1       1.524   7.065  20.119  0.00  0.00    +0.000 NA
ATOM      9  H   UNL     1       0.459   9.273  20.625  0.00  0.00    +0.000 HD
ENDROOT
BRANCH   1  13
ATOM     10  O   UNL     1      -3.051  11.618  17.519  0.00  0.00    +0.000 OA
ATOM     11  C   UNL     1      -1.956  11.784  18.026  0.00  0.00    +0.000 C 
ATOM     12  C   UNL     1      -1.482  11.221  19.341  0.00  0.00    +0.000 C 
ATOM     13  C   UNL     1       0.015  11.528  19.323  0.00  0.00    +0.000 C 
ATOM     14  C   UNL     1       0.141  12.733  18.410  0.00  0.00    +0.000 C 
ATOM     15  N   UNL     1      -0.946  12.561  17.491  0.00  0.00    +0.000 N 
ATOM     16  H   UNL     1      -1.146  13.152  16.691  0.00  0.00    +0.000 HD
ENDBRANCH   1  13
BRANCH   7  17
ATOM     17  C   UNL     1       1.977   4.775  19.487  0.00  0.00    +0.000 A 
ATOM     18  C   UNL     1       2.105   4.084  20.694  0.00  0.00    +0.000 A 
ATOM     19  C   UNL     1       1.987   2.692  20.711  0.00  0.00    +0.000 A 
ATOM     20  C   UNL     1       1.718   2.002  19.536  0.00  0.00    +0.000 A 
ATOM     21  F   UNL     1       1.675   0.661  19.547  0.00  0.00    +0.000 F 
ATOM     22  C   UNL     1       1.494   2.677  18.348  0.00  0.00    +0.000 A 
ATOM     23  C   UNL     1       1.581   4.067  18.329  0.00  0.00    +0.000 A 
ENDBRANCH   7  17
BRANCH   6  24
ATOM     24  C   UNL     1       4.507   6.205  18.119  0.00  0.00    +0.000 A 
ATOM     25  C   UNL     1       5.559   5.671  18.877  0.00  0.00    +0.000 A 
ATOM     26  C   UNL     1       6.606   4.992  18.255  0.00  0.00    +0.000 A 
ATOM     27  C   UNL     1       6.680   4.962  16.865  0.00  0.00    +0.000 A 
ATOM     28  C   UNL     1       5.715   5.607  16.092  0.00  0.00    +0.000 A 
ATOM     29  C   UNL     1       4.601   6.160  16.719  0.00  0.00    +0.000 A 
BRANCH  28  30
ATOM     30  O   UNL     1       5.931   5.593  14.749  0.00  0.00    +0.000 OA
BRANCH  30  31
ATOM     31  C   UNL     1       5.933   4.339  14.073  0.00  0.00    +0.000 C 
ATOM     32  F   UNL     1       4.815   4.088  13.358  0.00  0.00    +0.000 F 
ATOM     33  F   UNL     1       6.979   4.316  13.216  0.00  0.00    +0.000 F 
ATOM     34  F   UNL     1       6.103   3.351  14.976  0.00  0.00    +0.000 F 
ENDBRANCH  30  31
ENDBRANCH  28  30
ENDBRANCH   6  24
TORSDOF 5
ENDMDL
MODEL 6
REMARK VINA RESULT:      -8.5      2.762      5.554
REMARK  Name = 
REMARK  5 active torsions:
REMARK  status: ('A' for Active; 'I' for Inactive)
REMARK    1  A    between atoms: C_4  and  C_5
REMARK    2  A    between atoms: C_10  and  C_11
REMARK    3  A    between atoms: C_15  and  O_16
REMARK    4  A    between atoms: O_16  and  C_17
REMARK    5  A    between atoms: N_22  and  C_23
REMARK                            x       y       z     vdW  Elec       q    Type
REMARK                         _______ _______ _______ _____ _____    ______ ____
ROOT
ATOM      1  C   UNL     1       0.763  10.099  18.778  0.00  0.00    +0.000 C 
ATOM      2  O   UNL     1       1.105  10.082  17.596  0.00  0.00    +0.000 OA
ATOM      3  N   UNL     1       1.128   9.153  19.713  0.00  0.00    +0.000 N 
ATOM      4  C   UNL     1       1.944   8.091  19.398  0.00  0.00    +0.000 A 
ATOM      5  C   UNL     1       3.052   8.098  18.539  0.00  0.00    +0.000 A 
ATOM      6  C   UNL     1       3.528   6.800  18.510  0.00  0.00    +0.000 A 
ATOM      7  N   UNL     1       2.575   6.070  19.231  0.00  0.00    +0.000 N 
ATOM      8  N   UNL     1       1.777   6.901  19.968  0.00  0.00    +0.000 NA
ATOM      9  H   UNL     1       0.569   9.015  20.546  0.00  0.00    +0.000 HD
ENDROOT
BRANCH   1  13
ATOM     10  O   UNL     1      -2.957  11.511  17.196  0.00  0.00    +0.000 OA
ATOM     11  C   UNL     1      -1.926  11.628  17.832  0.00  0.00    +0.000 C 
ATOM     12  C   UNL     1      -1.580  10.923  19.119  0.00  0.00    +0.000 C 
ATOM     13  C   UNL     1      -0.096  11.245  19.295  0.00  0.00    +0.000 C 
ATOM     14  C   UNL     1       0.098  12.547  18.542  0.00  0.00    +0.000 C 
ATOM     15  N   UNL     1      -0.883  12.471  17.499  0.00  0.00    +0.000 N 
ATOM     16  H   UNL     1      -1.011  13.148  16.754  0.00  0.00    +0.000 HD
ENDBRANCH   1  13
BRANCH   7  17
ATOM     17  C   UNL     1       2.378   4.660  19.286  0.00  0.00    +0.000 A 
ATOM     18  C   UNL     1       2.265   3.921  18.106  0.00  0.00    +0.000 A 
ATOM     19  C   UNL     1       1.885   2.579  18.163  0.00  0.00    +0.000 A 
ATOM     20  C   UNL     1       1.646   1.974  19.391  0.00  0.00    +0.000 A 
ATOM     21  F   UNL     1       1.214   0.705  19.435  0.00  0.00    +0.000 F 
ATOM     22  C   UNL     1       1.844   2.664  20.576  0.00  0.00    +0.000 A 
ATOM     23  C   UNL     1       2.251   3.996  20.527  0.00  0.00    +0.000 A 
ENDBRANCH   7  17
BRANCH   6  24
ATOM     24  C   UNL     1       4.737   6.295  17.844  0.00  0.00    +0.000 A 
ATOM     25  C   UNL     1       5.917   5.997  18.541  0.00  0.00    +0.000 A 
ATOM     26  C   UNL     1       6.993   5.398  17.889  0.00  0.00    +0.000 A 
ATOM     27  C   UNL     1       6.951   5.221  16.508  0.00  0.00    +0.000 A 
ATOM     28  C   UNL     1       5.840   5.638  15.776  0.00  0.00    +0.000 A 
ATOM     29  C   UNL     1       4.716   6.105  16.454  0.00  0.00    +0.000 A 
BRANCH  28  30
ATOM     30  O   UNL     1       5.940   5.502  14.426  0.00  0.00    +0.000 OA
BRANCH  30  31
ATOM     31  C   UNL     1       5.944   4.189  13.874  0.00  0.00    +0.000 C 
ATOM     32  F   UNL     1       6.034   3.199  14.788  0.00  0.00    +0.000 F 
ATOM     33  F   UNL     1       4.793   4.008  13.189  0.00  0.00    +0.000 F 
ATOM     34  F   UNL     1       6.974   4.076  13.009  0.00  0.00    +0.000 F 
ENDBRANCH  30  31
ENDBRANCH  28  30
ENDBRANCH   6  24
TORSDOF 5
ENDMDL
MODEL 7
REMARK VINA RESULT:      -8.4      1.732      2.345
REMARK  Name = 
REMARK  5 active torsions:
REMARK  status: ('A' for Active; 'I' for Inactive)
REMARK    1  A    between atoms: C_4  and  C_5
REMARK    2  A    between atoms: C_10  and  C_11
REMARK    3  A    between atoms: C_15  and  O_16
REMARK    4  A    between atoms: O_16  and  C_17
REMARK    5  A    between atoms: N_22  and  C_23
REMARK                            x       y       z     vdW  Elec       q    Type
REMARK                         _______ _______ _______ _____ _____    ______ ____
ROOT
ATOM      1  C   UNL     1       1.312  11.201  18.904  0.00  0.00    +0.000 C 
ATOM      2  O   UNL     1       1.287  10.817  20.073  0.00  0.00    +0.000 OA
ATOM      3  N   UNL     1       1.708  10.427  17.833  0.00  0.00    +0.000 N 
ATOM      4  C   UNL     1       2.099   9.117  17.984  0.00  0.00    +0.000 A 
ATOM      5  C   UNL     1       1.549   8.162  18.851  0.00  0.00    +0.000 A 
ATOM      6  C   UNL     1       2.291   7.007  18.675  0.00  0.00    +0.000 A 
ATOM      7  N   UNL     1       3.336   7.397  17.830  0.00  0.00    +0.000 N 
ATOM      8  N   UNL     1       3.056   8.592  17.225  0.00  0.00    +0.000 NA
ATOM      9  H   UNL     1       2.035  10.864  16.980  0.00  0.00    +0.000 HD
ENDROOT
BRANCH   1  13
ATOM     10  O   UNL     1       0.772  14.496  21.586  0.00  0.00    +0.000 OA
ATOM     11  C   UNL     1       0.572  13.885  20.552  0.00  0.00    +0.000 C 
ATOM     12  C   UNL     1       1.569  13.635  19.450  0.00  0.00    +0.000 C 
ATOM     13  C   UNL     1       0.852  12.614  18.567  0.00  0.00    +0.000 C 
ATOM     14  C   UNL     1      -0.621  12.859  18.829  0.00  0.00    +0.000 C 
ATOM     15  N   UNL     1      -0.639  13.330  20.183  0.00  0.00    +0.000 N 
ATOM     16  H   UNL     1      -1.468  13.544  20.726  0.00  0.00    +0.000 HD
ENDBRANCH   1  13
BRANCH   7  17
ATOM     17  C   UNL     1       4.557   6.723  17.542  0.00  0.00    +0.000 A 
ATOM     18  C   UNL     1       4.925   6.473  16.217  0.00  0.00    +0.000 A 
ATOM     19  C   UNL     1       6.020   5.650  15.946  0.00  0.00    +0.000 A 
ATOM     20  C   UNL     1       6.757   5.104  16.990  0.00  0.00    +0.000 A 
ATOM     21  F   UNL     1       7.764   4.260  16.723  0.00  0.00    +0.000 F 
ATOM     22  C   UNL     1       6.465   5.417  18.307  0.00  0.00    +0.000 A 
ATOM     23  C   UNL     1       5.391   6.260  18.585  0.00  0.00    +0.000 A 
ENDBRANCH   7  17
BRANCH   6  24
ATOM     24  C   UNL     1       2.056   5.683  19.270  0.00  0.00    +0.000 A 
ATOM     25  C   UNL     1       1.560   5.517  20.571  0.00  0.00    +0.000 A 
ATOM     26  C   UNL     1       1.230   4.248  21.046  0.00  0.00    +0.000 A 
ATOM     27  C   UNL     1       1.523   3.125  20.276  0.00  0.00    +0.000 A 
ATOM     28  C   UNL     1       2.144   3.263  19.035  0.00  0.00    +0.000 A 
ATOM     29  C   UNL     1       2.340   4.539  18.510  0.00  0.00    +0.000 A 
BRANCH  28  30
ATOM     30  O   UNL     1       2.467   2.100  18.407  0.00  0.00    +0.000 OA
BRANCH  30  31
ATOM     31  C   UNL     1       3.844   1.757  18.279  0.00  0.00    +0.000 C 
ATOM     32  F   UNL     1       4.629   2.213  19.279  0.00  0.00    +0.000 F 
ATOM     33  F   UNL     1       3.950   0.409  18.261  0.00  0.00    +0.000 F 
ATOM     34  F   UNL     1       4.312   2.234  17.107  0.00  0.00    +0.000 F 
ENDBRANCH  30  31
ENDBRANCH  28  30
ENDBRANCH   6  24
TORSDOF 5
ENDMDL
MODEL 8
REMARK VINA RESULT:      -8.4      2.742      5.298
REMARK  Name = 
REMARK  5 active torsions:
REMARK  status: ('A' for Active; 'I' for Inactive)
REMARK    1  A    between atoms: C_4  and  C_5
REMARK    2  A    between atoms: C_10  and  C_11
REMARK    3  A    between atoms: C_15  and  O_16
REMARK    4  A    between atoms: O_16  and  C_17
REMARK    5  A    between atoms: N_22  and  C_23
REMARK                            x       y       z     vdW  Elec       q    Type
REMARK                         _______ _______ _______ _____ _____    ______ ____
ROOT
ATOM      1  C   UNL     1       0.564   9.544  18.942  0.00  0.00    +0.000 C 
ATOM      2  O   UNL     1       0.811   9.652  17.741  0.00  0.00    +0.000 OA
ATOM      3  N   UNL     1       1.146   8.618  19.782  0.00  0.00    +0.000 N 
ATOM      4  C   UNL     1       2.095   7.726  19.340  0.00  0.00    +0.000 A 
ATOM      5  C   UNL     1       3.118   7.965  18.411  0.00  0.00    +0.000 A 
ATOM      6  C   UNL     1       3.792   6.766  18.261  0.00  0.00    +0.000 A 
ATOM      7  N   UNL     1       3.027   5.850  18.991  0.00  0.00    +0.000 N 
ATOM      8  N   UNL     1       2.165   6.494  19.836  0.00  0.00    +0.000 NA
ATOM      9  H   UNL     1       0.682   8.343  20.639  0.00  0.00    +0.000 HD
ENDROOT
BRANCH   1  13
ATOM     10  O   UNL     1       0.227  13.773  18.356  0.00  0.00    +0.000 OA
ATOM     11  C   UNL     1       0.069  12.741  18.982  0.00  0.00    +0.000 C 
ATOM     12  C   UNL     1      -0.838  11.596  18.610  0.00  0.00    +0.000 C 
ATOM     13  C   UNL     1      -0.426  10.501  19.593  0.00  0.00    +0.000 C 
ATOM     14  C   UNL     1       0.140  11.256  20.781  0.00  0.00    +0.000 C 
ATOM     15  N   UNL     1       0.679  12.445  20.186  0.00  0.00    +0.000 N 
ATOM     16  H   UNL     1       1.195  13.170  20.672  0.00  0.00    +0.000 HD
ENDBRANCH   1  13
BRANCH   7  17
ATOM     17  C   UNL     1       3.062   4.426  18.961  0.00  0.00    +0.000 A 
ATOM     18  C   UNL     1       3.825   3.724  19.898  0.00  0.00    +0.000 A 
ATOM     19  C   UNL     1       4.008   2.347  19.750  0.00  0.00    +0.000 A 
ATOM     20  C   UNL     1       3.412   1.675  18.690  0.00  0.00    +0.000 A 
ATOM     21  F   UNL     1       3.649   0.367  18.515  0.00  0.00    +0.000 F 
ATOM     22  C   UNL     1       2.577   2.337  17.806  0.00  0.00    +0.000 A 
ATOM     23  C   UNL     1       2.366   3.705  17.964  0.00  0.00    +0.000 A 
ENDBRANCH   7  17
BRANCH   6  24
ATOM     24  C   UNL     1       5.012   6.508  17.482  0.00  0.00    +0.000 A 
ATOM     25  C   UNL     1       6.298   6.698  18.006  0.00  0.00    +0.000 A 
ATOM     26  C   UNL     1       7.423   6.316  17.277  0.00  0.00    +0.000 A 
ATOM     27  C   UNL     1       7.277   5.870  15.965  0.00  0.00    +0.000 A 
ATOM     28  C   UNL     1       6.014   5.804  15.379  0.00  0.00    +0.000 A 
ATOM     29  C   UNL     1       4.887   6.053  16.160  0.00  0.00    +0.000 A 
BRANCH  28  30
ATOM     30  O   UNL     1       5.992   5.442  14.067  0.00  0.00    +0.000 OA
BRANCH  30  31
ATOM     31  C   UNL     1       5.992   4.055  13.745  0.00  0.00    +0.000 C 
ATOM     32  F   UNL     1       6.023   3.232  14.815  0.00  0.00    +0.000 F 
ATOM     33  F   UNL     1       4.867   3.776  13.049  0.00  0.00    +0.000 F 
ATOM     34  F   UNL     1       7.054   3.784  12.957  0.00  0.00    +0.000 F 
ENDBRANCH  30  31
ENDBRANCH  28  30
ENDBRANCH   6  24
TORSDOF 5
ENDMDL
MODEL 9
REMARK VINA RESULT:      -8.3      2.440      5.044
REMARK  Name = 
REMARK  5 active torsions:
REMARK  status: ('A' for Active; 'I' for Inactive)
REMARK    1  A    between atoms: C_4  and  C_5
REMARK    2  A    between atoms: C_10  and  C_11
REMARK    3  A    between atoms: C_15  and  O_16
REMARK    4  A    between atoms: O_16  and  C_17
REMARK    5  A    between atoms: N_22  and  C_23
REMARK                            x       y       z     vdW  Elec       q    Type
REMARK                         _______ _______ _______ _____ _____    ______ ____
ROOT
ATOM      1  C   UNL     1       0.668  10.484  18.779  0.00  0.00    +0.000 C 
ATOM      2  O   UNL     1       0.918  10.418  17.575  0.00  0.00    +0.000 OA
ATOM      3  N   UNL     1       1.047   9.540  19.712  0.00  0.00    +0.000 N 
ATOM      4  C   UNL     1       1.776   8.425  19.368  0.00  0.00    +0.000 A 
ATOM      5  C   UNL     1       2.814   8.346  18.429  0.00  0.00    +0.000 A 
ATOM      6  C   UNL     1       3.212   7.021  18.403  0.00  0.00    +0.000 A 
ATOM      7  N   UNL     1       2.275   6.367  19.212  0.00  0.00    +0.000 N 
ATOM      8  N   UNL     1       1.584   7.261  19.982  0.00  0.00    +0.000 NA
ATOM      9  H   UNL     1       0.545   9.457  20.587  0.00  0.00    +0.000 HD
ENDROOT
BRANCH   1  13
ATOM     10  O   UNL     1      -3.371  11.649  17.966  0.00  0.00    +0.000 OA
ATOM     11  C   UNL     1      -2.223  11.858  18.310  0.00  0.00    +0.000 C 
ATOM     12  C   UNL     1      -1.553  11.345  19.560  0.00  0.00    +0.000 C 
ATOM     13  C   UNL     1      -0.083  11.691  19.325  0.00  0.00    +0.000 C 
ATOM     14  C   UNL     1      -0.122  12.872  18.374  0.00  0.00    +0.000 C 
ATOM     15  N   UNL     1      -1.321  12.646  17.620  0.00  0.00    +0.000 N 
ATOM     16  H   UNL     1      -1.648  13.208  16.842  0.00  0.00    +0.000 HD
ENDBRANCH   1  13
BRANCH   7  17
ATOM     17  C   UNL     1       2.002   4.973  19.322  0.00  0.00    +0.000 A 
ATOM     18  C   UNL     1       2.081   4.339  20.565  0.00  0.00    +0.000 A 
ATOM     19  C   UNL     1       1.999   2.947  20.639  0.00  0.00    +0.000 A 
ATOM     20  C   UNL     1       1.814   2.198  19.483  0.00  0.00    +0.000 A 
ATOM     21  F   UNL     1       1.807   0.859  19.553  0.00  0.00    +0.000 F 
ATOM     22  C   UNL     1       1.640   2.814  18.255  0.00  0.00    +0.000 A 
ATOM     23  C   UNL     1       1.691   4.204  18.178  0.00  0.00    +0.000 A 
ENDBRANCH   7  17
BRANCH   6  24
ATOM     24  C   UNL     1       4.337   6.430  17.664  0.00  0.00    +0.000 A 
ATOM     25  C   UNL     1       4.364   6.352  16.264  0.00  0.00    +0.000 A 
ATOM     26  C   UNL     1       5.506   5.904  15.602  0.00  0.00    +0.000 A 
ATOM     27  C   UNL     1       6.577   5.401  16.337  0.00  0.00    +0.000 A 
ATOM     28  C   UNL     1       6.514   5.344  17.728  0.00  0.00    +0.000 A 
ATOM     29  C   UNL     1       5.429   5.922  18.384  0.00  0.00    +0.000 A 
BRANCH  28  30
ATOM     30  O   UNL     1       7.574   4.752  18.342  0.00  0.00    +0.000 OA
BRANCH  30  31
ATOM     31  C   UNL     1       8.212   5.444  19.412  0.00  0.00    +0.000 C 
ATOM     32  F   UNL     1       9.348   4.862  19.855  0.00  0.00    +0.000 F 
ATOM     33  F   UNL     1       8.530   6.688  18.989  0.00  0.00    +0.000 F 
ATOM     34  F   UNL     1       7.349   5.555  20.444  0.00  0.00    +0.000 F 
ENDBRANCH  30  31
ENDBRANCH  28  30
ENDBRANCH   6  24
TORSDOF 5
ENDMDL
