MODEL 1
REMARK VINA RESULT:      -7.2      0.000      0.000
REMARK  Name = 
REMARK  3 active torsions:
REMARK  status: ('A' for Active; 'I' for Inactive)
REMARK    1  A    between atoms: C_1  and  C_2
REMARK    2  A    between atoms: C_7  and  C_8
REMARK    3  A    between atoms: C_11  and  O_12
REMARK                            x       y       z     vdW  Elec       q    Type
REMARK                         _______ _______ _______ _____ _____    ______ ____
ROOT
ATOM      1  C   UNL     1       1.262   2.449  22.026  0.00  0.00    +0.000 C 
ATOM      2  C   UNL     1       1.774   2.864  20.676  0.00  0.00    +0.000 A 
ATOM      3  C   UNL     1       0.874   3.149  19.631  0.00  0.00    +0.000 A 
ATOM      4  C   UNL     1       1.323   3.540  18.361  0.00  0.00    +0.000 A 
ATOM      5  C   UNL     1       2.703   3.649  18.153  0.00  0.00    +0.000 A 
ATOM      6  N   UNL     1       3.420   4.003  17.043  0.00  0.00    +0.000 NA
ATOM      7  C   UNL     1       4.684   3.970  17.442  0.00  0.00    +0.000 A 
ATOM      8  O   UNL     1       4.835   3.588  18.760  0.00  0.00    +0.000 OA
ATOM      9  C   UNL     1       3.562   3.377  19.203  0.00  0.00    +0.000 A 
ATOM     10  C   UNL     1       3.161   2.975  20.470  0.00  0.00    +0.000 A 
ENDROOT
BRANCH   7  11
ATOM     11  C   UNL     1       5.789   4.310  16.590  0.00  0.00    +0.000 A 
ATOM     12  N   UNL     1       7.056   4.362  16.981  0.00  0.00    +0.000 NA
ATOM     13  N   UNL     1       7.804   4.741  15.882  0.00  0.00    +0.000 NA
ATOM     14  C   UNL     1       6.937   4.873  14.916  0.00  0.00    +0.000 A 
ATOM     15  O   UNL     1       5.653   4.633  15.253  0.00  0.00    +0.000 OA
BRANCH  14  16
ATOM     16  O   UNL     1       7.189   5.206  13.672  0.00  0.00    +0.000 OA
ATOM     17  H   UNL     1       7.411   4.350  13.270  0.00  0.00    +0.000 HD
ENDBRANCH  14  16
ENDBRANCH   7  11
TORSDOF 2
ENDMDL
MODEL 2
REMARK VINA RESULT:      -7.1      1.410      1.487
REMARK  Name = 
REMARK  3 active torsions:
REMARK  status: ('A' for Active; 'I' for Inactive)
REMARK    1  A    between atoms: C_1  and  C_2
REMARK    2  A    between atoms: C_7  and  C_8
REMARK    3  A    between atoms: C_11  and  O_12
REMARK                            x       y       z     vdW  Elec       q    Type
REMARK                         _______ _______ _______ _____ _____    ______ ____
ROOT
ATOM      1  C   UNL     1       1.488   2.861  21.600  0.00  0.00    +0.000 C 
ATOM      2  C   UNL     1       2.173   3.690  20.552  0.00  0.00    +0.000 A 
ATOM      3  C   UNL     1       1.993   5.086  20.521  0.00  0.00    +0.000 A 
ATOM      4  C   UNL     1       2.621   5.886  19.555  0.00  0.00    +0.000 A 
ATOM      5  C   UNL     1       3.446   5.260  18.614  0.00  0.00    +0.000 A 
ATOM      6  N   UNL     1       4.175   5.771  17.574  0.00  0.00    +0.000 NA
ATOM      7  C   UNL     1       4.790   4.718  17.053  0.00  0.00    +0.000 A 
ATOM      8  O   UNL     1       4.481   3.531  17.687  0.00  0.00    +0.000 OA
ATOM      9  C   UNL     1       3.615   3.888  18.678  0.00  0.00    +0.000 A 
ATOM     10  C   UNL     1       3.003   3.058  19.609  0.00  0.00    +0.000 A 
ENDROOT
BRANCH   7  11
ATOM     11  C   UNL     1       5.698   4.805  15.944  0.00  0.00    +0.000 A 
ATOM     12  N   UNL     1       6.786   5.564  15.915  0.00  0.00    +0.000 NA
ATOM     13  N   UNL     1       7.372   5.385  14.676  0.00  0.00    +0.000 NA
ATOM     14  C   UNL     1       6.606   4.524  14.064  0.00  0.00    +0.000 A 
ATOM     15  O   UNL     1       5.532   4.105  14.763  0.00  0.00    +0.000 OA
BRANCH  14  16
ATOM     16  O   UNL     1       6.778   4.036  12.858  0.00  0.00    +0.000 OA
ATOM     17  H   UNL     1       6.190   4.593  12.323  0.00  0.00    +0.000 HD
ENDBRANCH  14  16
ENDBRANCH   7  11
TORSDOF 2
ENDMDL
MODEL 3
REMARK VINA RESULT:      -6.9      2.306      6.487
REMARK  Name = 
REMARK  3 active torsions:
REMARK  status: ('A' for Active; 'I' for Inactive)
REMARK    1  A    between atoms: C_1  and  C_2
REMARK    2  A    between atoms: C_7  and  C_8
REMARK    3  A    between atoms: C_11  and  O_12
REMARK                            x       y       z     vdW  Elec       q    Type
REMARK                         _______ _______ _______ _____ _____    ______ ____
ROOT
ATOM      1  C   UNL     1       7.040   4.723  13.683  0.00  0.00    +0.000 C 
ATOM      2  C   UNL     1       6.603   4.613  15.116  0.00  0.00    +0.000 A 
ATOM      3  C   UNL     1       7.523   4.838  16.158  0.00  0.00    +0.000 A 
ATOM      4  C   UNL     1       7.143   4.745  17.505  0.00  0.00    +0.000 A 
ATOM      5  C   UNL     1       5.812   4.425  17.796  0.00  0.00    +0.000 A 
ATOM      6  N   UNL     1       5.165   4.268  18.991  0.00  0.00    +0.000 NA
ATOM      7  C   UNL     1       3.908   4.008  18.655  0.00  0.00    +0.000 A 
ATOM      8  O   UNL     1       3.702   3.964  17.290  0.00  0.00    +0.000 OA
ATOM      9  C   UNL     1       4.927   4.224  16.751  0.00  0.00    +0.000 A 
ATOM     10  C   UNL     1       5.264   4.294  15.405  0.00  0.00    +0.000 A 
ENDROOT
BRANCH   7  11
ATOM     11  C   UNL     1       2.861   3.804  19.615  0.00  0.00    +0.000 A 
ATOM     12  N   UNL     1       1.694   4.435  19.606  0.00  0.00    +0.000 NA
ATOM     13  N   UNL     1       0.978   3.978  20.697  0.00  0.00    +0.000 NA
ATOM     14  C   UNL     1       1.758   3.102  21.267  0.00  0.00    +0.000 A 
ATOM     15  O   UNL     1       2.957   2.923  20.676  0.00  0.00    +0.000 OA
BRANCH  14  16
ATOM     16  O   UNL     1       1.493   2.389  22.337  0.00  0.00    +0.000 OA
ATOM     17  H   UNL     1       0.741   2.868  22.723  0.00  0.00    +0.000 HD
ENDBRANCH  14  16
ENDBRANCH   7  11
TORSDOF 2
ENDMDL
MODEL 4
REMARK VINA RESULT:      -6.9      1.848      2.113
REMARK  Name = 
REMARK  3 active torsions:
REMARK  status: ('A' for Active; 'I' for Inactive)
REMARK    1  A    between atoms: C_1  and  C_2
REMARK    2  A    between atoms: C_7  and  C_8
REMARK    3  A    between atoms: C_11  and  O_12
REMARK                            x       y       z     vdW  Elec       q    Type
REMARK                         _______ _______ _______ _____ _____    ______ ____
ROOT
ATOM      1  C   UNL     1       1.008   3.361  20.570  0.00  0.00    +0.000 C 
ATOM      2  C   UNL     1       1.957   4.083  19.657  0.00  0.00    +0.000 A 
ATOM      3  C   UNL     1       2.258   5.441  19.875  0.00  0.00    +0.000 A 
ATOM      4  C   UNL     1       3.142   6.140  19.040  0.00  0.00    +0.000 A 
ATOM      5  C   UNL     1       3.732   5.449  17.976  0.00  0.00    +0.000 A 
ATOM      6  N   UNL     1       4.616   5.860  17.016  0.00  0.00    +0.000 NA
ATOM      7  C   UNL     1       4.855   4.770  16.298  0.00  0.00    +0.000 A 
ATOM      8  O   UNL     1       4.150   3.664  16.728  0.00  0.00    +0.000 OA
ATOM      9  C   UNL     1       3.429   4.111  17.796  0.00  0.00    +0.000 A 
ATOM     10  C   UNL     1       2.550   3.385  18.590  0.00  0.00    +0.000 A 
ENDROOT
BRANCH   7  11
ATOM     11  C   UNL     1       5.766   4.741  15.189  0.00  0.00    +0.000 A 
ATOM     12  N   UNL     1       5.691   3.892  14.172  0.00  0.00    +0.000 NA
ATOM     13  N   UNL     1       6.753   4.172  13.331  0.00  0.00    +0.000 NA
ATOM     14  C   UNL     1       7.372   5.172  13.895  0.00  0.00    +0.000 A 
ATOM     15  O   UNL     1       6.843   5.598  15.060  0.00  0.00    +0.000 OA
BRANCH  14  16
ATOM     16  O   UNL     1       8.438   5.792  13.446  0.00  0.00    +0.000 OA
ATOM     17  H   UNL     1       8.235   6.721  13.646  0.00  0.00    +0.000 HD
ENDBRANCH  14  16
ENDBRANCH   7  11
TORSDOF 2
ENDMDL
MODEL 5
REMARK VINA RESULT:      -6.6      2.481      6.383
REMARK  Name = 
REMARK  3 active torsions:
REMARK  status: ('A' for Active; 'I' for Inactive)
REMARK    1  A    between atoms: C_1  and  C_2
REMARK    2  A    between atoms: C_7  and  C_8
REMARK    3  A    between atoms: C_11  and  O_12
REMARK                            x       y       z     vdW  Elec       q    Type
REMARK                         _______ _______ _______ _____ _____    ______ ____
ROOT
ATOM      1  C   UNL     1       6.731   4.358  13.401  0.00  0.00    +0.000 C 
ATOM      2  C   UNL     1       6.490   4.335  14.883  0.00  0.00    +0.000 A 
ATOM      3  C   UNL     1       7.375   4.998  15.756  0.00  0.00    +0.000 A 
ATOM      4  C   UNL     1       7.174   4.996  17.145  0.00  0.00    +0.000 A 
ATOM      5  C   UNL     1       6.059   4.318  17.650  0.00  0.00    +0.000 A 
ATOM      6  N   UNL     1       5.614   4.148  18.933  0.00  0.00    +0.000 NA
ATOM      7  C   UNL     1       4.491   3.454  18.805  0.00  0.00    +0.000 A 
ATOM      8  O   UNL     1       4.187   3.138  17.495  0.00  0.00    +0.000 OA
ATOM      9  C   UNL     1       5.199   3.688  16.766  0.00  0.00    +0.000 A 
ATOM     10  C   UNL     1       5.368   3.655  15.388  0.00  0.00    +0.000 A 
ENDROOT
BRANCH   7  11
ATOM     11  C   UNL     1       3.665   3.077  19.917  0.00  0.00    +0.000 A 
ATOM     12  N   UNL     1       4.097   2.431  20.993  0.00  0.00    +0.000 NA
ATOM     13  N   UNL     1       3.002   2.240  21.816  0.00  0.00    +0.000 NA
ATOM     14  C   UNL     1       2.005   2.795  21.183  0.00  0.00    +0.000 A 
ATOM     15  O   UNL     1       2.310   3.340  19.988  0.00  0.00    +0.000 OA
BRANCH  14  16
ATOM     16  O   UNL     1       0.761   2.875  21.591  0.00  0.00    +0.000 OA
ATOM     17  H   UNL     1       0.623   3.835  21.645  0.00  0.00    +0.000 HD
ENDBRANCH  14  16
ENDBRANCH   7  11
TORSDOF 2
ENDMDL
MODEL 6
REMARK VINA RESULT:      -6.6      1.524      2.069
REMARK  Name = 
REMARK  3 active torsions:
REMARK  status: ('A' for Active; 'I' for Inactive)
REMARK    1  A    between atoms: C_1  and  C_2
REMARK    2  A    between atoms: C_7  and  C_8
REMARK    3  A    between atoms: C_11  and  O_12
REMARK                            x       y       z     vdW  Elec       q    Type
REMARK                         _______ _______ _______ _____ _____    ______ ____
ROOT
ATOM      1  C   UNL     1       1.470   2.436  19.944  0.00  0.00    +0.000 C 
ATOM      2  C   UNL     1       2.280   3.337  19.056  0.00  0.00    +0.000 A 
ATOM      3  C   UNL     1       2.177   4.736  19.180  0.00  0.00    +0.000 A 
ATOM      4  C   UNL     1       2.923   5.602  18.366  0.00  0.00    +0.000 A 
ATOM      5  C   UNL     1       3.786   5.039  17.420  0.00  0.00    +0.000 A 
ATOM      6  N   UNL     1       4.622   5.621  16.506  0.00  0.00    +0.000 NA
ATOM      7  C   UNL     1       5.221   4.599  15.908  0.00  0.00    +0.000 A 
ATOM      8  O   UNL     1       4.799   3.368  16.370  0.00  0.00    +0.000 OA
ATOM      9  C   UNL     1       3.876   3.661  17.330  0.00  0.00    +0.000 A 
ATOM     10  C   UNL     1       3.148   2.769  18.107  0.00  0.00    +0.000 A 
ENDROOT
BRANCH   7  11
ATOM     11  C   UNL     1       6.217   4.757  14.887  0.00  0.00    +0.000 A 
ATOM     12  N   UNL     1       7.382   5.370  15.057  0.00  0.00    +0.000 NA
ATOM     13  N   UNL     1       8.042   5.329  13.842  0.00  0.00    +0.000 NA
ATOM     14  C   UNL     1       7.236   4.684  13.044  0.00  0.00    +0.000 A 
ATOM     15  O   UNL     1       6.070   4.290  13.594  0.00  0.00    +0.000 OA
BRANCH  14  16
ATOM     16  O   UNL     1       7.448   4.386  11.784  0.00  0.00    +0.000 OA
ATOM     17  H   UNL     1       8.247   3.837  11.833  0.00  0.00    +0.000 HD
ENDBRANCH  14  16
ENDBRANCH   7  11
TORSDOF 2
ENDMDL
MODEL 7
REMARK VINA RESULT:      -6.6      1.463      1.748
REMARK  Name = 
REMARK  3 active torsions:
REMARK  status: ('A' for Active; 'I' for Inactive)
REMARK    1  A    between atoms: C_1  and  C_2
REMARK    2  A    between atoms: C_7  and  C_8
REMARK    3  A    between atoms: C_11  and  O_12
REMARK                            x       y       z     vdW  Elec       q    Type
REMARK                         _______ _______ _______ _____ _____    ______ ____
ROOT
ATOM      1  C   UNL     1       2.071   4.631  21.214  0.00  0.00    +0.000 C 
ATOM      2  C   UNL     1       2.604   4.350  19.838  0.00  0.00    +0.000 A 
ATOM      3  C   UNL     1       1.911   3.483  18.972  0.00  0.00    +0.000 A 
ATOM      4  C   UNL     1       2.384   3.203  17.681  0.00  0.00    +0.000 A 
ATOM      5  C   UNL     1       3.570   3.817  17.264  0.00  0.00    +0.000 A 
ATOM      6  N   UNL     1       4.259   3.737  16.084  0.00  0.00    +0.000 NA
ATOM      7  C   UNL     1       5.285   4.562  16.244  0.00  0.00    +0.000 A 
ATOM      8  O   UNL     1       5.318   5.165  17.485  0.00  0.00    +0.000 OA
ATOM      9  C   UNL     1       4.221   4.676  18.132  0.00  0.00    +0.000 A 
ATOM     10  C   UNL     1       3.796   4.970  19.421  0.00  0.00    +0.000 A 
ENDROOT
BRANCH   7  11
ATOM     11  C   UNL     1       6.262   4.812  15.222  0.00  0.00    +0.000 A 
ATOM     12  N   UNL     1       7.377   5.510  15.397  0.00  0.00    +0.000 NA
ATOM     13  N   UNL     1       8.032   5.539  14.179  0.00  0.00    +0.000 NA
ATOM     14  C   UNL     1       7.274   4.847  13.374  0.00  0.00    +0.000 A 
ATOM     15  O   UNL     1       6.144   4.356  13.922  0.00  0.00    +0.000 OA
BRANCH  14  16
ATOM     16  O   UNL     1       7.501   4.586  12.108  0.00  0.00    +0.000 OA
ATOM     17  H   UNL     1       7.556   5.475  11.721  0.00  0.00    +0.000 HD
ENDBRANCH  14  16
ENDBRANCH   7  11
TORSDOF 2
ENDMDL
MODEL 8
REMARK VINA RESULT:      -6.6      3.960      6.410
REMARK  Name = 
REMARK  3 active torsions:
REMARK  status: ('A' for Active; 'I' for Inactive)
REMARK    1  A    between atoms: C_1  and  C_2
REMARK    2  A    between atoms: C_7  and  C_8
REMARK    3  A    between atoms: C_11  and  O_12
REMARK                            x       y       z     vdW  Elec       q    Type
REMARK                         _______ _______ _______ _____ _____    ______ ____
ROOT
ATOM      1  C   UNL     1       4.898   2.885  10.945  0.00  0.00    +0.000 C 
ATOM      2  C   UNL     1       5.646   3.469  12.110  0.00  0.00    +0.000 A 
ATOM      3  C   UNL     1       6.847   4.174  11.902  0.00  0.00    +0.000 A 
ATOM      4  C   UNL     1       7.565   4.732  12.971  0.00  0.00    +0.000 A 
ATOM      5  C   UNL     1       7.052   4.577  14.263  0.00  0.00    +0.000 A 
ATOM      6  N   UNL     1       7.523   5.003  15.475  0.00  0.00    +0.000 NA
ATOM      7  C   UNL     1       6.607   4.602  16.346  0.00  0.00    +0.000 A 
ATOM      8  O   UNL     1       5.563   3.909  15.765  0.00  0.00    +0.000 OA
ATOM      9  C   UNL     1       5.862   3.892  14.435  0.00  0.00    +0.000 A 
ATOM     10  C   UNL     1       5.127   3.314  13.408  0.00  0.00    +0.000 A 
ENDROOT
BRANCH   7  11
ATOM     11  C   UNL     1       6.686   4.871  17.754  0.00  0.00    +0.000 A 
ATOM     12  N   UNL     1       5.638   5.057  18.547  0.00  0.00    +0.000 NA
ATOM     13  N   UNL     1       6.130   5.307  19.815  0.00  0.00    +0.000 NA
ATOM     14  C   UNL     1       7.427   5.238  19.692  0.00  0.00    +0.000 A 
ATOM     15  O   UNL     1       7.877   4.978  18.447  0.00  0.00    +0.000 OA
BRANCH  14  16
ATOM     16  O   UNL     1       8.318   5.391  20.643  0.00  0.00    +0.000 OA
ATOM     17  H   UNL     1       9.013   4.766  20.377  0.00  0.00    +0.000 HD
ENDBRANCH  14  16
ENDBRANCH   7  11
TORSDOF 2
ENDMDL
MODEL 9
REMARK VINA RESULT:      -6.5      2.974      6.209
REMARK  Name = 
REMARK  3 active torsions:
REMARK  status: ('A' for Active; 'I' for Inactive)
REMARK    1  A    between atoms: C_1  and  C_2
REMARK    2  A    between atoms: C_7  and  C_8
REMARK    3  A    between atoms: C_11  and  O_12
REMARK                            x       y       z     vdW  Elec       q    Type
REMARK                         _______ _______ _______ _____ _____    ______ ____
ROOT
ATOM      1  C   UNL     1       8.217   8.632  17.397  0.00  0.00    +0.000 C 
ATOM      2  C   UNL     1       7.495   7.415  17.900  0.00  0.00    +0.000 A 
ATOM      3  C   UNL     1       8.103   6.570  18.849  0.00  0.00    +0.000 A 
ATOM      4  C   UNL     1       7.452   5.428  19.338  0.00  0.00    +0.000 A 
ATOM      5  C   UNL     1       6.167   5.145  18.862  0.00  0.00    +0.000 A 
ATOM      6  N   UNL     1       5.305   4.123  19.152  0.00  0.00    +0.000 NA
ATOM      7  C   UNL     1       4.221   4.391  18.434  0.00  0.00    +0.000 A 
ATOM      8  O   UNL     1       4.339   5.531  17.666  0.00  0.00    +0.000 OA
ATOM      9  C   UNL     1       5.589   6.002  17.941  0.00  0.00    +0.000 A 
ATOM     10  C   UNL     1       6.203   7.134  17.421  0.00  0.00    +0.000 A 
ENDROOT
BRANCH   7  11
ATOM     11  C   UNL     1       3.037   3.579  18.462  0.00  0.00    +0.000 A 
ATOM     12  N   UNL     1       2.773   2.598  17.608  0.00  0.00    +0.000 NA
ATOM     13  N   UNL     1       1.539   2.081  17.955  0.00  0.00    +0.000 NA
ATOM     14  C   UNL     1       1.164   2.775  18.994  0.00  0.00    +0.000 A 
ATOM     15  O   UNL     1       2.023   3.738  19.387  0.00  0.00    +0.000 OA
BRANCH  14  16
ATOM     16  O   UNL     1       0.056   2.627  19.682  0.00  0.00    +0.000 OA
ATOM     17  H   UNL     1      -0.046   1.661  19.703  0.00  0.00    +0.000 HD
ENDBRANCH  14  16
ENDBRANCH   7  11
TORSDOF 2
ENDMDL
