MODEL 1
REMARK VINA RESULT:      -7.9      0.000      0.000
REMARK  Name = 
REMARK  7 active torsions:
REMARK  status: ('A' for Active; 'I' for Inactive)
REMARK    1  A    between atoms: C_1  and  C_2
REMARK    2  A    between atoms: C_2  and  C_3
REMARK    3  A    between atoms: C_2  and  C_4
REMARK    4  A    between atoms: C_2  and  C_5
REMARK    5  A    between atoms: C_8  and  C_9
REMARK    6  A    between atoms: C_12  and  N_13
REMARK    7  A    between atoms: N_16  and  C_17
REMARK                            x       y       z     vdW  Elec       q    Type
REMARK                         _______ _______ _______ _____ _____    ______ ____
ROOT
ATOM      1  C   UNL     1       3.240   3.927  19.109  0.00  0.00    +0.000 A 
ATOM      2  C   UNL     1       3.924   3.225  18.065  0.00  0.00    +0.000 A 
ATOM      3  C   UNL     1       4.942   3.785  17.292  0.00  0.00    +0.000 A 
ATOM      4  C   UNL     1       5.333   5.083  17.539  0.00  0.00    +0.000 A 
ATOM      5  C   UNL     1       4.701   5.800  18.556  0.00  0.00    +0.000 A 
ATOM      6  C   UNL     1       3.641   5.270  19.331  0.00  0.00    +0.000 A 
ENDROOT
BRANCH   6   7
ATOM      7  N   UNL     1       3.033   6.108  20.303  0.00  0.00    +0.000 N 
ATOM      8  C   UNL     1       2.222   7.204  20.043  0.00  0.00    +0.000 C 
ATOM      9  O   UNL     1       1.861   7.533  18.917  0.00  0.00    +0.000 OA
ATOM     10  N   UNL     1       1.861   7.867  21.203  0.00  0.00    +0.000 N 
ATOM     11  H   UNL     1       2.973   5.785  21.245  0.00  0.00    +0.000 HD
ATOM     12  H   UNL     1       2.412   7.684  22.029  0.00  0.00    +0.000 HD
BRANCH  10  13
ATOM     13  C   UNL     1       0.985   8.982  21.266  0.00  0.00    +0.000 A 
ATOM     14  C   UNL     1       0.732   9.813  20.169  0.00  0.00    +0.000 A 
ATOM     15  C   UNL     1      -0.101  10.928  20.286  0.00  0.00    +0.000 A 
ATOM     16  C   UNL     1      -0.711  11.214  21.500  0.00  0.00    +0.000 A 
ATOM     17  C   UNL     1      -0.497  10.377  22.594  0.00  0.00    +0.000 A 
ATOM     18  C   UNL     1       0.343   9.262  22.476  0.00  0.00    +0.000 A 
ENDBRANCH  10  13
ENDBRANCH   6   7
BRANCH   1  20
ATOM     19  C   UNL     1       2.520   2.698  21.216  0.00  0.00    +0.000 C 
ATOM     20  C   UNL     1       2.094   3.121  19.781  0.00  0.00    +0.000 C 
ATOM     21  C   UNL     1       1.821   1.868  18.906  0.00  0.00    +0.000 C 
ATOM     22  C   UNL     1       0.716   3.788  19.982  0.00  0.00    +0.000 C 
ENDBRANCH   1  20
BRANCH   4  23
ATOM     23  C   UNL     1       6.365   5.692  16.752  0.00  0.00    +0.000 C 
ATOM     24  N   UNL     1       7.185   6.200  16.106  0.00  0.00    +0.000 NA
ENDBRANCH   4  23
TORSDOF 4
ENDMDL
MODEL 2
REMARK VINA RESULT:      -7.8      0.076      1.027
REMARK  Name = 
REMARK  7 active torsions:
REMARK  status: ('A' for Active; 'I' for Inactive)
REMARK    1  A    between atoms: C_1  and  C_2
REMARK    2  A    between atoms: C_2  and  C_3
REMARK    3  A    between atoms: C_2  and  C_4
REMARK    4  A    between atoms: C_2  and  C_5
REMARK    5  A    between atoms: C_8  and  C_9
REMARK    6  A    between atoms: C_12  and  N_13
REMARK    7  A    between atoms: N_16  and  C_17
REMARK                            x       y       z     vdW  Elec       q    Type
REMARK                         _______ _______ _______ _____ _____    ______ ____
ROOT
ATOM      1  C   UNL     1       3.221   3.923  19.110  0.00  0.00    +0.000 A 
ATOM      2  C   UNL     1       3.886   3.225  18.051  0.00  0.00    +0.000 A 
ATOM      3  C   UNL     1       4.884   3.792  17.258  0.00  0.00    +0.000 A 
ATOM      4  C   UNL     1       5.273   5.092  17.496  0.00  0.00    +0.000 A 
ATOM      5  C   UNL     1       4.659   5.804  18.528  0.00  0.00    +0.000 A 
ATOM      6  C   UNL     1       3.619   5.268  19.325  0.00  0.00    +0.000 A 
ENDROOT
BRANCH   6   7
ATOM      7  N   UNL     1       3.028   6.102  20.310  0.00  0.00    +0.000 N 
ATOM      8  C   UNL     1       2.221   7.205  20.069  0.00  0.00    +0.000 C 
ATOM      9  O   UNL     1       1.849   7.545  18.950  0.00  0.00    +0.000 OA
ATOM     10  N   UNL     1       1.878   7.861  21.238  0.00  0.00    +0.000 N 
ATOM     11  H   UNL     1       2.977   5.772  21.251  0.00  0.00    +0.000 HD
ATOM     12  H   UNL     1       2.438   7.668  22.057  0.00  0.00    +0.000 HD
BRANCH  10  13
ATOM     13  C   UNL     1       1.009   8.981  21.320  0.00  0.00    +0.000 A 
ATOM     14  C   UNL     1       0.380   9.370  22.507  0.00  0.00    +0.000 A 
ATOM     15  C   UNL     1      -0.505  10.450  22.534  0.00  0.00    +0.000 A 
ATOM     16  C   UNL     1      -0.756  11.171  21.374  0.00  0.00    +0.000 A 
ATOM     17  C   UNL     1      -0.111  10.817  20.190  0.00  0.00    +0.000 A 
ATOM     18  C   UNL     1       0.772   9.730  20.163  0.00  0.00    +0.000 A 
ENDBRANCH  10  13
ENDBRANCH   6   7
BRANCH   1  20
ATOM     19  C   UNL     1       2.560   2.674  21.226  0.00  0.00    +0.000 C 
ATOM     20  C   UNL     1       2.095   3.110  19.807  0.00  0.00    +0.000 C 
ATOM     21  C   UNL     1       1.797   1.866  18.928  0.00  0.00    +0.000 C 
ATOM     22  C   UNL     1       0.723   3.775  20.053  0.00  0.00    +0.000 C 
ENDBRANCH   1  20
BRANCH   4  23
ATOM     23  C   UNL     1       6.284   5.707  16.688  0.00  0.00    +0.000 C 
ATOM     24  N   UNL     1       7.113   6.183  16.029  0.00  0.00    +0.000 NA
ENDBRANCH   4  23
TORSDOF 4
ENDMDL
MODEL 3
REMARK VINA RESULT:      -7.5      2.348      4.300
REMARK  Name = 
REMARK  7 active torsions:
REMARK  status: ('A' for Active; 'I' for Inactive)
REMARK    1  A    between atoms: C_1  and  C_2
REMARK    2  A    between atoms: C_2  and  C_3
REMARK    3  A    between atoms: C_2  and  C_4
REMARK    4  A    between atoms: C_2  and  C_5
REMARK    5  A    between atoms: C_8  and  C_9
REMARK    6  A    between atoms: C_12  and  N_13
REMARK    7  A    between atoms: N_16  and  C_17
REMARK                            x       y       z     vdW  Elec       q    Type
REMARK                         _______ _______ _______ _____ _____    ______ ____
ROOT
ATOM      1  C   UNL     1       4.665   4.930  18.161  0.00  0.00    +0.000 A 
ATOM      2  C   UNL     1       5.044   3.741  18.863  0.00  0.00    +0.000 A 
ATOM      3  C   UNL     1       4.250   3.130  19.835  0.00  0.00    +0.000 A 
ATOM      4  C   UNL     1       3.026   3.681  20.144  0.00  0.00    +0.000 A 
ATOM      5  C   UNL     1       2.613   4.833  19.474  0.00  0.00    +0.000 A 
ATOM      6  C   UNL     1       3.412   5.495  18.511  0.00  0.00    +0.000 A 
ENDROOT
BRANCH   6   7
ATOM      7  N   UNL     1       2.915   6.693  17.932  0.00  0.00    +0.000 N 
ATOM      8  C   UNL     1       2.305   7.737  18.614  0.00  0.00    +0.000 C 
ATOM      9  O   UNL     1       2.198   7.783  19.836  0.00  0.00    +0.000 OA
ATOM     10  N   UNL     1       1.849   8.721  17.754  0.00  0.00    +0.000 N 
ATOM     11  H   UNL     1       3.209   6.939  17.011  0.00  0.00    +0.000 HD
ATOM     12  H   UNL     1       1.748   8.471  16.780  0.00  0.00    +0.000 HD
BRANCH  10  13
ATOM     13  C   UNL     1       1.245   9.940  18.156  0.00  0.00    +0.000 A 
ATOM     14  C   UNL     1      -0.124  10.062  18.413  0.00  0.00    +0.000 A 
ATOM     15  C   UNL     1      -0.686  11.293  18.761  0.00  0.00    +0.000 A 
ATOM     16  C   UNL     1       0.122  12.416  18.879  0.00  0.00    +0.000 A 
ATOM     17  C   UNL     1       1.494  12.305  18.660  0.00  0.00    +0.000 A 
ATOM     18  C   UNL     1       2.055  11.071  18.305  0.00  0.00    +0.000 A 
ENDBRANCH  10  13
ENDBRANCH   6   7
BRANCH   1  20
ATOM     19  C   UNL     1       5.273   5.244  15.711  0.00  0.00    +0.000 C 
ATOM     20  C   UNL     1       5.743   5.465  17.178  0.00  0.00    +0.000 C 
ATOM     21  C   UNL     1       7.058   4.687  17.448  0.00  0.00    +0.000 C 
ATOM     22  C   UNL     1       6.134   6.958  17.223  0.00  0.00    +0.000 C 
ENDBRANCH   1  20
BRANCH   4  23
ATOM     23  C   UNL     1       2.195   3.085  21.149  0.00  0.00    +0.000 C 
ATOM     24  N   UNL     1       1.541   2.593  21.972  0.00  0.00    +0.000 NA
ENDBRANCH   4  23
TORSDOF 4
ENDMDL
MODEL 4
REMARK VINA RESULT:      -7.5      2.363      4.262
REMARK  Name = 
REMARK  7 active torsions:
REMARK  status: ('A' for Active; 'I' for Inactive)
REMARK    1  A    between atoms: C_1  and  C_2
REMARK    2  A    between atoms: C_2  and  C_3
REMARK    3  A    between atoms: C_2  and  C_4
REMARK    4  A    between atoms: C_2  and  C_5
REMARK    5  A    between atoms: C_8  and  C_9
REMARK    6  A    between atoms: C_12  and  N_13
REMARK    7  A    between atoms: N_16  and  C_17
REMARK                            x       y       z     vdW  Elec       q    Type
REMARK                         _______ _______ _______ _____ _____    ______ ____
ROOT
ATOM      1  C   UNL     1       4.648   4.867  18.180  0.00  0.00    +0.000 A 
ATOM      2  C   UNL     1       5.026   3.686  18.897  0.00  0.00    +0.000 A 
ATOM      3  C   UNL     1       4.227   3.081  19.869  0.00  0.00    +0.000 A 
ATOM      4  C   UNL     1       2.999   3.630  20.164  0.00  0.00    +0.000 A 
ATOM      5  C   UNL     1       2.586   4.775  19.480  0.00  0.00    +0.000 A 
ATOM      6  C   UNL     1       3.390   5.430  18.516  0.00  0.00    +0.000 A 
ENDROOT
BRANCH   6   7
ATOM      7  N   UNL     1       2.892   6.621  17.921  0.00  0.00    +0.000 N 
ATOM      8  C   UNL     1       2.321   7.692  18.594  0.00  0.00    +0.000 C 
ATOM      9  O   UNL     1       2.255   7.771  19.818  0.00  0.00    +0.000 OA
ATOM     10  N   UNL     1       1.852   8.659  17.724  0.00  0.00    +0.000 N 
ATOM     11  H   UNL     1       3.159   6.837  16.985  0.00  0.00    +0.000 HD
ATOM     12  H   UNL     1       1.715   8.386  16.761  0.00  0.00    +0.000 HD
BRANCH  10  13
ATOM     13  C   UNL     1       1.281   9.899  18.113  0.00  0.00    +0.000 A 
ATOM     14  C   UNL     1       2.040  11.056  18.314  0.00  0.00    +0.000 A 
ATOM     15  C   UNL     1       1.444  12.245  18.743  0.00  0.00    +0.000 A 
ATOM     16  C   UNL     1       0.073  12.295  18.957  0.00  0.00    +0.000 A 
ATOM     17  C   UNL     1      -0.703  11.160  18.729  0.00  0.00    +0.000 A 
ATOM     18  C   UNL     1      -0.103   9.968  18.304  0.00  0.00    +0.000 A 
ENDBRANCH  10  13
ENDBRANCH   6   7
BRANCH   1  20
ATOM     19  C   UNL     1       5.303   5.098  15.734  0.00  0.00    +0.000 C 
ATOM     20  C   UNL     1       5.730   5.396  17.199  0.00  0.00    +0.000 C 
ATOM     21  C   UNL     1       7.063   4.675  17.533  0.00  0.00    +0.000 C 
ATOM     22  C   UNL     1       6.071   6.902  17.189  0.00  0.00    +0.000 C 
ENDBRANCH   1  20
BRANCH   4  23
ATOM     23  C   UNL     1       2.163   3.041  21.168  0.00  0.00    +0.000 C 
ATOM     24  N   UNL     1       1.478   2.586  21.988  0.00  0.00    +0.000 NA
ENDBRANCH   4  23
TORSDOF 4
ENDMDL
MODEL 5
REMARK VINA RESULT:      -7.3      2.761      7.306
REMARK  Name = 
REMARK  7 active torsions:
REMARK  status: ('A' for Active; 'I' for Inactive)
REMARK    1  A    between atoms: C_1  and  C_2
REMARK    2  A    between atoms: C_2  and  C_3
REMARK    3  A    between atoms: C_2  and  C_4
REMARK    4  A    between atoms: C_2  and  C_5
REMARK    5  A    between atoms: C_8  and  C_9
REMARK    6  A    between atoms: C_12  and  N_13
REMARK    7  A    between atoms: N_16  and  C_17
REMARK                            x       y       z     vdW  Elec       q    Type
REMARK                         _______ _______ _______ _____ _____    ______ ____
ROOT
ATOM      1  C   UNL     1       2.778   4.388  19.602  0.00  0.00    +0.000 A 
ATOM      2  C   UNL     1       2.006   5.236  20.458  0.00  0.00    +0.000 A 
ATOM      3  C   UNL     1       1.774   6.589  20.204  0.00  0.00    +0.000 A 
ATOM      4  C   UNL     1       2.300   7.157  19.064  0.00  0.00    +0.000 A 
ATOM      5  C   UNL     1       3.049   6.362  18.195  0.00  0.00    +0.000 A 
ATOM      6  C   UNL     1       3.332   4.997  18.446  0.00  0.00    +0.000 A 
ENDROOT
BRANCH   6   7
ATOM      7  N   UNL     1       4.152   4.298  17.520  0.00  0.00    +0.000 N 
ATOM      8  C   UNL     1       4.724   4.830  16.374  0.00  0.00    +0.000 C 
ATOM      9  O   UNL     1       4.654   6.016  16.063  0.00  0.00    +0.000 OA
ATOM     10  N   UNL     1       5.391   3.869  15.634  0.00  0.00    +0.000 N 
ATOM     11  H   UNL     1       4.553   3.428  17.797  0.00  0.00    +0.000 HD
ATOM     12  H   UNL     1       5.169   2.902  15.828  0.00  0.00    +0.000 HD
BRANCH  10  13
ATOM     13  C   UNL     1       6.131   4.120  14.450  0.00  0.00    +0.000 A 
ATOM     14  C   UNL     1       7.236   4.977  14.411  0.00  0.00    +0.000 A 
ATOM     15  C   UNL     1       7.908   5.233  13.214  0.00  0.00    +0.000 A 
ATOM     16  C   UNL     1       7.496   4.616  12.040  0.00  0.00    +0.000 A 
ATOM     17  C   UNL     1       6.418   3.733  12.068  0.00  0.00    +0.000 A 
ATOM     18  C   UNL     1       5.741   3.481  13.268  0.00  0.00    +0.000 A 
ENDBRANCH  10  13
ENDBRANCH   6   7
BRANCH   1  20
ATOM     19  C   UNL     1       2.175   1.946  19.221  0.00  0.00    +0.000 C 
ATOM     20  C   UNL     1       2.959   2.938  20.129  0.00  0.00    +0.000 C 
ATOM     21  C   UNL     1       2.413   2.891  21.581  0.00  0.00    +0.000 C 
ATOM     22  C   UNL     1       4.377   2.331  20.205  0.00  0.00    +0.000 C 
ENDBRANCH   1  20
BRANCH   4  23
ATOM     23  C   UNL     1       2.093   8.547  18.784  0.00  0.00    +0.000 C 
ATOM     24  N   UNL     1       1.913   9.675  18.577  0.00  0.00    +0.000 NA
ENDBRANCH   4  23
TORSDOF 4
ENDMDL
MODEL 6
REMARK VINA RESULT:      -7.2      1.681      1.886
REMARK  Name = 
REMARK  7 active torsions:
REMARK  status: ('A' for Active; 'I' for Inactive)
REMARK    1  A    between atoms: C_1  and  C_2
REMARK    2  A    between atoms: C_2  and  C_3
REMARK    3  A    between atoms: C_2  and  C_4
REMARK    4  A    between atoms: C_2  and  C_5
REMARK    5  A    between atoms: C_8  and  C_9
REMARK    6  A    between atoms: C_12  and  N_13
REMARK    7  A    between atoms: N_16  and  C_17
REMARK                            x       y       z     vdW  Elec       q    Type
REMARK                         _______ _______ _______ _____ _____    ______ ____
ROOT
ATOM      1  C   UNL     1       3.141   4.518  18.954  0.00  0.00    +0.000 A 
ATOM      2  C   UNL     1       4.024   3.605  18.293  0.00  0.00    +0.000 A 
ATOM      3  C   UNL     1       5.124   4.005  17.533  0.00  0.00    +0.000 A 
ATOM      4  C   UNL     1       5.399   5.349  17.407  0.00  0.00    +0.000 A 
ATOM      5  C   UNL     1       4.570   6.273  18.046  0.00  0.00    +0.000 A 
ATOM      6  C   UNL     1       3.427   5.898  18.793  0.00  0.00    +0.000 A 
ENDROOT
BRANCH   6   7
ATOM      7  N   UNL     1       2.623   6.926  19.354  0.00  0.00    +0.000 N 
ATOM      8  C   UNL     1       2.138   8.040  18.685  0.00  0.00    +0.000 C 
ATOM      9  O   UNL     1       2.281   8.228  17.480  0.00  0.00    +0.000 OA
ATOM     10  N   UNL     1       1.464   8.901  19.533  0.00  0.00    +0.000 N 
ATOM     11  H   UNL     1       2.166   6.756  20.224  0.00  0.00    +0.000 HD
ATOM     12  H   UNL     1       1.628   8.794  20.524  0.00  0.00    +0.000 HD
BRANCH  10  13
ATOM     13  C   UNL     1       0.799  10.088  19.130  0.00  0.00    +0.000 A 
ATOM     14  C   UNL     1       1.416  11.343  19.132  0.00  0.00    +0.000 A 
ATOM     15  C   UNL     1       0.711  12.495  18.773  0.00  0.00    +0.000 A 
ATOM     16  C   UNL     1      -0.619  12.401  18.385  0.00  0.00    +0.000 A 
ATOM     17  C   UNL     1      -1.239  11.154  18.345  0.00  0.00    +0.000 A 
ATOM     18  C   UNL     1      -0.533  10.001  18.710  0.00  0.00    +0.000 A 
ENDBRANCH  10  13
ENDBRANCH   6   7
BRANCH   1  20
ATOM     19  C   UNL     1       2.476   2.834  20.741  0.00  0.00    +0.000 C 
ATOM     20  C   UNL     1       1.946   3.842  19.681  0.00  0.00    +0.000 C 
ATOM     21  C   UNL     1       1.097   3.105  18.610  0.00  0.00    +0.000 C 
ATOM     22  C   UNL     1       0.944   4.716  20.466  0.00  0.00    +0.000 C 
ENDBRANCH   1  20
BRANCH   4  23
ATOM     23  C   UNL     1       6.512   5.792  16.620  0.00  0.00    +0.000 C 
ATOM     24  N   UNL     1       7.401   6.170  15.976  0.00  0.00    +0.000 NA
ENDBRANCH   4  23
TORSDOF 4
ENDMDL
MODEL 7
REMARK VINA RESULT:      -7.2      1.547      1.831
REMARK  Name = 
REMARK  7 active torsions:
REMARK  status: ('A' for Active; 'I' for Inactive)
REMARK    1  A    between atoms: C_1  and  C_2
REMARK    2  A    between atoms: C_2  and  C_3
REMARK    3  A    between atoms: C_2  and  C_4
REMARK    4  A    between atoms: C_2  and  C_5
REMARK    5  A    between atoms: C_8  and  C_9
REMARK    6  A    between atoms: C_12  and  N_13
REMARK    7  A    between atoms: N_16  and  C_17
REMARK                            x       y       z     vdW  Elec       q    Type
REMARK                         _______ _______ _______ _____ _____    ______ ____
ROOT
ATOM      1  C   UNL     1       3.135   4.500  19.018  0.00  0.00    +0.000 A 
ATOM      2  C   UNL     1       3.981   3.585  18.314  0.00  0.00    +0.000 A 
ATOM      3  C   UNL     1       5.058   3.981  17.518  0.00  0.00    +0.000 A 
ATOM      4  C   UNL     1       5.345   5.323  17.399  0.00  0.00    +0.000 A 
ATOM      5  C   UNL     1       4.553   6.249  18.079  0.00  0.00    +0.000 A 
ATOM      6  C   UNL     1       3.433   5.879  18.863  0.00  0.00    +0.000 A 
ENDROOT
BRANCH   6   7
ATOM      7  N   UNL     1       2.663   6.909  19.466  0.00  0.00    +0.000 N 
ATOM      8  C   UNL     1       2.089   7.989  18.811  0.00  0.00    +0.000 C 
ATOM      9  O   UNL     1       2.111   8.137  17.593  0.00  0.00    +0.000 OA
ATOM     10  N   UNL     1       1.481   8.866  19.692  0.00  0.00    +0.000 N 
ATOM     11  H   UNL     1       2.297   6.761  20.382  0.00  0.00    +0.000 HD
ATOM     12  H   UNL     1       1.743   8.797  20.666  0.00  0.00    +0.000 HD
BRANCH  10  13
ATOM     13  C   UNL     1       0.752  10.024  19.317  0.00  0.00    +0.000 A 
ATOM     14  C   UNL     1      -0.634  10.023  19.130  0.00  0.00    +0.000 A 
ATOM     15  C   UNL     1      -1.307  11.175  18.714  0.00  0.00    +0.000 A 
ATOM     16  C   UNL     1      -0.601  12.352  18.501  0.00  0.00    +0.000 A 
ATOM     17  C   UNL     1       0.776  12.379  18.716  0.00  0.00    +0.000 A 
ATOM     18  C   UNL     1       1.450  11.222  19.128  0.00  0.00    +0.000 A 
ENDBRANCH  10  13
ENDBRANCH   6   7
BRANCH   1  20
ATOM     19  C   UNL     1       2.514   2.947  20.934  0.00  0.00    +0.000 C 
ATOM     20  C   UNL     1       1.958   3.830  19.780  0.00  0.00    +0.000 C 
ATOM     21  C   UNL     1       1.172   2.960  18.763  0.00  0.00    +0.000 C 
ATOM     22  C   UNL     1       0.898   4.718  20.466  0.00  0.00    +0.000 C 
ENDBRANCH   1  20
BRANCH   4  23
ATOM     23  C   UNL     1       6.434   5.762  16.577  0.00  0.00    +0.000 C 
ATOM     24  N   UNL     1       7.306   6.107  15.893  0.00  0.00    +0.000 NA
ENDBRANCH   4  23
TORSDOF 4
ENDMDL
MODEL 8
REMARK VINA RESULT:      -7.1      2.759      7.273
REMARK  Name = 
REMARK  7 active torsions:
REMARK  status: ('A' for Active; 'I' for Inactive)
REMARK    1  A    between atoms: C_1  and  C_2
REMARK    2  A    between atoms: C_2  and  C_3
REMARK    3  A    between atoms: C_2  and  C_4
REMARK    4  A    between atoms: C_2  and  C_5
REMARK    5  A    between atoms: C_8  and  C_9
REMARK    6  A    between atoms: C_12  and  N_13
REMARK    7  A    between atoms: N_16  and  C_17
REMARK                            x       y       z     vdW  Elec       q    Type
REMARK                         _______ _______ _______ _____ _____    ______ ____
ROOT
ATOM      1  C   UNL     1       2.717   4.397  19.604  0.00  0.00    +0.000 A 
ATOM      2  C   UNL     1       2.016   5.260  20.506  0.00  0.00    +0.000 A 
ATOM      3  C   UNL     1       1.782   6.613  20.259  0.00  0.00    +0.000 A 
ATOM      4  C   UNL     1       2.235   7.168  19.082  0.00  0.00    +0.000 A 
ATOM      5  C   UNL     1       2.913   6.359  18.169  0.00  0.00    +0.000 A 
ATOM      6  C   UNL     1       3.197   4.993  18.408  0.00  0.00    +0.000 A 
ENDROOT
BRANCH   6   7
ATOM      7  N   UNL     1       3.943   4.279  17.433  0.00  0.00    +0.000 N 
ATOM      8  C   UNL     1       4.605   4.832  16.347  0.00  0.00    +0.000 C 
ATOM      9  O   UNL     1       4.695   6.040  16.146  0.00  0.00    +0.000 OA
ATOM     10  N   UNL     1       5.162   3.863  15.531  0.00  0.00    +0.000 N 
ATOM     11  H   UNL     1       4.223   3.343  17.634  0.00  0.00    +0.000 HD
ATOM     12  H   UNL     1       4.814   2.919  15.633  0.00  0.00    +0.000 HD
BRANCH  10  13
ATOM     13  C   UNL     1       5.957   4.120  14.384  0.00  0.00    +0.000 A 
ATOM     14  C   UNL     1       5.695   3.549  13.134  0.00  0.00    +0.000 A 
ATOM     15  C   UNL     1       6.530   3.791  12.041  0.00  0.00    +0.000 A 
ATOM     16  C   UNL     1       7.630   4.628  12.180  0.00  0.00    +0.000 A 
ATOM     17  C   UNL     1       7.886   5.231  13.410  0.00  0.00    +0.000 A 
ATOM     18  C   UNL     1       7.050   4.983  14.507  0.00  0.00    +0.000 A 
ENDBRANCH  10  13
ENDBRANCH   6   7
BRANCH   1  20
ATOM     19  C   UNL     1       2.125   1.951  19.233  0.00  0.00    +0.000 C 
ATOM     20  C   UNL     1       2.918   2.948  20.127  0.00  0.00    +0.000 C 
ATOM     21  C   UNL     1       2.398   2.897  21.588  0.00  0.00    +0.000 C 
ATOM     22  C   UNL     1       4.341   2.351  20.177  0.00  0.00    +0.000 C 
ENDBRANCH   1  20
BRANCH   4  23
ATOM     23  C   UNL     1       2.024   8.559  18.807  0.00  0.00    +0.000 C 
ATOM     24  N   UNL     1       1.858   9.681  18.561  0.00  0.00    +0.000 NA
ENDBRANCH   4  23
TORSDOF 4
ENDMDL
MODEL 9
REMARK VINA RESULT:      -7.1      0.884      1.491
REMARK  Name = 
REMARK  7 active torsions:
REMARK  status: ('A' for Active; 'I' for Inactive)
REMARK    1  A    between atoms: C_1  and  C_2
REMARK    2  A    between atoms: C_2  and  C_3
REMARK    3  A    between atoms: C_2  and  C_4
REMARK    4  A    between atoms: C_2  and  C_5
REMARK    5  A    between atoms: C_8  and  C_9
REMARK    6  A    between atoms: C_12  and  N_13
REMARK    7  A    between atoms: N_16  and  C_17
REMARK                            x       y       z     vdW  Elec       q    Type
REMARK                         _______ _______ _______ _____ _____    ______ ____
ROOT
ATOM      1  C   UNL     1       3.224   4.167  19.434  0.00  0.00    +0.000 A 
ATOM      2  C   UNL     1       4.112   3.401  18.612  0.00  0.00    +0.000 A 
ATOM      3  C   UNL     1       5.144   3.960  17.857  0.00  0.00    +0.000 A 
ATOM      4  C   UNL     1       5.344   5.322  17.898  0.00  0.00    +0.000 A 
ATOM      5  C   UNL     1       4.508   6.105  18.696  0.00  0.00    +0.000 A 
ATOM      6  C   UNL     1       3.431   5.571  19.444  0.00  0.00    +0.000 A 
ENDROOT
BRANCH   6   7
ATOM      7  N   UNL     1       2.610   6.468  20.178  0.00  0.00    +0.000 N 
ATOM      8  C   UNL     1       2.083   7.663  19.707  0.00  0.00    +0.000 C 
ATOM      9  O   UNL     1       2.199   8.050  18.548  0.00  0.00    +0.000 OA
ATOM     10  N   UNL     1       1.402   8.353  20.695  0.00  0.00    +0.000 N 
ATOM     11  H   UNL     1       2.174   6.145  21.014  0.00  0.00    +0.000 HD
ATOM     12  H   UNL     1       1.588   8.090  21.653  0.00  0.00    +0.000 HD
BRANCH  10  13
ATOM     13  C   UNL     1       0.698   9.570  20.502  0.00  0.00    +0.000 A 
ATOM     14  C   UNL     1       0.994  10.739  21.210  0.00  0.00    +0.000 A 
ATOM     15  C   UNL     1       0.245  11.904  21.024  0.00  0.00    +0.000 A 
ATOM     16  C   UNL     1      -0.798  11.919  20.108  0.00  0.00    +0.000 A 
ATOM     17  C   UNL     1      -1.084  10.772  19.369  0.00  0.00    +0.000 A 
ATOM     18  C   UNL     1      -0.336   9.604  19.561  0.00  0.00    +0.000 A 
ENDBRANCH  10  13
ENDBRANCH   6   7
BRANCH   1  20
ATOM     19  C   UNL     1       1.901   1.996  19.358  0.00  0.00    +0.000 C 
ATOM     20  C   UNL     1       2.108   3.334  20.123  0.00  0.00    +0.000 C 
ATOM     21  C   UNL     1       0.806   4.178  20.100  0.00  0.00    +0.000 C 
ATOM     22  C   UNL     1       2.288   2.899  21.594  0.00  0.00    +0.000 C 
ENDBRANCH   1  20
BRANCH   4  23
ATOM     23  C   UNL     1       6.385   5.927  17.122  0.00  0.00    +0.000 C 
ATOM     24  N   UNL     1       7.245   6.401  16.502  0.00  0.00    +0.000 NA
ENDBRANCH   4  23
TORSDOF 4
ENDMDL
