MODEL 1
REMARK VINA RESULT:      -7.6      0.000      0.000
REMARK  Name = 
REMARK  9 active torsions:
REMARK  status: ('A' for Active; 'I' for Inactive)
REMARK    1  A    between atoms: C_1  and  O_2
REMARK    2  A    between atoms: O_2  and  C_3
REMARK    3  A    between atoms: C_3  and  C_5
REMARK    4  A    between atoms: C_6  and  C_7
REMARK    5  A    between atoms: C_11  and  C_12
REMARK    6  A    between atoms: N_23  and  C_24
REMARK    7  A    between atoms: C_24  and  C_25
REMARK    8  A    between atoms: C_27  and  C_28
REMARK    9  A    between atoms: C_30  and  C_31
REMARK                            x       y       z     vdW  Elec       q    Type
REMARK                         _______ _______ _______ _____ _____    ______ ____
ROOT
ATOM      1  C   UNL     1      -2.622  11.562  18.661  0.00  0.00    +0.000 C 
ATOM      2  C   UNL     1      -3.299  12.305  19.578  0.00  0.00    +0.000 C 
ATOM      3  C   UNL     1      -2.538  13.169  20.589  0.00  0.00    +0.000 C 
ATOM      4  C   UNL     1      -1.012  13.178  20.321  0.00  0.00    +0.000 C 
ATOM      5  C   UNL     1      -0.690  13.977  19.046  0.00  0.00    +0.000 C 
ATOM      6  C   UNL     1      -0.690  12.932  17.913  0.00  0.00    +0.000 C 
ATOM      7  C   UNL     1      -1.102  11.619  18.598  0.00  0.00    +0.000 C 
ATOM      8  N   UNL     1      -0.614  11.827  19.954  0.00  0.00    +0.000 N 
ATOM      9  C   UNL     1       0.002  10.987  20.837  0.00  0.00    +0.000 C 
ATOM     10  O   UNL     1       0.343  11.361  21.955  0.00  0.00    +0.000 OA
ATOM     11  N   UNL     1       0.266   9.720  20.396  0.00  0.00    +0.000 N 
ATOM     12  H   UNL     1      -0.190   9.362  19.572  0.00  0.00    +0.000 HD
ENDROOT
BRANCH   2  13
ATOM     13  C   UNL     1      -4.764  12.372  19.699  0.00  0.00    +0.000 A 
ATOM     14  C   UNL     1      -5.548  12.786  18.614  0.00  0.00    +0.000 A 
ATOM     15  C   UNL     1      -6.934  12.916  18.752  0.00  0.00    +0.000 A 
ATOM     16  C   UNL     1      -7.546  12.621  19.971  0.00  0.00    +0.000 A 
ATOM     17  C   UNL     1      -6.772  12.187  21.055  0.00  0.00    +0.000 A 
ATOM     18  C   UNL     1      -5.384  12.064  20.917  0.00  0.00    +0.000 A 
BRANCH  17  19
ATOM     19  C   UNL     1      -7.393  11.905  22.312  0.00  0.00    +0.000 C 
ATOM     20  N   UNL     1      -7.888  11.696  23.347  0.00  0.00    +0.000 NA
ENDBRANCH  17  19
ENDBRANCH   2  13
BRANCH   1  21
ATOM     21  C   UNL     1      -3.291  10.682  17.662  0.00  0.00    +0.000 C 
ATOM     22  O   UNL     1      -3.604   9.516  17.845  0.00  0.00    +0.000 OA
BRANCH  21  24
ATOM     23  C   UNL     1      -2.917  10.733  15.352  0.00  0.00    +0.000 C 
ATOM     24  O   UNL     1      -3.484  11.366  16.502  0.00  0.00    +0.000 OA
ENDBRANCH  21  24
ENDBRANCH   1  21
BRANCH  11  25
ATOM     25  C   UNL     1       0.961   8.771  21.246  0.00  0.00    +0.000 C 
BRANCH  25  26
ATOM     26  C   UNL     1       1.554   7.676  20.421  0.00  0.00    +0.000 A 
ATOM     27  C   UNL     1       1.805   6.331  20.830  0.00  0.00    +0.000 A 
ATOM     28  C   UNL     1       2.340   5.672  19.744  0.00  0.00    +0.000 A 
ATOM     29  C   UNL     1       2.781   4.279  19.513  0.00  0.00    +0.000 C 
ATOM     30  O   UNL     1       2.454   6.527  18.694  0.00  0.00    +0.000 OA
ATOM     31  C   UNL     1       1.973   7.742  19.098  0.00  0.00    +0.000 A 
BRANCH  31  32
ATOM     32  C   UNL     1       1.962   8.828  18.087  0.00  0.00    +0.000 C 
ATOM     33  F   UNL     1       2.412  10.009  18.599  0.00  0.00    +0.000 F 
ATOM     34  F   UNL     1       2.749   8.553  17.016  0.00  0.00    +0.000 F 
ATOM     35  F   UNL     1       0.713   9.079  17.615  0.00  0.00    +0.000 F 
ENDBRANCH  31  32
ENDBRANCH  25  26
ENDBRANCH  11  25
TORSDOF 7
ENDMDL
MODEL 2
REMARK VINA RESULT:      -7.5      2.112      2.424
REMARK  Name = 
REMARK  9 active torsions:
REMARK  status: ('A' for Active; 'I' for Inactive)
REMARK    1  A    between atoms: C_1  and  O_2
REMARK    2  A    between atoms: O_2  and  C_3
REMARK    3  A    between atoms: C_3  and  C_5
REMARK    4  A    between atoms: C_6  and  C_7
REMARK    5  A    between atoms: C_11  and  C_12
REMARK    6  A    between atoms: N_23  and  C_24
REMARK    7  A    between atoms: C_24  and  C_25
REMARK    8  A    between atoms: C_27  and  C_28
REMARK    9  A    between atoms: C_30  and  C_31
REMARK                            x       y       z     vdW  Elec       q    Type
REMARK                         _______ _______ _______ _____ _____    ______ ____
ROOT
ATOM      1  C   UNL     1      -1.878  11.459  18.821  0.00  0.00    +0.000 C 
ATOM      2  C   UNL     1      -2.421  12.116  19.881  0.00  0.00    +0.000 C 
ATOM      3  C   UNL     1      -1.518  12.724  20.960  0.00  0.00    +0.000 C 
ATOM      4  C   UNL     1      -0.016  12.610  20.599  0.00  0.00    +0.000 C 
ATOM      5  C   UNL     1       0.336  13.561  19.441  0.00  0.00    +0.000 C 
ATOM      6  C   UNL     1       0.162  12.714  18.166  0.00  0.00    +0.000 C 
ATOM      7  C   UNL     1      -0.367  11.361  18.669  0.00  0.00    +0.000 C 
ATOM      8  N   UNL     1       0.204  11.300  20.007  0.00  0.00    +0.000 N 
ATOM      9  C   UNL     1       0.760  10.269  20.711  0.00  0.00    +0.000 C 
ATOM     10  O   UNL     1       1.194  10.424  21.849  0.00  0.00    +0.000 OA
ATOM     11  N   UNL     1       0.853   9.066  20.068  0.00  0.00    +0.000 N 
ATOM     12  H   UNL     1       0.322   8.894  19.230  0.00  0.00    +0.000 HD
ENDROOT
BRANCH   2  13
ATOM     13  C   UNL     1      -3.861  12.320  20.105  0.00  0.00    +0.000 A 
ATOM     14  C   UNL     1      -4.740  12.434  19.019  0.00  0.00    +0.000 A 
ATOM     15  C   UNL     1      -6.097  12.697  19.232  0.00  0.00    +0.000 A 
ATOM     16  C   UNL     1      -6.586  12.836  20.531  0.00  0.00    +0.000 A 
ATOM     17  C   UNL     1      -5.719  12.704  21.623  0.00  0.00    +0.000 A 
ATOM     18  C   UNL     1      -4.360  12.447  21.408  0.00  0.00    +0.000 A 
BRANCH  17  19
ATOM     19  C   UNL     1      -6.214  12.868  22.956  0.00  0.00    +0.000 C 
ATOM     20  N   UNL     1      -6.602  13.023  24.043  0.00  0.00    +0.000 NA
ENDBRANCH  17  19
ENDBRANCH   2  13
BRANCH   1  21
ATOM     21  C   UNL     1      -2.691  10.825  17.745  0.00  0.00    +0.000 C 
ATOM     22  O   UNL     1      -3.323   9.785  17.857  0.00  0.00    +0.000 OA
BRANCH  21  24
ATOM     23  C   UNL     1      -3.449  11.101  15.548  0.00  0.00    +0.000 C 
ATOM     24  O   UNL     1      -2.610  11.566  16.608  0.00  0.00    +0.000 OA
ENDBRANCH  21  24
ENDBRANCH   1  21
BRANCH  11  25
ATOM     25  C   UNL     1       1.473   7.927  20.718  0.00  0.00    +0.000 C 
BRANCH  25  26
ATOM     26  C   UNL     1       2.240   7.118  19.723  0.00  0.00    +0.000 A 
ATOM     27  C   UNL     1       3.000   7.610  18.618  0.00  0.00    +0.000 A 
ATOM     28  C   UNL     1       3.548   6.515  17.986  0.00  0.00    +0.000 A 
ATOM     29  C   UNL     1       4.441   6.354  16.818  0.00  0.00    +0.000 C 
ATOM     30  O   UNL     1       3.163   5.375  18.618  0.00  0.00    +0.000 OA
ATOM     31  C   UNL     1       2.374   5.736  19.676  0.00  0.00    +0.000 A 
BRANCH  31  32
ATOM     32  C   UNL     1       1.870   4.641  20.540  0.00  0.00    +0.000 C 
ATOM     33  F   UNL     1       2.192   3.411  20.047  0.00  0.00    +0.000 F 
ATOM     34  F   UNL     1       2.379   4.692  21.797  0.00  0.00    +0.000 F 
ATOM     35  F   UNL     1       0.517   4.655  20.652  0.00  0.00    +0.000 F 
ENDBRANCH  31  32
ENDBRANCH  25  26
ENDBRANCH  11  25
TORSDOF 7
ENDMDL
MODEL 3
REMARK VINA RESULT:      -7.5      2.551      3.138
REMARK  Name = 
REMARK  9 active torsions:
REMARK  status: ('A' for Active; 'I' for Inactive)
REMARK    1  A    between atoms: C_1  and  O_2
REMARK    2  A    between atoms: O_2  and  C_3
REMARK    3  A    between atoms: C_3  and  C_5
REMARK    4  A    between atoms: C_6  and  C_7
REMARK    5  A    between atoms: C_11  and  C_12
REMARK    6  A    between atoms: N_23  and  C_24
REMARK    7  A    between atoms: C_24  and  C_25
REMARK    8  A    between atoms: C_27  and  C_28
REMARK    9  A    between atoms: C_30  and  C_31
REMARK                            x       y       z     vdW  Elec       q    Type
REMARK                         _______ _______ _______ _____ _____    ______ ____
ROOT
ATOM      1  C   UNL     1      -1.367  11.249  19.130  0.00  0.00    +0.000 C 
ATOM      2  C   UNL     1      -1.837  11.926  20.213  0.00  0.00    +0.000 C 
ATOM      3  C   UNL     1      -0.877  12.383  21.316  0.00  0.00    +0.000 C 
ATOM      4  C   UNL     1       0.604  12.108  20.956  0.00  0.00    +0.000 C 
ATOM      5  C   UNL     1       1.074  13.053  19.835  0.00  0.00    +0.000 C 
ATOM      6  C   UNL     1       0.810  12.279  18.529  0.00  0.00    +0.000 C 
ATOM      7  C   UNL     1       0.123  10.980  18.979  0.00  0.00    +0.000 C 
ATOM      8  N   UNL     1       0.674  10.803  20.315  0.00  0.00    +0.000 N 
ATOM      9  C   UNL     1       1.100   9.689  20.982  0.00  0.00    +0.000 C 
ATOM     10  O   UNL     1       1.541   9.750  22.126  0.00  0.00    +0.000 OA
ATOM     11  N   UNL     1       1.057   8.508  20.295  0.00  0.00    +0.000 N 
ATOM     12  H   UNL     1       0.514   8.430  19.449  0.00  0.00    +0.000 HD
ENDROOT
BRANCH   2  13
ATOM     13  C   UNL     1      -3.245  12.289  20.441  0.00  0.00    +0.000 A 
ATOM     14  C   UNL     1      -3.699  12.597  21.730  0.00  0.00    +0.000 A 
ATOM     15  C   UNL     1      -5.052  12.874  21.956  0.00  0.00    +0.000 A 
ATOM     16  C   UNL     1      -5.955  12.856  20.893  0.00  0.00    +0.000 A 
ATOM     17  C   UNL     1      -5.506  12.569  19.598  0.00  0.00    +0.000 A 
ATOM     18  C   UNL     1      -4.153  12.286  19.375  0.00  0.00    +0.000 A 
BRANCH  17  19
ATOM     19  C   UNL     1      -6.434  12.529  18.509  0.00  0.00    +0.000 C 
ATOM     20  N   UNL     1      -7.184  12.521  17.617  0.00  0.00    +0.000 NA
ENDBRANCH  17  19
ENDBRANCH   2  13
BRANCH   1  21
ATOM     21  C   UNL     1      -2.241  10.754  18.029  0.00  0.00    +0.000 C 
ATOM     22  O   UNL     1      -2.866   9.705  18.041  0.00  0.00    +0.000 OA
BRANCH  21  24
ATOM     23  C   UNL     1      -2.737  11.109  15.770  0.00  0.00    +0.000 C 
ATOM     24  O   UNL     1      -2.225  11.637  16.996  0.00  0.00    +0.000 OA
ENDBRANCH  21  24
ENDBRANCH   1  21
BRANCH  11  25
ATOM     25  C   UNL     1       1.534   7.281  20.903  0.00  0.00    +0.000 C 
BRANCH  25  26
ATOM     26  C   UNL     1       2.289   6.467  19.903  0.00  0.00    +0.000 A 
ATOM     27  C   UNL     1       3.020   6.952  18.776  0.00  0.00    +0.000 A 
ATOM     28  C   UNL     1       3.567   5.855  18.147  0.00  0.00    +0.000 A 
ATOM     29  C   UNL     1       4.437   5.688  16.963  0.00  0.00    +0.000 C 
ATOM     30  O   UNL     1       3.208   4.720  18.802  0.00  0.00    +0.000 OA
ATOM     31  C   UNL     1       2.437   5.087  19.871  0.00  0.00    +0.000 A 
BRANCH  31  32
ATOM     32  C   UNL     1       1.963   3.998  20.760  0.00  0.00    +0.000 C 
ATOM     33  F   UNL     1       2.434   2.779  20.371  0.00  0.00    +0.000 F 
ATOM     34  F   UNL     1       2.357   4.165  22.047  0.00  0.00    +0.000 F 
ATOM     35  F   UNL     1       0.609   3.889  20.764  0.00  0.00    +0.000 F 
ENDBRANCH  31  32
ENDBRANCH  25  26
ENDBRANCH  11  25
TORSDOF 7
ENDMDL
MODEL 4
REMARK VINA RESULT:      -7.4      4.113      6.404
REMARK  Name = 
REMARK  9 active torsions:
REMARK  status: ('A' for Active; 'I' for Inactive)
REMARK    1  A    between atoms: C_1  and  O_2
REMARK    2  A    between atoms: O_2  and  C_3
REMARK    3  A    between atoms: C_3  and  C_5
REMARK    4  A    between atoms: C_6  and  C_7
REMARK    5  A    between atoms: C_11  and  C_12
REMARK    6  A    between atoms: N_23  and  C_24
REMARK    7  A    between atoms: C_24  and  C_25
REMARK    8  A    between atoms: C_27  and  C_28
REMARK    9  A    between atoms: C_30  and  C_31
REMARK                            x       y       z     vdW  Elec       q    Type
REMARK                         _______ _______ _______ _____ _____    ______ ____
ROOT
ATOM      1  C   UNL     1       0.608  10.813  20.832  0.00  0.00    +0.000 C 
ATOM      2  C   UNL     1       1.058  11.936  20.209  0.00  0.00    +0.000 C 
ATOM      3  C   UNL     1       1.099  12.008  18.679  0.00  0.00    +0.000 C 
ATOM      4  C   UNL     1       0.458  10.763  18.016  0.00  0.00    +0.000 C 
ATOM      5  C   UNL     1      -1.069  10.774  18.206  0.00  0.00    +0.000 C 
ATOM      6  C   UNL     1      -1.312   9.973  19.500  0.00  0.00    +0.000 C 
ATOM      7  C   UNL     1       0.096   9.634  20.016  0.00  0.00    +0.000 C 
ATOM      8  N   UNL     1       0.862   9.592  18.779  0.00  0.00    +0.000 N 
ATOM      9  C   UNL     1       1.850   8.751  18.351  0.00  0.00    +0.000 C 
ATOM     10  O   UNL     1       2.379   8.884  17.252  0.00  0.00    +0.000 OA
ATOM     11  N   UNL     1       2.187   7.724  19.187  0.00  0.00    +0.000 N 
ATOM     12  H   UNL     1       1.902   7.739  20.153  0.00  0.00    +0.000 HD
ENDROOT
BRANCH   2  13
ATOM     13  C   UNL     1       1.526  13.153  20.890  0.00  0.00    +0.000 A 
ATOM     14  C   UNL     1       0.608  14.091  21.381  0.00  0.00    +0.000 A 
ATOM     15  C   UNL     1       1.054  15.280  21.965  0.00  0.00    +0.000 A 
ATOM     16  C   UNL     1       2.422  15.534  22.074  0.00  0.00    +0.000 A 
ATOM     17  C   UNL     1       3.347  14.593  21.606  0.00  0.00    +0.000 A 
ATOM     18  C   UNL     1       2.898  13.406  21.015  0.00  0.00    +0.000 A 
BRANCH  17  19
ATOM     19  C   UNL     1       4.750  14.860  21.697  0.00  0.00    +0.000 C 
ATOM     20  N   UNL     1       5.888  15.103  21.771  0.00  0.00    +0.000 NA
ENDBRANCH  17  19
ENDBRANCH   2  13
BRANCH   1  21
ATOM     21  C   UNL     1       0.559  10.661  22.314  0.00  0.00    +0.000 C 
ATOM     22  O   UNL     1       1.186   9.836  22.960  0.00  0.00    +0.000 OA
BRANCH  21  24
ATOM     23  C   UNL     1      -1.598  11.029  23.143  0.00  0.00    +0.000 C 
ATOM     24  O   UNL     1      -0.308  11.565  22.841  0.00  0.00    +0.000 OA
ENDBRANCH  21  24
ENDBRANCH   1  21
BRANCH  11  25
ATOM     25  C   UNL     1       3.191   6.752  18.796  0.00  0.00    +0.000 C 
BRANCH  25  26
ATOM     26  C   UNL     1       2.873   5.416  19.384  0.00  0.00    +0.000 A 
ATOM     27  C   UNL     1       2.035   5.148  20.510  0.00  0.00    +0.000 A 
ATOM     28  C   UNL     1       2.015   3.781  20.683  0.00  0.00    +0.000 A 
ATOM     29  C   UNL     1       1.327   2.885  21.637  0.00  0.00    +0.000 C 
ATOM     30  O   UNL     1       2.801   3.185  19.747  0.00  0.00    +0.000 OA
ATOM     31  C   UNL     1       3.318   4.172  18.954  0.00  0.00    +0.000 A 
BRANCH  31  32
ATOM     32  C   UNL     1       4.181   3.742  17.827  0.00  0.00    +0.000 C 
ATOM     33  F   UNL     1       5.501   3.983  18.071  0.00  0.00    +0.000 F 
ATOM     34  F   UNL     1       4.080   2.413  17.568  0.00  0.00    +0.000 F 
ATOM     35  F   UNL     1       3.890   4.400  16.674  0.00  0.00    +0.000 F 
ENDBRANCH  31  32
ENDBRANCH  25  26
ENDBRANCH  11  25
TORSDOF 7
ENDMDL
MODEL 5
REMARK VINA RESULT:      -7.4      2.512      3.177
REMARK  Name = 
REMARK  9 active torsions:
REMARK  status: ('A' for Active; 'I' for Inactive)
REMARK    1  A    between atoms: C_1  and  O_2
REMARK    2  A    between atoms: O_2  and  C_3
REMARK    3  A    between atoms: C_3  and  C_5
REMARK    4  A    between atoms: C_6  and  C_7
REMARK    5  A    between atoms: C_11  and  C_12
REMARK    6  A    between atoms: N_23  and  C_24
REMARK    7  A    between atoms: C_24  and  C_25
REMARK    8  A    between atoms: C_27  and  C_28
REMARK    9  A    between atoms: C_30  and  C_31
REMARK                            x       y       z     vdW  Elec       q    Type
REMARK                         _______ _______ _______ _____ _____    ______ ____
ROOT
ATOM      1  C   UNL     1      -0.886  11.654  19.123  0.00  0.00    +0.000 C 
ATOM      2  C   UNL     1      -1.354  12.319  20.214  0.00  0.00    +0.000 C 
ATOM      3  C   UNL     1      -0.434  12.590  21.409  0.00  0.00    +0.000 C 
ATOM      4  C   UNL     1       1.028  12.159  21.133  0.00  0.00    +0.000 C 
ATOM      5  C   UNL     1       1.688  13.104  20.114  0.00  0.00    +0.000 C 
ATOM      6  C   UNL     1       1.437  12.446  18.743  0.00  0.00    +0.000 C 
ATOM      7  C   UNL     1       0.571  11.216  19.057  0.00  0.00    +0.000 C 
ATOM      8  N   UNL     1       0.993  10.895  20.413  0.00  0.00    +0.000 N 
ATOM      9  C   UNL     1       1.234   9.701  21.031  0.00  0.00    +0.000 C 
ATOM     10  O   UNL     1       1.590   9.640  22.204  0.00  0.00    +0.000 OA
ATOM     11  N   UNL     1       1.105   8.576  20.264  0.00  0.00    +0.000 N 
ATOM     12  H   UNL     1       0.624   8.614  19.380  0.00  0.00    +0.000 HD
ENDROOT
BRANCH   2  13
ATOM     13  C   UNL     1      -2.724  12.836  20.368  0.00  0.00    +0.000 A 
ATOM     14  C   UNL     1      -2.942  14.139  20.835  0.00  0.00    +0.000 A 
ATOM     15  C   UNL     1      -4.243  14.606  21.047  0.00  0.00    +0.000 A 
ATOM     16  C   UNL     1      -5.334  13.777  20.782  0.00  0.00    +0.000 A 
ATOM     17  C   UNL     1      -5.125  12.481  20.295  0.00  0.00    +0.000 A 
ATOM     18  C   UNL     1      -3.822  12.013  20.090  0.00  0.00    +0.000 A 
BRANCH  17  19
ATOM     19  C   UNL     1      -6.241  11.621  20.043  0.00  0.00    +0.000 C 
ATOM     20  N   UNL     1      -7.136  10.901  19.848  0.00  0.00    +0.000 NA
ENDBRANCH  17  19
ENDBRANCH   2  13
BRANCH   1  21
ATOM     21  C   UNL     1      -1.725  11.335  17.934  0.00  0.00    +0.000 C 
ATOM     22  O   UNL     1      -2.005  12.116  17.037  0.00  0.00    +0.000 OA
BRANCH  21  24
ATOM     23  C   UNL     1      -3.217   9.735  17.101  0.00  0.00    +0.000 C 
ATOM     24  O   UNL     1      -2.152  10.046  18.004  0.00  0.00    +0.000 OA
ENDBRANCH  21  24
ENDBRANCH   1  21
BRANCH  11  25
ATOM     25  C   UNL     1       1.388   7.266  20.820  0.00  0.00    +0.000 C 
BRANCH  25  26
ATOM     26  C   UNL     1       2.206   6.464  19.862  0.00  0.00    +0.000 A 
ATOM     27  C   UNL     1       2.969   6.957  18.760  0.00  0.00    +0.000 A 
ATOM     28  C   UNL     1       3.573   5.868  18.167  0.00  0.00    +0.000 A 
ATOM     29  C   UNL     1       4.495   5.713  17.021  0.00  0.00    +0.000 C 
ATOM     30  O   UNL     1       3.219   4.731  18.821  0.00  0.00    +0.000 OA
ATOM     31  C   UNL     1       2.395   5.087  19.853  0.00  0.00    +0.000 A 
BRANCH  31  32
ATOM     32  C   UNL     1       1.916   3.995  20.736  0.00  0.00    +0.000 C 
ATOM     33  F   UNL     1       2.351   2.772  20.319  0.00  0.00    +0.000 F 
ATOM     34  F   UNL     1       2.342   4.134  22.017  0.00  0.00    +0.000 F 
ATOM     35  F   UNL     1       0.560   3.916  20.768  0.00  0.00    +0.000 F 
ENDBRANCH  31  32
ENDBRANCH  25  26
ENDBRANCH  11  25
TORSDOF 7
ENDMDL
MODEL 6
REMARK VINA RESULT:      -7.3      2.603      3.046
REMARK  Name = 
REMARK  9 active torsions:
REMARK  status: ('A' for Active; 'I' for Inactive)
REMARK    1  A    between atoms: C_1  and  O_2
REMARK    2  A    between atoms: O_2  and  C_3
REMARK    3  A    between atoms: C_3  and  C_5
REMARK    4  A    between atoms: C_6  and  C_7
REMARK    5  A    between atoms: C_11  and  C_12
REMARK    6  A    between atoms: N_23  and  C_24
REMARK    7  A    between atoms: C_24  and  C_25
REMARK    8  A    between atoms: C_27  and  C_28
REMARK    9  A    between atoms: C_30  and  C_31
REMARK                            x       y       z     vdW  Elec       q    Type
REMARK                         _______ _______ _______ _____ _____    ______ ____
ROOT
ATOM      1  C   UNL     1      -1.235  12.102  19.609  0.00  0.00    +0.000 C 
ATOM      2  C   UNL     1      -1.426  12.783  20.771  0.00  0.00    +0.000 C 
ATOM      3  C   UNL     1      -0.258  13.012  21.736  0.00  0.00    +0.000 C 
ATOM      4  C   UNL     1       1.090  12.519  21.151  0.00  0.00    +0.000 C 
ATOM      5  C   UNL     1       1.552  13.439  20.007  0.00  0.00    +0.000 C 
ATOM      6  C   UNL     1       0.981  12.796  18.728  0.00  0.00    +0.000 C 
ATOM      7  C   UNL     1       0.153  11.603  19.231  0.00  0.00    +0.000 C 
ATOM      8  N   UNL     1       0.846  11.261  20.464  0.00  0.00    +0.000 N 
ATOM      9  C   UNL     1       1.165  10.055  21.023  0.00  0.00    +0.000 C 
ATOM     10  O   UNL     1       1.765   9.977  22.091  0.00  0.00    +0.000 OA
ATOM     11  N   UNL     1       0.826   8.939  20.310  0.00  0.00    +0.000 N 
ATOM     12  H   UNL     1       0.166   9.000  19.552  0.00  0.00    +0.000 HD
ENDROOT
BRANCH   2  13
ATOM     13  C   UNL     1      -2.707  13.357  21.215  0.00  0.00    +0.000 A 
ATOM     14  C   UNL     1      -3.141  14.594  20.719  0.00  0.00    +0.000 A 
ATOM     15  C   UNL     1      -4.322  15.171  21.194  0.00  0.00    +0.000 A 
ATOM     16  C   UNL     1      -5.084  14.511  22.159  0.00  0.00    +0.000 A 
ATOM     17  C   UNL     1      -4.668  13.265  22.645  0.00  0.00    +0.000 A 
ATOM     18  C   UNL     1      -3.481  12.692  22.174  0.00  0.00    +0.000 A 
BRANCH  17  19
ATOM     19  C   UNL     1      -5.435  12.596  23.651  0.00  0.00    +0.000 C 
ATOM     20  N   UNL     1      -6.044  12.061  24.488  0.00  0.00    +0.000 NA
ENDBRANCH  17  19
ENDBRANCH   2  13
BRANCH   1  21
ATOM     21  C   UNL     1      -2.325  11.822  18.632  0.00  0.00    +0.000 C 
ATOM     22  O   UNL     1      -3.482  11.560  18.922  0.00  0.00    +0.000 OA
BRANCH  21  24
ATOM     23  C   UNL     1      -2.560  11.085  16.424  0.00  0.00    +0.000 C 
ATOM     24  O   UNL     1      -1.835  11.879  17.365  0.00  0.00    +0.000 OA
ENDBRANCH  21  24
ENDBRANCH   1  21
BRANCH  11  25
ATOM     25  C   UNL     1       1.167   7.617  20.800  0.00  0.00    +0.000 C 
BRANCH  25  26
ATOM     26  C   UNL     1       2.051   6.915  19.821  0.00  0.00    +0.000 A 
ATOM     27  C   UNL     1       2.770   7.503  18.736  0.00  0.00    +0.000 A 
ATOM     28  C   UNL     1       3.463   6.488  18.113  0.00  0.00    +0.000 A 
ATOM     29  C   UNL     1       4.396   6.445  16.966  0.00  0.00    +0.000 C 
ATOM     30  O   UNL     1       3.206   5.305  18.731  0.00  0.00    +0.000 OA
ATOM     31  C   UNL     1       2.354   5.560  19.771  0.00  0.00    +0.000 A 
BRANCH  31  32
ATOM     32  C   UNL     1       1.968   4.406  20.619  0.00  0.00    +0.000 C 
ATOM     33  F   UNL     1       0.615   4.252  20.688  0.00  0.00    +0.000 F 
ATOM     34  F   UNL     1       2.461   3.229  20.157  0.00  0.00    +0.000 F 
ATOM     35  F   UNL     1       2.392   4.545  21.902  0.00  0.00    +0.000 F 
ENDBRANCH  31  32
ENDBRANCH  25  26
ENDBRANCH  11  25
TORSDOF 7
ENDMDL
MODEL 7
REMARK VINA RESULT:      -7.3      4.011      5.903
REMARK  Name = 
REMARK  9 active torsions:
REMARK  status: ('A' for Active; 'I' for Inactive)
REMARK    1  A    between atoms: C_1  and  O_2
REMARK    2  A    between atoms: O_2  and  C_3
REMARK    3  A    between atoms: C_3  and  C_5
REMARK    4  A    between atoms: C_6  and  C_7
REMARK    5  A    between atoms: C_11  and  C_12
REMARK    6  A    between atoms: N_23  and  C_24
REMARK    7  A    between atoms: C_24  and  C_25
REMARK    8  A    between atoms: C_27  and  C_28
REMARK    9  A    between atoms: C_30  and  C_31
REMARK                            x       y       z     vdW  Elec       q    Type
REMARK                         _______ _______ _______ _____ _____    ______ ____
ROOT
ATOM      1  C   UNL     1       0.576  10.838  20.794  0.00  0.00    +0.000 C 
ATOM      2  C   UNL     1       1.011  11.956  20.152  0.00  0.00    +0.000 C 
ATOM      3  C   UNL     1       1.049  12.005  18.621  0.00  0.00    +0.000 C 
ATOM      4  C   UNL     1       0.422  10.742  17.979  0.00  0.00    +0.000 C 
ATOM      5  C   UNL     1      -1.105  10.737  18.172  0.00  0.00    +0.000 C 
ATOM      6  C   UNL     1      -1.336   9.954  19.479  0.00  0.00    +0.000 C 
ATOM      7  C   UNL     1       0.077   9.641  19.998  0.00  0.00    +0.000 C 
ATOM      8  N   UNL     1       0.841   9.588  18.760  0.00  0.00    +0.000 N 
ATOM      9  C   UNL     1       1.839   8.753  18.343  0.00  0.00    +0.000 C 
ATOM     10  O   UNL     1       2.365   8.875  17.241  0.00  0.00    +0.000 OA
ATOM     11  N   UNL     1       2.190   7.743  19.195  0.00  0.00    +0.000 N 
ATOM     12  H   UNL     1       1.907   7.770  20.161  0.00  0.00    +0.000 HD
ENDROOT
BRANCH   2  13
ATOM     13  C   UNL     1       1.465  13.191  20.813  0.00  0.00    +0.000 A 
ATOM     14  C   UNL     1       2.832  13.431  21.006  0.00  0.00    +0.000 A 
ATOM     15  C   UNL     1       3.260  14.570  21.695  0.00  0.00    +0.000 A 
ATOM     16  C   UNL     1       2.325  15.481  22.186  0.00  0.00    +0.000 A 
ATOM     17  C   UNL     1       0.957  15.260  21.980  0.00  0.00    +0.000 A 
ATOM     18  C   UNL     1       0.531  14.116  21.295  0.00  0.00    +0.000 A 
BRANCH  17  19
ATOM     19  C   UNL     1      -0.005  16.182  22.500  0.00  0.00    +0.000 C 
ATOM     20  N   UNL     1      -0.799  16.914  22.939  0.00  0.00    +0.000 NA
ENDBRANCH  17  19
ENDBRANCH   2  13
BRANCH   1  21
ATOM     21  C   UNL     1       0.531  10.709  22.278  0.00  0.00    +0.000 C 
ATOM     22  O   UNL     1       1.151   9.886  22.934  0.00  0.00    +0.000 OA
BRANCH  21  24
ATOM     23  C   UNL     1      -1.603  11.106  23.154  0.00  0.00    +0.000 C 
ATOM     24  O   UNL     1      -0.322  11.632  22.795  0.00  0.00    +0.000 OA
ENDBRANCH  21  24
ENDBRANCH   1  21
BRANCH  11  25
ATOM     25  C   UNL     1       3.205   6.778  18.818  0.00  0.00    +0.000 C 
BRANCH  25  26
ATOM     26  C   UNL     1       2.889   5.440  19.402  0.00  0.00    +0.000 A 
ATOM     27  C   UNL     1       2.045   5.168  20.523  0.00  0.00    +0.000 A 
ATOM     28  C   UNL     1       2.029   3.801  20.694  0.00  0.00    +0.000 A 
ATOM     29  C   UNL     1       1.338   2.901  21.643  0.00  0.00    +0.000 C 
ATOM     30  O   UNL     1       2.823   3.208  19.763  0.00  0.00    +0.000 OA
ATOM     31  C   UNL     1       3.342   4.198  18.974  0.00  0.00    +0.000 A 
BRANCH  31  32
ATOM     32  C   UNL     1       4.214   3.772  17.852  0.00  0.00    +0.000 C 
ATOM     33  F   UNL     1       4.077   2.444  17.574  0.00  0.00    +0.000 F 
ATOM     34  F   UNL     1       3.942   4.433  16.699  0.00  0.00    +0.000 F 
ATOM     35  F   UNL     1       5.532   3.961  18.124  0.00  0.00    +0.000 F 
ENDBRANCH  31  32
ENDBRANCH  25  26
ENDBRANCH  11  25
TORSDOF 7
ENDMDL
MODEL 8
REMARK VINA RESULT:      -7.2      4.025      6.267
REMARK  Name = 
REMARK  9 active torsions:
REMARK  status: ('A' for Active; 'I' for Inactive)
REMARK    1  A    between atoms: C_1  and  O_2
REMARK    2  A    between atoms: O_2  and  C_3
REMARK    3  A    between atoms: C_3  and  C_5
REMARK    4  A    between atoms: C_6  and  C_7
REMARK    5  A    between atoms: C_11  and  C_12
REMARK    6  A    between atoms: N_23  and  C_24
REMARK    7  A    between atoms: C_24  and  C_25
REMARK    8  A    between atoms: C_27  and  C_28
REMARK    9  A    between atoms: C_30  and  C_31
REMARK                            x       y       z     vdW  Elec       q    Type
REMARK                         _______ _______ _______ _____ _____    ______ ____
ROOT
ATOM      1  C   UNL     1       0.465  10.848  20.807  0.00  0.00    +0.000 C 
ATOM      2  C   UNL     1       1.013  11.894  20.132  0.00  0.00    +0.000 C 
ATOM      3  C   UNL     1       1.205  11.821  18.613  0.00  0.00    +0.000 C 
ATOM      4  C   UNL     1       0.587  10.537  18.006  0.00  0.00    +0.000 C 
ATOM      5  C   UNL     1      -0.950  10.607  18.041  0.00  0.00    +0.000 C 
ATOM      6  C   UNL     1      -1.346   9.938  19.371  0.00  0.00    +0.000 C 
ATOM      7  C   UNL     1      -0.008   9.612  20.054  0.00  0.00    +0.000 C 
ATOM      8  N   UNL     1       0.872   9.433  18.909  0.00  0.00    +0.000 N 
ATOM      9  C   UNL     1       1.866   8.529  18.660  0.00  0.00    +0.000 C 
ATOM     10  O   UNL     1       2.505   8.544  17.611  0.00  0.00    +0.000 OA
ATOM     11  N   UNL     1       2.083   7.576  19.615  0.00  0.00    +0.000 N 
ATOM     12  H   UNL     1       1.707   7.689  20.543  0.00  0.00    +0.000 HD
ENDROOT
BRANCH   2  13
ATOM     13  C   UNL     1       1.456  13.158  20.743  0.00  0.00    +0.000 A 
ATOM     14  C   UNL     1       0.548  14.204  20.949  0.00  0.00    +0.000 A 
ATOM     15  C   UNL     1       0.984  15.429  21.465  0.00  0.00    +0.000 A 
ATOM     16  C   UNL     1       2.329  15.610  21.790  0.00  0.00    +0.000 A 
ATOM     17  C   UNL     1       3.240  14.562  21.607  0.00  0.00    +0.000 A 
ATOM     18  C   UNL     1       2.803  13.340  21.084  0.00  0.00    +0.000 A 
BRANCH  17  19
ATOM     19  C   UNL     1       4.624  14.752  21.919  0.00  0.00    +0.000 C 
ATOM     20  N   UNL     1       5.750  14.929  22.159  0.00  0.00    +0.000 NA
ENDBRANCH  17  19
ENDBRANCH   2  13
BRANCH   1  21
ATOM     21  C   UNL     1       0.266  10.837  22.283  0.00  0.00    +0.000 C 
ATOM     22  O   UNL     1       0.745  10.019  23.054  0.00  0.00    +0.000 OA
BRANCH  21  24
ATOM     23  C   UNL     1      -1.819  11.450  23.151  0.00  0.00    +0.000 C 
ATOM     24  O   UNL     1      -0.547  11.864  22.647  0.00  0.00    +0.000 OA
ENDBRANCH  21  24
ENDBRANCH   1  21
BRANCH  11  25
ATOM     25  C   UNL     1       3.085   6.545  19.417  0.00  0.00    +0.000 C 
BRANCH  25  26
ATOM     26  C   UNL     1       2.549   5.216  19.839  0.00  0.00    +0.000 A 
ATOM     27  C   UNL     1       2.298   4.774  21.174  0.00  0.00    +0.000 A 
ATOM     28  C   UNL     1       1.793   3.495  21.087  0.00  0.00    +0.000 A 
ATOM     29  C   UNL     1       1.318   2.517  22.090  0.00  0.00    +0.000 C 
ATOM     30  O   UNL     1       1.731   3.109  19.786  0.00  0.00    +0.000 OA
ATOM     31  C   UNL     1       2.184   4.152  19.025  0.00  0.00    +0.000 A 
BRANCH  31  32
ATOM     32  C   UNL     1       2.164   3.964  17.553  0.00  0.00    +0.000 C 
ATOM     33  F   UNL     1       1.069   4.539  16.979  0.00  0.00    +0.000 F 
ATOM     34  F   UNL     1       3.245   4.512  16.942  0.00  0.00    +0.000 F 
ATOM     35  F   UNL     1       2.124   2.653  17.201  0.00  0.00    +0.000 F 
ENDBRANCH  31  32
ENDBRANCH  25  26
ENDBRANCH  11  25
TORSDOF 7
ENDMDL
MODEL 9
REMARK VINA RESULT:      -7.2      4.633      8.342
REMARK  Name = 
REMARK  9 active torsions:
REMARK  status: ('A' for Active; 'I' for Inactive)
REMARK    1  A    between atoms: C_1  and  O_2
REMARK    2  A    between atoms: O_2  and  C_3
REMARK    3  A    between atoms: C_3  and  C_5
REMARK    4  A    between atoms: C_6  and  C_7
REMARK    5  A    between atoms: C_11  and  C_12
REMARK    6  A    between atoms: N_23  and  C_24
REMARK    7  A    between atoms: C_24  and  C_25
REMARK    8  A    between atoms: C_27  and  C_28
REMARK    9  A    between atoms: C_30  and  C_31
REMARK                            x       y       z     vdW  Elec       q    Type
REMARK                         _______ _______ _______ _____ _____    ______ ____
ROOT
ATOM      1  C   UNL     1       2.607  15.146  20.610  0.00  0.00    +0.000 C 
ATOM      2  C   UNL     1       3.094  15.571  19.412  0.00  0.00    +0.000 C 
ATOM      3  C   UNL     1       2.136  15.959  18.281  0.00  0.00    +0.000 C 
ATOM      4  C   UNL     1       0.654  15.937  18.734  0.00  0.00    +0.000 C 
ATOM      5  C   UNL     1       0.364  17.106  19.693  0.00  0.00    +0.000 C 
ATOM      6  C   UNL     1       0.605  16.530  21.102  0.00  0.00    +0.000 C 
ATOM      7  C   UNL     1       1.105  15.098  20.855  0.00  0.00    +0.000 C 
ATOM      8  N   UNL     1       0.465  14.775  19.588  0.00  0.00    +0.000 N 
ATOM      9  C   UNL     1      -0.128  13.630  19.136  0.00  0.00    +0.000 C 
ATOM     10  O   UNL     1      -0.621  13.559  18.014  0.00  0.00    +0.000 OA
ATOM     11  N   UNL     1      -0.189  12.583  20.011  0.00  0.00    +0.000 N 
ATOM     12  H   UNL     1       0.386  12.576  20.839  0.00  0.00    +0.000 HD
ENDROOT
BRANCH   2  13
ATOM     13  C   UNL     1       4.521  15.709  19.078  0.00  0.00    +0.000 A 
ATOM     14  C   UNL     1       5.175  16.936  19.253  0.00  0.00    +0.000 A 
ATOM     15  C   UNL     1       6.512  17.085  18.870  0.00  0.00    +0.000 A 
ATOM     16  C   UNL     1       7.206  16.006  18.322  0.00  0.00    +0.000 A 
ATOM     17  C   UNL     1       6.566  14.770  18.163  0.00  0.00    +0.000 A 
ATOM     18  C   UNL     1       5.225  14.625  18.541  0.00  0.00    +0.000 A 
BRANCH  17  19
ATOM     19  C   UNL     1       7.268  13.668  17.581  0.00  0.00    +0.000 C 
ATOM     20  N   UNL     1       7.855  12.769  17.128  0.00  0.00    +0.000 NA
ENDBRANCH  17  19
ENDBRANCH   2  13
BRANCH   1  21
ATOM     21  C   UNL     1       3.475  14.731  21.748  0.00  0.00    +0.000 C 
ATOM     22  O   UNL     1       3.867  13.594  21.960  0.00  0.00    +0.000 OA
BRANCH  21  24
ATOM     23  C   UNL     1       4.802  15.585  23.477  0.00  0.00    +0.000 C 
ATOM     24  O   UNL     1       3.751  15.807  22.532  0.00  0.00    +0.000 OA
ENDBRANCH  21  24
ENDBRANCH   1  21
BRANCH  11  25
ATOM     25  C   UNL     1      -0.842  11.343  19.637  0.00  0.00    +0.000 C 
BRANCH  25  26
ATOM     26  C   UNL     1       0.169  10.256  19.467  0.00  0.00    +0.000 A 
ATOM     27  C   UNL     1       0.871   9.914  18.271  0.00  0.00    +0.000 A 
ATOM     28  C   UNL     1       1.711   8.867  18.582  0.00  0.00    +0.000 A 
ATOM     29  C   UNL     1       2.703   8.091  17.805  0.00  0.00    +0.000 C 
ATOM     30  O   UNL     1       1.562   8.526  19.889  0.00  0.00    +0.000 OA
ATOM     31  C   UNL     1       0.631   9.369  20.431  0.00  0.00    +0.000 A 
BRANCH  31  32
ATOM     32  C   UNL     1       0.338   9.203  21.876  0.00  0.00    +0.000 C 
ATOM     33  F   UNL     1       1.382   8.640  22.548  0.00  0.00    +0.000 F 
ATOM     34  F   UNL     1       0.080  10.383  22.496  0.00  0.00    +0.000 F 
ATOM     35  F   UNL     1      -0.728   8.391  22.095  0.00  0.00    +0.000 F 
ENDBRANCH  31  32
ENDBRANCH  25  26
ENDBRANCH  11  25
TORSDOF 7
ENDMDL
