MODEL 1
REMARK VINA RESULT:      -6.4      0.000      0.000
REMARK  Name = 
REMARK  7 active torsions:
REMARK  status: ('A' for Active; 'I' for Inactive)
REMARK    1  A    between atoms: C_2  and  C_3
REMARK    2  A    between atoms: C_3  and  C_4
REMARK    3  A    between atoms: C_4  and  C_5
REMARK    4  A    between atoms: C_5  and  O_7
REMARK    5  A    between atoms: O_7  and  C_8
REMARK    6  A    between atoms: C_13  and  C_14
REMARK    7  A    between atoms: C_23  and  C_24
REMARK                            x       y       z     vdW  Elec       q    Type
REMARK                         _______ _______ _______ _____ _____    ______ ____
ROOT
ATOM      1  C   UNL     1       6.444   6.229  17.576  0.00  0.00    +0.000 C 
ATOM      2  C   UNL     1       6.322   6.270  16.037  0.00  0.00    +0.000 C 
ATOM      3  C   UNL     1       5.527   5.121  15.470  0.00  0.00    +0.000 C 
ATOM      4  O   UNL     1       4.720   5.292  14.557  0.00  0.00    +0.000 OA
ATOM      5  C   UNL     1       5.900   3.738  15.937  0.00  0.00    +0.000 C 
ATOM      6  C   UNL     1       5.823   3.643  17.472  0.00  0.00    +0.000 C 
ATOM      7  C   UNL     1       6.773   4.759  18.084  0.00  0.00    +0.000 C 
ATOM      8  C   UNL     1       8.238   4.337  17.807  0.00  0.00    +0.000 C 
ENDROOT
BRANCH   6   9
ATOM      9  C   UNL     1       4.394   3.498  18.028  0.00  0.00    +0.000 A 
ATOM     10  C   UNL     1       3.250   3.672  17.206  0.00  0.00    +0.000 A 
ATOM     11  C   UNL     1       1.943   3.543  17.705  0.00  0.00    +0.000 A 
ATOM     12  C   UNL     1       1.783   3.309  19.049  0.00  0.00    +0.000 A 
ATOM     13  C   UNL     1       2.867   3.198  19.883  0.00  0.00    +0.000 A 
ATOM     14  C   UNL     1       4.162   3.284  19.406  0.00  0.00    +0.000 A 
ATOM     15  O   UNL     1       2.510   2.990  21.176  0.00  0.00    +0.000 OA
ATOM     16  C   UNL     1       1.071   2.980  21.062  0.00  0.00    +0.000 C 
ATOM     17  O   UNL     1       0.604   3.180  19.709  0.00  0.00    +0.000 OA
ENDBRANCH   6   9
BRANCH   1  18
ATOM     18  C   UNL     1       7.536   7.241  17.996  0.00  0.00    +0.000 C 
ATOM     19  O   UNL     1       8.335   7.055  18.902  0.00  0.00    +0.000 OA
BRANCH  18  20
ATOM     20  O   UNL     1       7.517   8.368  17.232  0.00  0.00    +0.000 OA
ATOM     21  C   UNL     1       8.155   9.517  17.801  0.00  0.00    +0.000 C 
ENDBRANCH  18  20
ENDBRANCH   1  18
BRANCH   1  22
ATOM     22  C   UNL     1       5.111   6.711  18.247  0.00  0.00    +0.000 C 
BRANCH  22  24
ATOM     23  C   UNL     1       2.860   7.746  17.827  0.00  0.00    +0.000 C 
ATOM     24  C   UNL     1       4.044   7.310  17.369  0.00  0.00    +0.000 C 
ENDBRANCH  22  24
ENDBRANCH   1  22
TORSDOF 5
ENDMDL
MODEL 2
REMARK VINA RESULT:      -6.1      2.153      5.866
REMARK  Name = 
REMARK  7 active torsions:
REMARK  status: ('A' for Active; 'I' for Inactive)
REMARK    1  A    between atoms: C_2  and  C_3
REMARK    2  A    between atoms: C_3  and  C_4
REMARK    3  A    between atoms: C_4  and  C_5
REMARK    4  A    between atoms: C_5  and  O_7
REMARK    5  A    between atoms: O_7  and  C_8
REMARK    6  A    between atoms: C_13  and  C_14
REMARK    7  A    between atoms: C_23  and  C_24
REMARK                            x       y       z     vdW  Elec       q    Type
REMARK                         _______ _______ _______ _____ _____    ______ ____
ROOT
ATOM      1  C   UNL     1       2.822   4.724  19.477  0.00  0.00    +0.000 C 
ATOM      2  C   UNL     1       3.300   3.647  20.474  0.00  0.00    +0.000 C 
ATOM      3  C   UNL     1       4.184   2.599  19.845  0.00  0.00    +0.000 C 
ATOM      4  O   UNL     1       5.185   2.177  20.421  0.00  0.00    +0.000 OA
ATOM      5  C   UNL     1       3.685   1.962  18.573  0.00  0.00    +0.000 C 
ATOM      6  C   UNL     1       3.399   3.032  17.504  0.00  0.00    +0.000 C 
ATOM      7  C   UNL     1       2.354   4.066  18.107  0.00  0.00    +0.000 C 
ATOM      8  C   UNL     1       0.987   3.345  18.217  0.00  0.00    +0.000 C 
ENDROOT
BRANCH   6   9
ATOM      9  C   UNL     1       4.655   3.574  16.796  0.00  0.00    +0.000 A 
ATOM     10  C   UNL     1       5.798   3.998  17.523  0.00  0.00    +0.000 A 
ATOM     11  C   UNL     1       6.948   4.496  16.886  0.00  0.00    +0.000 A 
ATOM     12  C   UNL     1       6.923   4.635  15.520  0.00  0.00    +0.000 A 
ATOM     13  C   UNL     1       5.810   4.293  14.793  0.00  0.00    +0.000 A 
ATOM     14  C   UNL     1       4.682   3.767  15.396  0.00  0.00    +0.000 A 
ATOM     15  O   UNL     1       5.966   4.520  13.464  0.00  0.00    +0.000 OA
ATOM     16  C   UNL     1       7.310   5.044  13.435  0.00  0.00    +0.000 C 
ATOM     17  O   UNL     1       7.924   5.116  14.741  0.00  0.00    +0.000 OA
ENDBRANCH   6   9
BRANCH   1  18
ATOM     18  C   UNL     1       1.682   5.525  20.149  0.00  0.00    +0.000 C 
ATOM     19  O   UNL     1       0.701   5.017  20.675  0.00  0.00    +0.000 OA
BRANCH  18  20
ATOM     20  O   UNL     1       1.895   6.869  20.100  0.00  0.00    +0.000 OA
ATOM     21  C   UNL     1       1.240   7.641  21.113  0.00  0.00    +0.000 C 
ENDBRANCH  18  20
ENDBRANCH   1  18
BRANCH   1  22
ATOM     22  C   UNL     1       3.970   5.750  19.181  0.00  0.00    +0.000 C 
BRANCH  22  24
ATOM     23  C   UNL     1       4.466   7.127  17.138  0.00  0.00    +0.000 C 
ATOM     24  C   UNL     1       3.698   6.866  18.207  0.00  0.00    +0.000 C 
ENDBRANCH  22  24
ENDBRANCH   1  22
TORSDOF 5
ENDMDL
MODEL 3
REMARK VINA RESULT:      -6.1      2.298      5.691
REMARK  Name = 
REMARK  7 active torsions:
REMARK  status: ('A' for Active; 'I' for Inactive)
REMARK    1  A    between atoms: C_2  and  C_3
REMARK    2  A    between atoms: C_3  and  C_4
REMARK    3  A    between atoms: C_4  and  C_5
REMARK    4  A    between atoms: C_5  and  O_7
REMARK    5  A    between atoms: O_7  and  C_8
REMARK    6  A    between atoms: C_13  and  C_14
REMARK    7  A    between atoms: C_23  and  C_24
REMARK                            x       y       z     vdW  Elec       q    Type
REMARK                         _______ _______ _______ _____ _____    ______ ____
ROOT
ATOM      1  C   UNL     1       3.680   6.249  18.155  0.00  0.00    +0.000 C 
ATOM      2  C   UNL     1       4.507   5.858  19.399  0.00  0.00    +0.000 C 
ATOM      3  C   UNL     1       5.437   4.696  19.159  0.00  0.00    +0.000 C 
ATOM      4  O   UNL     1       6.581   4.689  19.609  0.00  0.00    +0.000 OA
ATOM      5  C   UNL     1       4.843   3.472  18.510  0.00  0.00    +0.000 C 
ATOM      6  C   UNL     1       4.192   3.833  17.162  0.00  0.00    +0.000 C 
ATOM      7  C   UNL     1       3.104   4.960  17.425  0.00  0.00    +0.000 C 
ATOM      8  C   UNL     1       1.924   4.308  18.190  0.00  0.00    +0.000 C 
ENDROOT
BRANCH   6   9
ATOM      9  C   UNL     1       5.191   4.021  16.004  0.00  0.00    +0.000 A 
ATOM     10  C   UNL     1       6.452   4.641  16.199  0.00  0.00    +0.000 A 
ATOM     11  C   UNL     1       7.369   4.819  15.149  0.00  0.00    +0.000 A 
ATOM     12  C   UNL     1       6.988   4.437  13.886  0.00  0.00    +0.000 A 
ATOM     13  C   UNL     1       5.751   3.892  13.653  0.00  0.00    +0.000 A 
ATOM     14  C   UNL     1       4.849   3.674  14.678  0.00  0.00    +0.000 A 
ATOM     15  O   UNL     1       5.549   3.599  12.343  0.00  0.00    +0.000 OA
ATOM     16  C   UNL     1       6.807   4.021  11.774  0.00  0.00    +0.000 C 
ATOM     17  O   UNL     1       7.727   4.553  12.753  0.00  0.00    +0.000 OA
ENDBRANCH   6   9
BRANCH   1  18
ATOM     18  C   UNL     1       2.553   7.205  18.611  0.00  0.00    +0.000 C 
ATOM     19  O   UNL     1       2.160   7.305  19.765  0.00  0.00    +0.000 OA
BRANCH  18  20
ATOM     20  O   UNL     1       2.047   7.937  17.580  0.00  0.00    +0.000 OA
ATOM     21  C   UNL     1       1.753   9.308  17.875  0.00  0.00    +0.000 C 
ENDBRANCH  18  20
ENDBRANCH   1  18
BRANCH   1  22
ATOM     22  C   UNL     1       4.561   7.055  17.139  0.00  0.00    +0.000 C 
BRANCH  22  24
ATOM     23  C   UNL     1       6.992   7.644  17.381  0.00  0.00    +0.000 C 
ATOM     24  C   UNL     1       5.703   7.876  17.677  0.00  0.00    +0.000 C 
ENDBRANCH  22  24
ENDBRANCH   1  22
TORSDOF 5
ENDMDL
MODEL 4
REMARK VINA RESULT:      -6.1      7.489      9.737
REMARK  Name = 
REMARK  7 active torsions:
REMARK  status: ('A' for Active; 'I' for Inactive)
REMARK    1  A    between atoms: C_2  and  C_3
REMARK    2  A    between atoms: C_3  and  C_4
REMARK    3  A    between atoms: C_4  and  C_5
REMARK    4  A    between atoms: C_5  and  O_7
REMARK    5  A    between atoms: O_7  and  C_8
REMARK    6  A    between atoms: C_13  and  C_14
REMARK    7  A    between atoms: C_23  and  C_24
REMARK                            x       y       z     vdW  Elec       q    Type
REMARK                         _______ _______ _______ _____ _____    ______ ____
ROOT
ATOM      1  C   UNL     1       0.070  12.877  20.588  0.00  0.00    +0.000 C 
ATOM      2  C   UNL     1       1.449  12.456  20.034  0.00  0.00    +0.000 C 
ATOM      3  C   UNL     1       1.379  11.291  19.080  0.00  0.00    +0.000 C 
ATOM      4  O   UNL     1       2.053  11.267  18.051  0.00  0.00    +0.000 OA
ATOM      5  C   UNL     1       0.598  10.085  19.533  0.00  0.00    +0.000 C 
ATOM      6  C   UNL     1      -0.846  10.477  19.894  0.00  0.00    +0.000 C 
ATOM      7  C   UNL     1      -0.788  11.607  21.009  0.00  0.00    +0.000 C 
ATOM      8  C   UNL     1      -0.293  10.950  22.322  0.00  0.00    +0.000 C 
ENDROOT
BRANCH   6   9
ATOM      9  C   UNL     1      -1.772  10.679  18.679  0.00  0.00    +0.000 A 
ATOM     10  C   UNL     1      -2.945  11.474  18.758  0.00  0.00    +0.000 A 
ATOM     11  C   UNL     1      -3.797  11.664  17.656  0.00  0.00    +0.000 A 
ATOM     12  C   UNL     1      -3.507  10.994  16.492  0.00  0.00    +0.000 A 
ATOM     13  C   UNL     1      -2.415  10.168  16.402  0.00  0.00    +0.000 A 
ATOM     14  C   UNL     1      -1.544   9.998  17.462  0.00  0.00    +0.000 A 
ATOM     15  O   UNL     1      -2.307   9.580  15.184  0.00  0.00    +0.000 OA
ATOM     16  C   UNL     1      -3.458  10.133  14.512  0.00  0.00    +0.000 C 
ATOM     17  O   UNL     1      -4.224  11.036  15.340  0.00  0.00    +0.000 OA
ENDBRANCH   6   9
BRANCH   1  18
ATOM     18  C   UNL     1       0.306  13.833  21.781  0.00  0.00    +0.000 C 
ATOM     19  O   UNL     1      -0.586  14.308  22.470  0.00  0.00    +0.000 OA
BRANCH  18  20
ATOM     20  O   UNL     1       1.629  14.084  21.990  0.00  0.00    +0.000 OA
ATOM     21  C   UNL     1       2.000  15.466  22.043  0.00  0.00    +0.000 C 
ENDBRANCH  18  20
ENDBRANCH   1  18
BRANCH   1  22
ATOM     22  C   UNL     1      -0.728  13.696  19.515  0.00  0.00    +0.000 C 
BRANCH  22  24
ATOM     23  C   UNL     1      -0.374  16.104  18.891  0.00  0.00    +0.000 C 
ATOM     24  C   UNL     1      -0.020  14.813  18.795  0.00  0.00    +0.000 C 
ENDBRANCH  22  24
ENDBRANCH   1  22
TORSDOF 5
ENDMDL
MODEL 5
REMARK VINA RESULT:      -6.0      2.690      4.932
REMARK  Name = 
REMARK  7 active torsions:
REMARK  status: ('A' for Active; 'I' for Inactive)
REMARK    1  A    between atoms: C_2  and  C_3
REMARK    2  A    between atoms: C_3  and  C_4
REMARK    3  A    between atoms: C_4  and  C_5
REMARK    4  A    between atoms: C_5  and  O_7
REMARK    5  A    between atoms: O_7  and  C_8
REMARK    6  A    between atoms: C_13  and  C_14
REMARK    7  A    between atoms: C_23  and  C_24
REMARK                            x       y       z     vdW  Elec       q    Type
REMARK                         _______ _______ _______ _____ _____    ______ ____
ROOT
ATOM      1  C   UNL     1       4.389   4.725  17.584  0.00  0.00    +0.000 C 
ATOM      2  C   UNL     1       3.254   3.858  16.998  0.00  0.00    +0.000 C 
ATOM      3  C   UNL     1       1.922   4.085  17.667  0.00  0.00    +0.000 C 
ATOM      4  O   UNL     1       0.881   4.148  17.014  0.00  0.00    +0.000 OA
ATOM      5  C   UNL     1       1.900   4.041  19.173  0.00  0.00    +0.000 C 
ATOM      6  C   UNL     1       2.895   5.058  19.761  0.00  0.00    +0.000 C 
ATOM      7  C   UNL     1       4.335   4.738  19.172  0.00  0.00    +0.000 C 
ATOM      8  C   UNL     1       4.820   3.409  19.806  0.00  0.00    +0.000 C 
ENDROOT
BRANCH   6   9
ATOM      9  C   UNL     1       2.395   6.516  19.749  0.00  0.00    +0.000 A 
ATOM     10  C   UNL     1       1.722   7.084  20.861  0.00  0.00    +0.000 A 
ATOM     11  C   UNL     1       1.261   8.412  20.859  0.00  0.00    +0.000 A 
ATOM     12  C   UNL     1       1.413   9.148  19.709  0.00  0.00    +0.000 A 
ATOM     13  C   UNL     1       2.003   8.607  18.594  0.00  0.00    +0.000 A 
ATOM     14  C   UNL     1       2.497   7.316  18.588  0.00  0.00    +0.000 A 
ATOM     15  O   UNL     1       2.043   9.477  17.553  0.00  0.00    +0.000 OA
ATOM     16  C   UNL     1       1.411  10.633  18.141  0.00  0.00    +0.000 C 
ATOM     17  O   UNL     1       1.011  10.429  19.514  0.00  0.00    +0.000 OA
ENDBRANCH   6   9
BRANCH   1  18
ATOM     18  C   UNL     1       5.734   4.170  17.058  0.00  0.00    +0.000 C 
ATOM     19  O   UNL     1       6.805   4.305  17.631  0.00  0.00    +0.000 OA
BRANCH  18  20
ATOM     20  O   UNL     1       5.592   3.500  15.881  0.00  0.00    +0.000 OA
ATOM     21  C   UNL     1       6.405   3.965  14.797  0.00  0.00    +0.000 C 
ENDBRANCH  18  20
ENDBRANCH   1  18
BRANCH   1  22
ATOM     22  C   UNL     1       4.283   6.200  17.060  0.00  0.00    +0.000 C 
BRANCH  22  24
ATOM     23  C   UNL     1       6.374   7.550  17.396  0.00  0.00    +0.000 C 
ATOM     24  C   UNL     1       5.538   6.882  16.586  0.00  0.00    +0.000 C 
ENDBRANCH  22  24
ENDBRANCH   1  22
TORSDOF 5
ENDMDL
MODEL 6
REMARK VINA RESULT:      -6.0      2.695      5.911
REMARK  Name = 
REMARK  7 active torsions:
REMARK  status: ('A' for Active; 'I' for Inactive)
REMARK    1  A    between atoms: C_2  and  C_3
REMARK    2  A    between atoms: C_3  and  C_4
REMARK    3  A    between atoms: C_4  and  C_5
REMARK    4  A    between atoms: C_5  and  O_7
REMARK    5  A    between atoms: O_7  and  C_8
REMARK    6  A    between atoms: C_13  and  C_14
REMARK    7  A    between atoms: C_23  and  C_24
REMARK                            x       y       z     vdW  Elec       q    Type
REMARK                         _______ _______ _______ _____ _____    ______ ____
ROOT
ATOM      1  C   UNL     1       3.447   3.648  18.654  0.00  0.00    +0.000 C 
ATOM      2  C   UNL     1       4.916   3.733  19.122  0.00  0.00    +0.000 C 
ATOM      3  C   UNL     1       5.470   5.135  19.099  0.00  0.00    +0.000 C 
ATOM      4  O   UNL     1       6.183   5.556  20.009  0.00  0.00    +0.000 OA
ATOM      5  C   UNL     1       5.269   5.927  17.832  0.00  0.00    +0.000 C 
ATOM      6  C   UNL     1       3.774   6.012  17.476  0.00  0.00    +0.000 C 
ATOM      7  C   UNL     1       3.209   4.532  17.355  0.00  0.00    +0.000 C 
ATOM      8  C   UNL     1       3.811   3.901  16.074  0.00  0.00    +0.000 C 
ENDROOT
BRANCH   6   9
ATOM      9  C   UNL     1       2.982   7.043  18.302  0.00  0.00    +0.000 A 
ATOM     10  C   UNL     1       2.570   6.776  19.634  0.00  0.00    +0.000 A 
ATOM     11  C   UNL     1       1.846   7.710  20.395  0.00  0.00    +0.000 A 
ATOM     12  C   UNL     1       1.472   8.886  19.792  0.00  0.00    +0.000 A 
ATOM     13  C   UNL     1       1.800   9.148  18.486  0.00  0.00    +0.000 A 
ATOM     14  C   UNL     1       2.544   8.260  17.731  0.00  0.00    +0.000 A 
ATOM     15  O   UNL     1       1.327  10.348  18.061  0.00  0.00    +0.000 OA
ATOM     16  C   UNL     1       0.662  10.815  19.254  0.00  0.00    +0.000 C 
ATOM     17  O   UNL     1       0.754   9.889  20.360  0.00  0.00    +0.000 OA
ENDBRANCH   6   9
BRANCH   1  18
ATOM     18  C   UNL     1       3.110   2.158  18.406  0.00  0.00    +0.000 C 
ATOM     19  O   UNL     1       3.806   1.224  18.777  0.00  0.00    +0.000 OA
BRANCH  18  20
ATOM     20  O   UNL     1       1.937   1.999  17.732  0.00  0.00    +0.000 OA
ATOM     21  C   UNL     1       0.761   1.904  18.543  0.00  0.00    +0.000 C 
ENDBRANCH  18  20
ENDBRANCH   1  18
BRANCH   1  22
ATOM     22  C   UNL     1       2.478   4.139  19.786  0.00  0.00    +0.000 C 
BRANCH  22  24
ATOM     23  C   UNL     1       1.693   2.825  21.778  0.00  0.00    +0.000 C 
ATOM     24  C   UNL     1       2.637   3.556  21.165  0.00  0.00    +0.000 C 
ENDBRANCH  22  24
ENDBRANCH   1  22
TORSDOF 5
ENDMDL
MODEL 7
REMARK VINA RESULT:      -6.0      1.996      6.408
REMARK  Name = 
REMARK  7 active torsions:
REMARK  status: ('A' for Active; 'I' for Inactive)
REMARK    1  A    between atoms: C_2  and  C_3
REMARK    2  A    between atoms: C_3  and  C_4
REMARK    3  A    between atoms: C_4  and  C_5
REMARK    4  A    between atoms: C_5  and  O_7
REMARK    5  A    between atoms: O_7  and  C_8
REMARK    6  A    between atoms: C_13  and  C_14
REMARK    7  A    between atoms: C_23  and  C_24
REMARK                            x       y       z     vdW  Elec       q    Type
REMARK                         _______ _______ _______ _____ _____    ______ ____
ROOT
ATOM      1  C   UNL     1       2.545   4.017  20.165  0.00  0.00    +0.000 C 
ATOM      2  C   UNL     1       1.352   3.830  19.203  0.00  0.00    +0.000 C 
ATOM      3  C   UNL     1       1.539   4.524  17.877  0.00  0.00    +0.000 C 
ATOM      4  O   UNL     1       1.209   3.985  16.822  0.00  0.00    +0.000 OA
ATOM      5  C   UNL     1       1.967   5.969  17.919  0.00  0.00    +0.000 C 
ATOM      6  C   UNL     1       3.276   6.125  18.714  0.00  0.00    +0.000 C 
ATOM      7  C   UNL     1       3.047   5.525  20.167  0.00  0.00    +0.000 C 
ATOM      8  C   UNL     1       2.091   6.480  20.927  0.00  0.00    +0.000 C 
ENDROOT
BRANCH   6   9
ATOM      9  C   UNL     1       4.544   5.722  17.936  0.00  0.00    +0.000 A 
ATOM     10  C   UNL     1       5.803   5.589  18.576  0.00  0.00    +0.000 A 
ATOM     11  C   UNL     1       6.965   5.224  17.876  0.00  0.00    +0.000 A 
ATOM     12  C   UNL     1       6.875   5.061  16.514  0.00  0.00    +0.000 A 
ATOM     13  C   UNL     1       5.685   5.243  15.856  0.00  0.00    +0.000 A 
ATOM     14  C   UNL     1       4.523   5.566  16.531  0.00  0.00    +0.000 A 
ATOM     15  O   UNL     1       5.799   5.059  14.516  0.00  0.00    +0.000 OA
ATOM     16  C   UNL     1       7.201   4.737  14.404  0.00  0.00    +0.000 C 
ATOM     17  O   UNL     1       7.890   4.734  15.674  0.00  0.00    +0.000 OA
ENDBRANCH   6   9
BRANCH   1  18
ATOM     18  C   UNL     1       2.100   3.557  21.574  0.00  0.00    +0.000 C 
ATOM     19  O   UNL     1       2.643   3.901  22.614  0.00  0.00    +0.000 OA
BRANCH  18  20
ATOM     20  O   UNL     1       1.020   2.728  21.529  0.00  0.00    +0.000 OA
ATOM     21  C   UNL     1       0.843   1.875  22.667  0.00  0.00    +0.000 C 
ENDBRANCH  18  20
ENDBRANCH   1  18
BRANCH   1  22
ATOM     22  C   UNL     1       3.738   3.086  19.751  0.00  0.00    +0.000 C 
BRANCH  22  24
ATOM     23  C   UNL     1       3.770   1.636  17.700  0.00  0.00    +0.000 C 
ATOM     24  C   UNL     1       3.430   1.828  18.984  0.00  0.00    +0.000 C 
ENDBRANCH  22  24
ENDBRANCH   1  22
TORSDOF 5
ENDMDL
MODEL 8
REMARK VINA RESULT:      -5.9      2.828      4.971
REMARK  Name = 
REMARK  7 active torsions:
REMARK  status: ('A' for Active; 'I' for Inactive)
REMARK    1  A    between atoms: C_2  and  C_3
REMARK    2  A    between atoms: C_3  and  C_4
REMARK    3  A    between atoms: C_4  and  C_5
REMARK    4  A    between atoms: C_5  and  O_7
REMARK    5  A    between atoms: O_7  and  C_8
REMARK    6  A    between atoms: C_13  and  C_14
REMARK    7  A    between atoms: C_23  and  C_24
REMARK                            x       y       z     vdW  Elec       q    Type
REMARK                         _______ _______ _______ _____ _____    ______ ____
ROOT
ATOM      1  C   UNL     1       4.188   4.731  17.976  0.00  0.00    +0.000 C 
ATOM      2  C   UNL     1       3.086   3.981  17.198  0.00  0.00    +0.000 C 
ATOM      3  C   UNL     1       1.698   4.244  17.725  0.00  0.00    +0.000 C 
ATOM      4  O   UNL     1       0.747   4.419  16.965  0.00  0.00    +0.000 OA
ATOM      5  C   UNL     1       1.494   4.094  19.211  0.00  0.00    +0.000 C 
ATOM      6  C   UNL     1       2.467   5.002  19.987  0.00  0.00    +0.000 C 
ATOM      7  C   UNL     1       3.947   4.634  19.544  0.00  0.00    +0.000 C 
ATOM      8  C   UNL     1       4.279   3.235  20.123  0.00  0.00    +0.000 C 
ENDROOT
BRANCH   6   9
ATOM      9  C   UNL     1       2.052   6.485  20.032  0.00  0.00    +0.000 A 
ATOM     10  C   UNL     1       1.388   7.042  21.155  0.00  0.00    +0.000 A 
ATOM     11  C   UNL     1       1.004   8.393  21.205  0.00  0.00    +0.000 A 
ATOM     12  C   UNL     1       1.224   9.169  20.092  0.00  0.00    +0.000 A 
ATOM     13  C   UNL     1       1.806   8.645  18.966  0.00  0.00    +0.000 A 
ATOM     14  C   UNL     1       2.225   7.329  18.911  0.00  0.00    +0.000 A 
ATOM     15  O   UNL     1       1.921   9.557  17.967  0.00  0.00    +0.000 OA
ATOM     16  C   UNL     1       1.343  10.721  18.595  0.00  0.00    +0.000 C 
ATOM     17  O   UNL     1       0.900  10.480  19.949  0.00  0.00    +0.000 OA
ENDBRANCH   6   9
BRANCH   1  18
ATOM     18  C   UNL     1       5.554   4.131  17.566  0.00  0.00    +0.000 C 
ATOM     19  O   UNL     1       5.750   3.508  16.532  0.00  0.00    +0.000 OA
BRANCH  18  20
ATOM     20  O   UNL     1       6.527   4.384  18.485  0.00  0.00    +0.000 OA
ATOM     21  C   UNL     1       7.818   4.705  17.954  0.00  0.00    +0.000 C 
ENDBRANCH  18  20
ENDBRANCH   1  18
BRANCH   1  22
ATOM     22  C   UNL     1       4.226   6.243  17.561  0.00  0.00    +0.000 C 
BRANCH  22  24
ATOM     23  C   UNL     1       5.040   6.708  15.230  0.00  0.00    +0.000 C 
ATOM     24  C   UNL     1       5.256   6.683  16.555  0.00  0.00    +0.000 C 
ENDBRANCH  22  24
ENDBRANCH   1  22
TORSDOF 5
ENDMDL
MODEL 9
REMARK VINA RESULT:      -5.9      7.822     11.193
REMARK  Name = 
REMARK  7 active torsions:
REMARK  status: ('A' for Active; 'I' for Inactive)
REMARK    1  A    between atoms: C_2  and  C_3
REMARK    2  A    between atoms: C_3  and  C_4
REMARK    3  A    between atoms: C_4  and  C_5
REMARK    4  A    between atoms: C_5  and  O_7
REMARK    5  A    between atoms: O_7  and  C_8
REMARK    6  A    between atoms: C_13  and  C_14
REMARK    7  A    between atoms: C_23  and  C_24
REMARK                            x       y       z     vdW  Elec       q    Type
REMARK                         _______ _______ _______ _____ _____    ______ ____
ROOT
ATOM      1  C   UNL     1      10.095  13.296  19.840  0.00  0.00    +0.000 C 
ATOM      2  C   UNL     1      11.189  14.303  20.255  0.00  0.00    +0.000 C 
ATOM      3  C   UNL     1      10.986  15.679  19.673  0.00  0.00    +0.000 C 
ATOM      4  O   UNL     1      11.178  16.692  20.344  0.00  0.00    +0.000 OA
ATOM      5  C   UNL     1      10.724  15.760  18.191  0.00  0.00    +0.000 C 
ATOM      6  C   UNL     1       9.500  14.908  17.808  0.00  0.00    +0.000 C 
ATOM      7  C   UNL     1       9.764  13.418  18.290  0.00  0.00    +0.000 C 
ATOM      8  C   UNL     1      10.871  12.819  17.386  0.00  0.00    +0.000 C 
ENDROOT
BRANCH   6   9
ATOM      9  C   UNL     1       8.143  15.564  18.132  0.00  0.00    +0.000 A 
ATOM     10  C   UNL     1       8.057  16.798  18.827  0.00  0.00    +0.000 A 
ATOM     11  C   UNL     1       6.825  17.402  19.128  0.00  0.00    +0.000 A 
ATOM     12  C   UNL     1       5.674  16.730  18.794  0.00  0.00    +0.000 A 
ATOM     13  C   UNL     1       5.723  15.505  18.178  0.00  0.00    +0.000 A 
ATOM     14  C   UNL     1       6.925  14.910  17.838  0.00  0.00    +0.000 A 
ATOM     15  O   UNL     1       4.490  14.988  17.947  0.00  0.00    +0.000 OA
ATOM     16  C   UNL     1       3.653  16.032  18.488  0.00  0.00    +0.000 C 
ATOM     17  O   UNL     1       4.403  17.144  19.026  0.00  0.00    +0.000 OA
ENDBRANCH   6   9
BRANCH   1  18
ATOM     18  C   UNL     1      10.586  11.877  20.214  0.00  0.00    +0.000 C 
ATOM     19  O   UNL     1      11.762  11.563  20.328  0.00  0.00    +0.000 OA
BRANCH  18  20
ATOM     20  O   UNL     1       9.555  11.009  20.414  0.00  0.00    +0.000 OA
ATOM     21  C   UNL     1       9.295  10.093  19.344  0.00  0.00    +0.000 C 
ENDBRANCH  18  20
ENDBRANCH   1  18
BRANCH   1  22
ATOM     22  C   UNL     1       8.780  13.540  20.660  0.00  0.00    +0.000 C 
BRANCH  22  24
ATOM     23  C   UNL     1       8.278  15.362  22.315  0.00  0.00    +0.000 C 
ATOM     24  C   UNL     1       8.890  14.209  22.005  0.00  0.00    +0.000 C 
ENDBRANCH  22  24
ENDBRANCH   1  22
TORSDOF 5
ENDMDL
