MODEL 1
REMARK VINA RESULT:      -6.2      0.000      0.000
REMARK  Name = 
REMARK  9 active torsions:
REMARK  status: ('A' for Active; 'I' for Inactive)
REMARK    1  A    between atoms: C_1  and  C_2
REMARK    2  A    between atoms: C_2  and  C_3
REMARK    3  A    between atoms: C_2  and  C_4
REMARK    4  A    between atoms: C_7  and  O_8
REMARK    5  A    between atoms: C_10  and  C_11
REMARK    6  A    between atoms: C_11  and  S_12
REMARK    7  A    between atoms: S_12  and  C_13
REMARK    8  A    between atoms: C_13  and  C_14
REMARK    9  A    between atoms: C_14  and  O_16
REMARK                            x       y       z     vdW  Elec       q    Type
REMARK                         _______ _______ _______ _____ _____    ______ ____
ROOT
ATOM      1  C   UNL     1       6.611   4.390  14.680  0.00  0.00    +0.000 A 
ATOM      2  C   UNL     1       7.323   4.532  15.857  0.00  0.00    +0.000 A 
ATOM      3  C   UNL     1       6.488   4.829  16.984  0.00  0.00    +0.000 A 
ATOM      4  C   UNL     1       6.719   5.022  18.344  0.00  0.00    +0.000 A 
ATOM      5  N   UNL     1       5.712   5.265  19.197  0.00  0.00    +0.000 NA
ATOM      6  C   UNL     1       4.461   5.362  18.692  0.00  0.00    +0.000 A 
ATOM      7  N   UNL     1       4.119   5.195  17.407  0.00  0.00    +0.000 NA
ATOM      8  C   UNL     1       5.160   4.924  16.603  0.00  0.00    +0.000 A 
ATOM      9  S   UNL     1       4.936   4.646  14.939  0.00  0.00    +0.000 S 
ENDROOT
BRANCH   1  11
ATOM     10  C   UNL     1       6.005   3.473  12.427  0.00  0.00    +0.000 C 
ATOM     11  C   UNL     1       7.123   4.052  13.296  0.00  0.00    +0.000 C 
ATOM     12  C   UNL     1       7.744   5.281  12.628  0.00  0.00    +0.000 C 
ENDBRANCH   1  11
BRANCH   4  13
ATOM     13  O   UNL     1       7.958   4.948  18.929  0.00  0.00    +0.000 OA
ATOM     14  H   UNL     1       7.945   5.507  19.722  0.00  0.00    +0.000 HD
ENDBRANCH   4  13
BRANCH   6  15
ATOM     15  C   UNL     1       3.352   5.618  19.689  0.00  0.00    +0.000 C 
BRANCH  15  16
ATOM     16  S   UNL     1       2.069   4.315  19.704  0.00  0.00    +0.000 S 
BRANCH  16  17
ATOM     17  C   UNL     1       2.971   2.932  20.472  0.00  0.00    +0.000 C 
BRANCH  17  18
ATOM     18  C   UNL     1       3.821   2.170  19.482  0.00  0.00    +0.000 C 
ATOM     19  O   UNL     1       3.372   1.600  18.496  0.00  0.00    +0.000 OA
BRANCH  18  20
ATOM     20  O   UNL     1       5.141   2.147  19.773  0.00  0.00    +0.000 OA
ATOM     21  H   UNL     1       5.397   1.589  20.549  0.00  0.00    +0.000 HD
ENDBRANCH  18  20
ENDBRANCH  17  18
ENDBRANCH  16  17
ENDBRANCH  15  16
ENDBRANCH   6  15
TORSDOF 7
ENDMDL
MODEL 2
REMARK VINA RESULT:      -6.0      1.312      1.449
REMARK  Name = 
REMARK  9 active torsions:
REMARK  status: ('A' for Active; 'I' for Inactive)
REMARK    1  A    between atoms: C_1  and  C_2
REMARK    2  A    between atoms: C_2  and  C_3
REMARK    3  A    between atoms: C_2  and  C_4
REMARK    4  A    between atoms: C_7  and  O_8
REMARK    5  A    between atoms: C_10  and  C_11
REMARK    6  A    between atoms: C_11  and  S_12
REMARK    7  A    between atoms: S_12  and  C_13
REMARK    8  A    between atoms: C_13  and  C_14
REMARK    9  A    between atoms: C_14  and  O_16
REMARK                            x       y       z     vdW  Elec       q    Type
REMARK                         _______ _______ _______ _____ _____    ______ ____
ROOT
ATOM      1  C   UNL     1       6.640   4.458  14.819  0.00  0.00    +0.000 A 
ATOM      2  C   UNL     1       7.307   4.601  16.022  0.00  0.00    +0.000 A 
ATOM      3  C   UNL     1       6.428   4.888  17.118  0.00  0.00    +0.000 A 
ATOM      4  C   UNL     1       6.607   5.077  18.487  0.00  0.00    +0.000 A 
ATOM      5  N   UNL     1       5.568   5.309  19.303  0.00  0.00    +0.000 NA
ATOM      6  C   UNL     1       4.335   5.397  18.751  0.00  0.00    +0.000 A 
ATOM      7  N   UNL     1       4.042   5.233  17.454  0.00  0.00    +0.000 NA
ATOM      8  C   UNL     1       5.114   4.973  16.688  0.00  0.00    +0.000 A 
ATOM      9  S   UNL     1       4.955   4.700  15.016  0.00  0.00    +0.000 S 
ENDROOT
BRANCH   1  11
ATOM     10  C   UNL     1       6.123   3.552  12.539  0.00  0.00    +0.000 C 
ATOM     11  C   UNL     1       7.206   4.129  13.453  0.00  0.00    +0.000 C 
ATOM     12  C   UNL     1       7.846   5.365  12.816  0.00  0.00    +0.000 C 
ENDBRANCH   1  11
BRANCH   4  13
ATOM     13  O   UNL     1       7.824   5.010  19.116  0.00  0.00    +0.000 OA
ATOM     14  H   UNL     1       7.851   4.182  19.621  0.00  0.00    +0.000 HD
ENDBRANCH   4  13
BRANCH   6  15
ATOM     15  C   UNL     1       3.188   5.640  19.708  0.00  0.00    +0.000 C 
BRANCH  15  16
ATOM     16  S   UNL     1       2.689   4.151  20.643  0.00  0.00    +0.000 S 
BRANCH  16  17
ATOM     17  C   UNL     1       1.089   3.759  19.867  0.00  0.00    +0.000 C 
BRANCH  17  18
ATOM     18  C   UNL     1       1.243   3.097  18.517  0.00  0.00    +0.000 C 
ATOM     19  O   UNL     1       1.103   3.684  17.451  0.00  0.00    +0.000 OA
BRANCH  18  20
ATOM     20  O   UNL     1       1.538   1.779  18.565  0.00  0.00    +0.000 OA
ATOM     21  H   UNL     1       1.098   1.269  19.290  0.00  0.00    +0.000 HD
ENDBRANCH  18  20
ENDBRANCH  17  18
ENDBRANCH  16  17
ENDBRANCH  15  16
ENDBRANCH   6  15
TORSDOF 7
ENDMDL
MODEL 3
REMARK VINA RESULT:      -6.0      1.237      1.478
REMARK  Name = 
REMARK  9 active torsions:
REMARK  status: ('A' for Active; 'I' for Inactive)
REMARK    1  A    between atoms: C_1  and  C_2
REMARK    2  A    between atoms: C_2  and  C_3
REMARK    3  A    between atoms: C_2  and  C_4
REMARK    4  A    between atoms: C_7  and  O_8
REMARK    5  A    between atoms: C_10  and  C_11
REMARK    6  A    between atoms: C_11  and  S_12
REMARK    7  A    between atoms: S_12  and  C_13
REMARK    8  A    between atoms: C_13  and  C_14
REMARK    9  A    between atoms: C_14  and  O_16
REMARK                            x       y       z     vdW  Elec       q    Type
REMARK                         _______ _______ _______ _____ _____    ______ ____
ROOT
ATOM      1  C   UNL     1       6.299   4.064  13.873  0.00  0.00    +0.000 A 
ATOM      2  C   UNL     1       6.944   5.108  14.510  0.00  0.00    +0.000 A 
ATOM      3  C   UNL     1       6.476   5.321  15.849  0.00  0.00    +0.000 A 
ATOM      4  C   UNL     1       6.824   6.197  16.874  0.00  0.00    +0.000 A 
ATOM      5  N   UNL     1       6.218   6.149  18.071  0.00  0.00    +0.000 NA
ATOM      6  C   UNL     1       5.223   5.248  18.243  0.00  0.00    +0.000 A 
ATOM      7  N   UNL     1       4.805   4.358  17.333  0.00  0.00    +0.000 NA
ATOM      8  C   UNL     1       5.465   4.429  16.166  0.00  0.00    +0.000 A 
ATOM      9  S   UNL     1       5.109   3.364  14.888  0.00  0.00    +0.000 S 
ENDROOT
BRANCH   1  11
ATOM     10  C   UNL     1       5.198   3.145  11.816  0.00  0.00    +0.000 C 
ATOM     11  C   UNL     1       6.526   3.518  12.479  0.00  0.00    +0.000 C 
ATOM     12  C   UNL     1       7.293   4.523  11.617  0.00  0.00    +0.000 C 
ENDBRANCH   1  11
BRANCH   4  13
ATOM     13  O   UNL     1       7.814   7.140  16.773  0.00  0.00    +0.000 OA
ATOM     14  H   UNL     1       7.848   7.436  15.850  0.00  0.00    +0.000 HD
ENDBRANCH   4  13
BRANCH   6  15
ATOM     15  C   UNL     1       4.579   5.213  19.612  0.00  0.00    +0.000 C 
BRANCH  15  16
ATOM     16  S   UNL     1       2.870   4.565  19.598  0.00  0.00    +0.000 S 
BRANCH  16  17
ATOM     17  C   UNL     1       3.072   3.000  20.506  0.00  0.00    +0.000 C 
BRANCH  17  18
ATOM     18  C   UNL     1       4.198   2.152  19.962  0.00  0.00    +0.000 C 
ATOM     19  O   UNL     1       5.164   1.795  20.626  0.00  0.00    +0.000 OA
BRANCH  18  20
ATOM     20  O   UNL     1       4.074   1.818  18.658  0.00  0.00    +0.000 OA
ATOM     21  H   UNL     1       3.890   0.863  18.477  0.00  0.00    +0.000 HD
ENDBRANCH  18  20
ENDBRANCH  17  18
ENDBRANCH  16  17
ENDBRANCH  15  16
ENDBRANCH   6  15
TORSDOF 7
ENDMDL
MODEL 4
REMARK VINA RESULT:      -6.0      3.142      6.679
REMARK  Name = 
REMARK  9 active torsions:
REMARK  status: ('A' for Active; 'I' for Inactive)
REMARK    1  A    between atoms: C_1  and  C_2
REMARK    2  A    between atoms: C_2  and  C_3
REMARK    3  A    between atoms: C_2  and  C_4
REMARK    4  A    between atoms: C_7  and  O_8
REMARK    5  A    between atoms: C_10  and  C_11
REMARK    6  A    between atoms: C_11  and  S_12
REMARK    7  A    between atoms: S_12  and  C_13
REMARK    8  A    between atoms: C_13  and  C_14
REMARK    9  A    between atoms: C_14  and  O_16
REMARK                            x       y       z     vdW  Elec       q    Type
REMARK                         _______ _______ _______ _____ _____    ______ ____
ROOT
ATOM      1  C   UNL     1       1.341   8.932  19.748  0.00  0.00    +0.000 A 
ATOM      2  C   UNL     1       1.591   7.772  20.457  0.00  0.00    +0.000 A 
ATOM      3  C   UNL     1       2.351   6.812  19.710  0.00  0.00    +0.000 A 
ATOM      4  C   UNL     1       2.867   5.549  19.989  0.00  0.00    +0.000 A 
ATOM      5  N   UNL     1       3.587   4.872  19.081  0.00  0.00    +0.000 NA
ATOM      6  C   UNL     1       3.762   5.433  17.862  0.00  0.00    +0.000 A 
ATOM      7  N   UNL     1       3.314   6.638  17.482  0.00  0.00    +0.000 NA
ATOM      8  C   UNL     1       2.628   7.284  18.438  0.00  0.00    +0.000 A 
ATOM      9  S   UNL     1       2.001   8.843  18.169  0.00  0.00    +0.000 S 
ENDROOT
BRANCH   1  11
ATOM     10  C   UNL     1      -0.555  10.494  19.247  0.00  0.00    +0.000 C 
ATOM     11  C   UNL     1       0.603  10.177  20.194  0.00  0.00    +0.000 C 
ATOM     12  C   UNL     1       0.099  10.027  21.631  0.00  0.00    +0.000 C 
ENDBRANCH   1  11
BRANCH   4  13
ATOM     13  O   UNL     1       2.726   4.912  21.195  0.00  0.00    +0.000 OA
ATOM     14  H   UNL     1       3.406   5.259  21.794  0.00  0.00    +0.000 HD
ENDBRANCH   4  13
BRANCH   6  15
ATOM     15  C   UNL     1       4.594   4.646  16.874  0.00  0.00    +0.000 C 
BRANCH  15  16
ATOM     16  S   UNL     1       5.801   5.669  15.957  0.00  0.00    +0.000 S 
BRANCH  16  17
ATOM     17  C   UNL     1       6.941   6.160  17.289  0.00  0.00    +0.000 C 
BRANCH  17  18
ATOM     18  C   UNL     1       7.428   4.983  18.102  0.00  0.00    +0.000 C 
ATOM     19  O   UNL     1       8.235   4.158  17.690  0.00  0.00    +0.000 OA
BRANCH  18  20
ATOM     20  O   UNL     1       6.890   4.889  19.339  0.00  0.00    +0.000 OA
ATOM     21  H   UNL     1       6.992   5.689  19.910  0.00  0.00    +0.000 HD
ENDBRANCH  18  20
ENDBRANCH  17  18
ENDBRANCH  16  17
ENDBRANCH  15  16
ENDBRANCH   6  15
TORSDOF 7
ENDMDL
MODEL 5
REMARK VINA RESULT:      -5.9      4.445      7.006
REMARK  Name = 
REMARK  9 active torsions:
REMARK  status: ('A' for Active; 'I' for Inactive)
REMARK    1  A    between atoms: C_1  and  C_2
REMARK    2  A    between atoms: C_2  and  C_3
REMARK    3  A    between atoms: C_2  and  C_4
REMARK    4  A    between atoms: C_7  and  O_8
REMARK    5  A    between atoms: C_10  and  C_11
REMARK    6  A    between atoms: C_11  and  S_12
REMARK    7  A    between atoms: S_12  and  C_13
REMARK    8  A    between atoms: C_13  and  C_14
REMARK    9  A    between atoms: C_14  and  O_16
REMARK                            x       y       z     vdW  Elec       q    Type
REMARK                         _______ _______ _______ _____ _____    ______ ____
ROOT
ATOM      1  C   UNL     1       4.374   4.415  18.352  0.00  0.00    +0.000 A 
ATOM      2  C   UNL     1       5.570   4.354  19.043  0.00  0.00    +0.000 A 
ATOM      3  C   UNL     1       6.435   5.463  18.763  0.00  0.00    +0.000 A 
ATOM      4  C   UNL     1       7.689   5.860  19.220  0.00  0.00    +0.000 A 
ATOM      5  N   UNL     1       8.262   6.996  18.793  0.00  0.00    +0.000 NA
ATOM      6  C   UNL     1       7.604   7.729  17.865  0.00  0.00    +0.000 A 
ATOM      7  N   UNL     1       6.398   7.448  17.354  0.00  0.00    +0.000 NA
ATOM      8  C   UNL     1       5.857   6.319  17.839  0.00  0.00    +0.000 A 
ATOM      9  S   UNL     1       4.314   5.799  17.343  0.00  0.00    +0.000 S 
ENDROOT
BRANCH   1  11
ATOM     10  C   UNL     1       2.194   3.774  17.290  0.00  0.00    +0.000 C 
ATOM     11  C   UNL     1       3.202   3.457  18.398  0.00  0.00    +0.000 C 
ATOM     12  C   UNL     1       3.677   2.007  18.294  0.00  0.00    +0.000 C 
ENDBRANCH   1  11
BRANCH   4  13
ATOM     13  O   UNL     1       8.419   5.168  20.152  0.00  0.00    +0.000 OA
ATOM     14  H   UNL     1       9.319   5.061  19.804  0.00  0.00    +0.000 HD
ENDBRANCH   4  13
BRANCH   6  15
ATOM     15  C   UNL     1       8.276   9.011  17.423  0.00  0.00    +0.000 C 
BRANCH  15  16
ATOM     16  S   UNL     1       9.004   9.966  18.802  0.00  0.00    +0.000 S 
BRANCH  16  17
ATOM     17  C   UNL     1       9.921  11.255  17.900  0.00  0.00    +0.000 C 
BRANCH  17  18
ATOM     18  C   UNL     1      11.252  11.578  18.539  0.00  0.00    +0.000 C 
ATOM     19  O   UNL     1      11.415  11.706  19.746  0.00  0.00    +0.000 OA
BRANCH  18  20
ATOM     20  O   UNL     1      12.273  11.734  17.667  0.00  0.00    +0.000 OA
ATOM     21  H   UNL     1      13.129  11.315  17.932  0.00  0.00    +0.000 HD
ENDBRANCH  18  20
ENDBRANCH  17  18
ENDBRANCH  16  17
ENDBRANCH  15  16
ENDBRANCH   6  15
TORSDOF 7
ENDMDL
MODEL 6
REMARK VINA RESULT:      -5.9      3.651      7.286
REMARK  Name = 
REMARK  9 active torsions:
REMARK  status: ('A' for Active; 'I' for Inactive)
REMARK    1  A    between atoms: C_1  and  C_2
REMARK    2  A    between atoms: C_2  and  C_3
REMARK    3  A    between atoms: C_2  and  C_4
REMARK    4  A    between atoms: C_7  and  O_8
REMARK    5  A    between atoms: C_10  and  C_11
REMARK    6  A    between atoms: C_11  and  S_12
REMARK    7  A    between atoms: S_12  and  C_13
REMARK    8  A    between atoms: C_13  and  C_14
REMARK    9  A    between atoms: C_14  and  O_16
REMARK                            x       y       z     vdW  Elec       q    Type
REMARK                         _______ _______ _______ _____ _____    ______ ____
ROOT
ATOM      1  C   UNL     1       0.722   9.179  20.528  0.00  0.00    +0.000 A 
ATOM      2  C   UNL     1       1.083   7.932  21.003  0.00  0.00    +0.000 A 
ATOM      3  C   UNL     1       1.953   7.223  20.112  0.00  0.00    +0.000 A 
ATOM      4  C   UNL     1       2.597   5.988  20.155  0.00  0.00    +0.000 A 
ATOM      5  N   UNL     1       3.401   5.583  19.159  0.00  0.00    +0.000 NA
ATOM      6  C   UNL     1       3.536   6.392  18.083  0.00  0.00    +0.000 A 
ATOM      7  N   UNL     1       2.969   7.596  17.932  0.00  0.00    +0.000 NA
ATOM      8  C   UNL     1       2.201   7.966  18.969  0.00  0.00    +0.000 A 
ATOM      9  S   UNL     1       1.416   9.475  18.989  0.00  0.00    +0.000 S 
ENDROOT
BRANCH   1  11
ATOM     10  C   UNL     1      -0.381   9.902  22.660  0.00  0.00    +0.000 C 
ATOM     11  C   UNL     1      -0.151  10.228  21.182  0.00  0.00    +0.000 C 
ATOM     12  C   UNL     1       0.461  11.622  21.027  0.00  0.00    +0.000 C 
ENDBRANCH   1  11
BRANCH   4  13
ATOM     13  O   UNL     1       2.503   5.112  21.205  0.00  0.00    +0.000 OA
ATOM     14  H   UNL     1       2.828   4.249  20.902  0.00  0.00    +0.000 HD
ENDBRANCH   4  13
BRANCH   6  15
ATOM     15  C   UNL     1       4.465   5.907  16.992  0.00  0.00    +0.000 C 
BRANCH  15  16
ATOM     16  S   UNL     1       4.607   4.086  16.910  0.00  0.00    +0.000 S 
BRANCH  16  17
ATOM     17  C   UNL     1       5.931   3.885  15.676  0.00  0.00    +0.000 C 
BRANCH  17  18
ATOM     18  C   UNL     1       7.200   4.609  16.061  0.00  0.00    +0.000 C 
ATOM     19  O   UNL     1       7.932   4.259  16.978  0.00  0.00    +0.000 OA
BRANCH  18  20
ATOM     20  O   UNL     1       7.472   5.705  15.317  0.00  0.00    +0.000 OA
ATOM     21  H   UNL     1       8.029   6.393  15.758  0.00  0.00    +0.000 HD
ENDBRANCH  18  20
ENDBRANCH  17  18
ENDBRANCH  16  17
ENDBRANCH  15  16
ENDBRANCH   6  15
TORSDOF 7
ENDMDL
MODEL 7
REMARK VINA RESULT:      -5.9      1.485      1.900
REMARK  Name = 
REMARK  9 active torsions:
REMARK  status: ('A' for Active; 'I' for Inactive)
REMARK    1  A    between atoms: C_1  and  C_2
REMARK    2  A    between atoms: C_2  and  C_3
REMARK    3  A    between atoms: C_2  and  C_4
REMARK    4  A    between atoms: C_7  and  O_8
REMARK    5  A    between atoms: C_10  and  C_11
REMARK    6  A    between atoms: C_11  and  S_12
REMARK    7  A    between atoms: S_12  and  C_13
REMARK    8  A    between atoms: C_13  and  C_14
REMARK    9  A    between atoms: C_14  and  O_16
REMARK                            x       y       z     vdW  Elec       q    Type
REMARK                         _______ _______ _______ _____ _____    ______ ____
ROOT
ATOM      1  C   UNL     1       6.514   4.751  14.454  0.00  0.00    +0.000 A 
ATOM      2  C   UNL     1       7.342   4.820  15.559  0.00  0.00    +0.000 A 
ATOM      3  C   UNL     1       6.645   4.614  16.794  0.00  0.00    +0.000 A 
ATOM      4  C   UNL     1       7.029   4.555  18.132  0.00  0.00    +0.000 A 
ATOM      5  N   UNL     1       6.139   4.311  19.106  0.00  0.00    +0.000 NA
ATOM      6  C   UNL     1       4.840   4.165  18.757  0.00  0.00    +0.000 A 
ATOM      7  N   UNL     1       4.355   4.200  17.508  0.00  0.00    +0.000 NA
ATOM      8  C   UNL     1       5.292   4.417  16.571  0.00  0.00    +0.000 A 
ATOM      9  S   UNL     1       4.889   4.466  14.919  0.00  0.00    +0.000 S 
ENDROOT
BRANCH   1  11
ATOM     10  C   UNL     1       8.266   5.495  12.822  0.00  0.00    +0.000 C 
ATOM     11  C   UNL     1       6.872   4.886  12.989  0.00  0.00    +0.000 C 
ATOM     12  C   UNL     1       6.787   3.533  12.279  0.00  0.00    +0.000 C 
ENDBRANCH   1  11
BRANCH   4  13
ATOM     13  O   UNL     1       8.323   4.701  18.564  0.00  0.00    +0.000 OA
ATOM     14  H   UNL     1       8.305   4.773  19.532  0.00  0.00    +0.000 HD
ENDBRANCH   4  13
BRANCH   6  15
ATOM     15  C   UNL     1       3.871   3.872  19.881  0.00  0.00    +0.000 C 
BRANCH  15  16
ATOM     16  S   UNL     1       2.511   5.087  20.008  0.00  0.00    +0.000 S 
BRANCH  16  17
ATOM     17  C   UNL     1       1.051   4.003  19.912  0.00  0.00    +0.000 C 
BRANCH  17  18
ATOM     18  C   UNL     1       0.999   3.208  18.628  0.00  0.00    +0.000 C 
ATOM     19  O   UNL     1       0.680   2.027  18.571  0.00  0.00    +0.000 OA
BRANCH  18  20
ATOM     20  O   UNL     1       1.351   3.900  17.521  0.00  0.00    +0.000 OA
ATOM     21  H   UNL     1       0.633   4.441  17.110  0.00  0.00    +0.000 HD
ENDBRANCH  18  20
ENDBRANCH  17  18
ENDBRANCH  16  17
ENDBRANCH  15  16
ENDBRANCH   6  15
TORSDOF 7
ENDMDL
MODEL 8
REMARK VINA RESULT:      -5.9      3.821      7.143
REMARK  Name = 
REMARK  9 active torsions:
REMARK  status: ('A' for Active; 'I' for Inactive)
REMARK    1  A    between atoms: C_1  and  C_2
REMARK    2  A    between atoms: C_2  and  C_3
REMARK    3  A    between atoms: C_2  and  C_4
REMARK    4  A    between atoms: C_7  and  O_8
REMARK    5  A    between atoms: C_10  and  C_11
REMARK    6  A    between atoms: C_11  and  S_12
REMARK    7  A    between atoms: S_12  and  C_13
REMARK    8  A    between atoms: C_13  and  C_14
REMARK    9  A    between atoms: C_14  and  O_16
REMARK                            x       y       z     vdW  Elec       q    Type
REMARK                         _______ _______ _______ _____ _____    ______ ____
ROOT
ATOM      1  C   UNL     1       0.752   9.511  19.841  0.00  0.00    +0.000 A 
ATOM      2  C   UNL     1       1.099   8.324  20.459  0.00  0.00    +0.000 A 
ATOM      3  C   UNL     1       2.020   7.541  19.689  0.00  0.00    +0.000 A 
ATOM      4  C   UNL     1       2.673   6.326  19.890  0.00  0.00    +0.000 A 
ATOM      5  N   UNL     1       3.530   5.834  18.983  0.00  0.00    +0.000 NA
ATOM      6  C   UNL     1       3.712   6.531  17.837  0.00  0.00    +0.000 A 
ATOM      7  N   UNL     1       3.142   7.705  17.535  0.00  0.00    +0.000 NA
ATOM      8  C   UNL     1       2.319   8.167  18.490  0.00  0.00    +0.000 A 
ATOM      9  S   UNL     1       1.520   9.660  18.316  0.00  0.00    +0.000 S 
ENDROOT
BRANCH   1  11
ATOM     10  C   UNL     1       0.625  11.885  20.636  0.00  0.00    +0.000 C 
ATOM     11  C   UNL     1      -0.164  10.609  20.340  0.00  0.00    +0.000 C 
ATOM     12  C   UNL     1      -1.282  10.888  19.333  0.00  0.00    +0.000 C 
ENDBRANCH   1  11
BRANCH   4  13
ATOM     13  O   UNL     1       2.533   5.560  21.019  0.00  0.00    +0.000 OA
ATOM     14  H   UNL     1       3.291   5.744  21.597  0.00  0.00    +0.000 HD
ENDBRANCH   4  13
BRANCH   6  15
ATOM     15  C   UNL     1       4.700   5.951  16.849  0.00  0.00    +0.000 C 
BRANCH  15  16
ATOM     16  S   UNL     1       4.655   4.126  16.758  0.00  0.00    +0.000 S 
BRANCH  16  17
ATOM     17  C   UNL     1       5.957   3.796  15.529  0.00  0.00    +0.000 C 
BRANCH  17  18
ATOM     18  C   UNL     1       7.230   4.561  15.808  0.00  0.00    +0.000 C 
ATOM     19  O   UNL     1       7.906   4.412  16.818  0.00  0.00    +0.000 OA
BRANCH  18  20
ATOM     20  O   UNL     1       7.572   5.455  14.853  0.00  0.00    +0.000 OA
ATOM     21  H   UNL     1       8.124   6.216  15.159  0.00  0.00    +0.000 HD
ENDBRANCH  18  20
ENDBRANCH  17  18
ENDBRANCH  16  17
ENDBRANCH  15  16
ENDBRANCH   6  15
TORSDOF 7
ENDMDL
MODEL 9
REMARK VINA RESULT:      -5.8      2.896      6.262
REMARK  Name = 
REMARK  9 active torsions:
REMARK  status: ('A' for Active; 'I' for Inactive)
REMARK    1  A    between atoms: C_1  and  C_2
REMARK    2  A    between atoms: C_2  and  C_3
REMARK    3  A    between atoms: C_2  and  C_4
REMARK    4  A    between atoms: C_7  and  O_8
REMARK    5  A    between atoms: C_10  and  C_11
REMARK    6  A    between atoms: C_11  and  S_12
REMARK    7  A    between atoms: S_12  and  C_13
REMARK    8  A    between atoms: C_13  and  C_14
REMARK    9  A    between atoms: C_14  and  O_16
REMARK                            x       y       z     vdW  Elec       q    Type
REMARK                         _______ _______ _______ _____ _____    ______ ____
ROOT
ATOM      1  C   UNL     1       3.414   4.028  19.390  0.00  0.00    +0.000 A 
ATOM      2  C   UNL     1       4.736   4.357  19.625  0.00  0.00    +0.000 A 
ATOM      3  C   UNL     1       5.517   4.429  18.425  0.00  0.00    +0.000 A 
ATOM      4  C   UNL     1       6.844   4.747  18.144  0.00  0.00    +0.000 A 
ATOM      5  N   UNL     1       7.308   4.763  16.885  0.00  0.00    +0.000 NA
ATOM      6  C   UNL     1       6.457   4.417  15.890  0.00  0.00    +0.000 A 
ATOM      7  N   UNL     1       5.165   4.095  16.040  0.00  0.00    +0.000 NA
ATOM      8  C   UNL     1       4.746   4.125  17.315  0.00  0.00    +0.000 A 
ATOM      9  S   UNL     1       3.129   3.780  17.718  0.00  0.00    +0.000 S 
ENDROOT
BRANCH   1  11
ATOM     10  C   UNL     1       1.689   5.249  20.740  0.00  0.00    +0.000 C 
ATOM     11  C   UNL     1       2.280   3.883  20.383  0.00  0.00    +0.000 C 
ATOM     12  C   UNL     1       1.195   2.951  19.840  0.00  0.00    +0.000 C 
ENDBRANCH   1  11
BRANCH   4  13
ATOM     13  O   UNL     1       7.766   5.099  19.096  0.00  0.00    +0.000 OA
ATOM     14  H   UNL     1       8.287   4.309  19.310  0.00  0.00    +0.000 HD
ENDBRANCH   4  13
BRANCH   6  15
ATOM     15  C   UNL     1       7.014   4.465  14.485  0.00  0.00    +0.000 C 
BRANCH  15  16
ATOM     16  S   UNL     1       5.745   4.237  13.189  0.00  0.00    +0.000 S 
BRANCH  16  17
ATOM     17  C   UNL     1       6.589   3.087  12.058  0.00  0.00    +0.000 C 
BRANCH  17  18
ATOM     18  C   UNL     1       5.646   2.082  11.437  0.00  0.00    +0.000 C 
ATOM     19  O   UNL     1       5.963   0.933  11.156  0.00  0.00    +0.000 OA
BRANCH  18  20
ATOM     20  O   UNL     1       4.402   2.553  11.191  0.00  0.00    +0.000 OA
ATOM     21  H   UNL     1       4.204   2.761  10.245  0.00  0.00    +0.000 HD
ENDBRANCH  18  20
ENDBRANCH  17  18
ENDBRANCH  16  17
ENDBRANCH  15  16
ENDBRANCH   6  15
TORSDOF 7
ENDMDL
