MODEL 1
REMARK VINA RESULT:      -8.1      0.000      0.000
REMARK  Name = 
REMARK  4 active torsions:
REMARK  status: ('A' for Active; 'I' for Inactive)
REMARK    1  A    between atoms: C_1  and  N_2
REMARK    2  A    between atoms: C_5  and  C_6
REMARK    3  A    between atoms: C_9  and  C_10
REMARK    4  A    between atoms: C_11  and  C_12
REMARK                            x       y       z     vdW  Elec       q    Type
REMARK                         _______ _______ _______ _____ _____    ______ ____
ROOT
ATOM      1  C   UNL     1       9.815  12.219  19.063  0.00  0.00    +0.000 A 
ATOM      2  C   UNL     1       9.996  11.074  19.841  0.00  0.00    +0.000 A 
ATOM      3  C   UNL     1       9.370   9.887  19.464  0.00  0.00    +0.000 A 
ATOM      4  C   UNL     1       8.564   9.879  18.335  0.00  0.00    +0.000 A 
ATOM      5  C   UNL     1       8.385  11.069  17.650  0.00  0.00    +0.000 A 
ATOM      6  N   UNL     1       8.979  12.232  17.996  0.00  0.00    +0.000 NA
ENDROOT
BRANCH   1  11
ATOM      7  C   UNL     1      10.990  16.202  16.787  0.00  0.00    +0.000 C 
ATOM      8  N   UNL     1      10.852  15.381  17.965  0.00  0.00    +0.000 N 
ATOM      9  C   UNL     1      11.179  14.038  18.026  0.00  0.00    +0.000 C 
ATOM     10  O   UNL     1      11.811  13.424  17.178  0.00  0.00    +0.000 OA
ATOM     11  C   UNL     1      10.632  13.468  19.333  0.00  0.00    +0.000 C 
ATOM     12  C   UNL     1       9.798  14.652  19.903  0.00  0.00    +0.000 C 
ATOM     13  C   UNL     1       9.974  14.886  21.400  0.00  0.00    +0.000 C 
ATOM     14  C   UNL     1      11.004  16.005  21.549  0.00  0.00    +0.000 C 
ATOM     15  C   UNL     1      11.487  16.342  20.146  0.00  0.00    +0.000 C 
ATOM     16  C   UNL     1      10.367  15.885  19.218  0.00  0.00    +0.000 C 
ENDBRANCH   1  11
BRANCH   4  17
ATOM     17  C   UNL     1       7.963   8.684  17.847  0.00  0.00    +0.000 C 
ATOM     18  C   UNL     1       7.374   7.713  17.459  0.00  0.00    +0.000 C 
BRANCH  18  19
ATOM     19  C   UNL     1       6.616   6.580  17.037  0.00  0.00    +0.000 A 
ATOM     20  C   UNL     1       7.262   5.491  16.451  0.00  0.00    +0.000 A 
ATOM     21  C   UNL     1       6.526   4.367  16.077  0.00  0.00    +0.000 A 
ATOM     22  C   UNL     1       5.146   4.334  16.286  0.00  0.00    +0.000 A 
ATOM     23  C   UNL     1       4.501   5.426  16.862  0.00  0.00    +0.000 A 
ATOM     24  C   UNL     1       5.233   6.552  17.239  0.00  0.00    +0.000 A 
ENDBRANCH  18  19
ENDBRANCH   4  17
TORSDOF 3
ENDMDL
MODEL 2
REMARK VINA RESULT:      -7.8      7.959     11.520
REMARK  Name = 
REMARK  4 active torsions:
REMARK  status: ('A' for Active; 'I' for Inactive)
REMARK    1  A    between atoms: C_1  and  N_2
REMARK    2  A    between atoms: C_5  and  C_6
REMARK    3  A    between atoms: C_9  and  C_10
REMARK    4  A    between atoms: C_11  and  C_12
REMARK                            x       y       z     vdW  Elec       q    Type
REMARK                         _______ _______ _______ _____ _____    ______ ____
ROOT
ATOM      1  C   UNL     1       2.252   7.232  18.990  0.00  0.00    +0.000 A 
ATOM      2  C   UNL     1       2.019   7.096  20.361  0.00  0.00    +0.000 A 
ATOM      3  C   UNL     1       1.355   8.112  21.044  0.00  0.00    +0.000 A 
ATOM      4  C   UNL     1       0.960   9.247  20.350  0.00  0.00    +0.000 A 
ATOM      5  C   UNL     1       1.281   9.335  19.006  0.00  0.00    +0.000 A 
ATOM      6  N   UNL     1       1.925   8.365  18.321  0.00  0.00    +0.000 NA
ENDROOT
BRANCH   1  11
ATOM      7  C   UNL     1       6.390   5.013  18.384  0.00  0.00    +0.000 C 
ATOM      8  N   UNL     1       4.955   5.120  18.280  0.00  0.00    +0.000 N 
ATOM      9  C   UNL     1       4.282   6.267  17.899  0.00  0.00    +0.000 C 
ATOM     10  O   UNL     1       4.797   7.260  17.407  0.00  0.00    +0.000 OA
ATOM     11  C   UNL     1       2.794   6.068  18.184  0.00  0.00    +0.000 C 
ATOM     12  C   UNL     1       2.767   4.711  18.944  0.00  0.00    +0.000 C 
ATOM     13  C   UNL     1       1.650   3.767  18.512  0.00  0.00    +0.000 C 
ATOM     14  C   UNL     1       2.265   2.789  17.513  0.00  0.00    +0.000 C 
ATOM     15  C   UNL     1       3.705   3.232  17.300  0.00  0.00    +0.000 C 
ATOM     16  C   UNL     1       4.066   4.026  18.551  0.00  0.00    +0.000 C 
ENDBRANCH   1  11
BRANCH   4  17
ATOM     17  C   UNL     1       0.206  10.284  20.968  0.00  0.00    +0.000 C 
ATOM     18  C   UNL     1      -0.377  11.147  21.564  0.00  0.00    +0.000 C 
BRANCH  18  19
ATOM     19  C   UNL     1      -1.043  12.145  22.336  0.00  0.00    +0.000 A 
ATOM     20  C   UNL     1      -0.492  13.423  22.442  0.00  0.00    +0.000 A 
ATOM     21  C   UNL     1      -1.163  14.411  23.162  0.00  0.00    +0.000 A 
ATOM     22  C   UNL     1      -2.382  14.121  23.776  0.00  0.00    +0.000 A 
ATOM     23  C   UNL     1      -2.927  12.842  23.677  0.00  0.00    +0.000 A 
ATOM     24  C   UNL     1      -2.259  11.851  22.957  0.00  0.00    +0.000 A 
ENDBRANCH  18  19
ENDBRANCH   4  17
TORSDOF 3
ENDMDL
MODEL 3
REMARK VINA RESULT:      -7.7      1.240      1.547
REMARK  Name = 
REMARK  4 active torsions:
REMARK  status: ('A' for Active; 'I' for Inactive)
REMARK    1  A    between atoms: C_1  and  N_2
REMARK    2  A    between atoms: C_5  and  C_6
REMARK    3  A    between atoms: C_9  and  C_10
REMARK    4  A    between atoms: C_11  and  C_12
REMARK                            x       y       z     vdW  Elec       q    Type
REMARK                         _______ _______ _______ _____ _____    ______ ____
ROOT
ATOM      1  C   UNL     1      10.175  12.613  19.607  0.00  0.00    +0.000 A 
ATOM      2  C   UNL     1       9.519  12.711  18.378  0.00  0.00    +0.000 A 
ATOM      3  C   UNL     1       8.908  11.581  17.839  0.00  0.00    +0.000 A 
ATOM      4  C   UNL     1       8.984  10.379  18.527  0.00  0.00    +0.000 A 
ATOM      5  C   UNL     1       9.705  10.347  19.709  0.00  0.00    +0.000 A 
ATOM      6  N   UNL     1      10.307  11.427  20.251  0.00  0.00    +0.000 NA
ENDROOT
BRANCH   1  11
ATOM      7  C   UNL     1      11.174  17.106  18.497  0.00  0.00    +0.000 C 
ATOM      8  N   UNL     1      10.897  16.036  19.424  0.00  0.00    +0.000 N 
ATOM      9  C   UNL     1      11.422  14.760  19.326  0.00  0.00    +0.000 C 
ATOM     10  O   UNL     1      12.333  14.425  18.584  0.00  0.00    +0.000 OA
ATOM     11  C   UNL     1      10.680  13.857  20.311  0.00  0.00    +0.000 C 
ATOM     12  C   UNL     1       9.546  14.783  20.840  0.00  0.00    +0.000 C 
ATOM     13  C   UNL     1       9.315  14.702  22.345  0.00  0.00    +0.000 C 
ATOM     14  C   UNL     1      10.074  15.871  22.968  0.00  0.00    +0.000 C 
ATOM     15  C   UNL     1      10.817  16.562  21.834  0.00  0.00    +0.000 C 
ATOM     16  C   UNL     1      10.047  16.193  20.571  0.00  0.00    +0.000 C 
ENDBRANCH   1  11
BRANCH   4  17
ATOM     17  C   UNL     1       8.313   9.208  18.074  0.00  0.00    +0.000 C 
ATOM     18  C   UNL     1       7.724   8.205  17.781  0.00  0.00    +0.000 C 
BRANCH  18  19
ATOM     19  C   UNL     1       7.027   6.992  17.502  0.00  0.00    +0.000 A 
ATOM     20  C   UNL     1       7.608   5.766  17.830  0.00  0.00    +0.000 A 
ATOM     21  C   UNL     1       6.909   4.582  17.596  0.00  0.00    +0.000 A 
ATOM     22  C   UNL     1       5.633   4.623  17.034  0.00  0.00    +0.000 A 
ATOM     23  C   UNL     1       5.057   5.847  16.699  0.00  0.00    +0.000 A 
ATOM     24  C   UNL     1       5.751   7.035  16.932  0.00  0.00    +0.000 A 
ENDBRANCH  18  19
ENDBRANCH   4  17
TORSDOF 3
ENDMDL
MODEL 4
REMARK VINA RESULT:      -7.7      7.954     11.390
REMARK  Name = 
REMARK  4 active torsions:
REMARK  status: ('A' for Active; 'I' for Inactive)
REMARK    1  A    between atoms: C_1  and  N_2
REMARK    2  A    between atoms: C_5  and  C_6
REMARK    3  A    between atoms: C_9  and  C_10
REMARK    4  A    between atoms: C_11  and  C_12
REMARK                            x       y       z     vdW  Elec       q    Type
REMARK                         _______ _______ _______ _____ _____    ______ ____
ROOT
ATOM      1  C   UNL     1       2.449   7.168  18.688  0.00  0.00    +0.000 A 
ATOM      2  C   UNL     1       2.180   7.131  20.058  0.00  0.00    +0.000 A 
ATOM      3  C   UNL     1       1.460   8.173  20.641  0.00  0.00    +0.000 A 
ATOM      4  C   UNL     1       1.045   9.233  19.847  0.00  0.00    +0.000 A 
ATOM      5  C   UNL     1       1.403   9.227  18.510  0.00  0.00    +0.000 A 
ATOM      6  N   UNL     1       2.101   8.231  17.922  0.00  0.00    +0.000 NA
ENDROOT
BRANCH   1  11
ATOM      7  C   UNL     1       6.621   4.934  18.552  0.00  0.00    +0.000 C 
ATOM      8  N   UNL     1       5.201   5.031  18.321  0.00  0.00    +0.000 N 
ATOM      9  C   UNL     1       4.564   6.154  17.825  0.00  0.00    +0.000 C 
ATOM     10  O   UNL     1       5.120   7.123  17.328  0.00  0.00    +0.000 OA
ATOM     11  C   UNL     1       3.056   5.966  17.992  0.00  0.00    +0.000 C 
ATOM     12  C   UNL     1       2.963   4.650  18.816  0.00  0.00    +0.000 C 
ATOM     13  C   UNL     1       1.885   3.681  18.340  0.00  0.00    +0.000 C 
ATOM     14  C   UNL     1       2.582   2.655  17.449  0.00  0.00    +0.000 C 
ATOM     15  C   UNL     1       4.036   3.091  17.336  0.00  0.00    +0.000 C 
ATOM     16  C   UNL     1       4.290   3.949  18.571  0.00  0.00    +0.000 C 
ENDBRANCH   1  11
BRANCH   4  17
ATOM     17  C   UNL     1       0.237  10.286  20.360  0.00  0.00    +0.000 C 
ATOM     18  C   UNL     1      -0.500  11.109  20.828  0.00  0.00    +0.000 C 
BRANCH  18  19
ATOM     19  C   UNL     1      -1.428  12.035  21.392  0.00  0.00    +0.000 A 
ATOM     20  C   UNL     1      -1.386  12.315  22.758  0.00  0.00    +0.000 A 
ATOM     21  C   UNL     1      -2.266  13.252  23.302  0.00  0.00    +0.000 A 
ATOM     22  C   UNL     1      -3.187  13.904  22.481  0.00  0.00    +0.000 A 
ATOM     23  C   UNL     1      -3.234  13.616  21.118  0.00  0.00    +0.000 A 
ATOM     24  C   UNL     1      -2.355  12.681  20.570  0.00  0.00    +0.000 A 
ENDBRANCH  18  19
ENDBRANCH   4  17
TORSDOF 3
ENDMDL
MODEL 5
REMARK VINA RESULT:      -7.7      1.139      1.431
REMARK  Name = 
REMARK  4 active torsions:
REMARK  status: ('A' for Active; 'I' for Inactive)
REMARK    1  A    between atoms: C_1  and  N_2
REMARK    2  A    between atoms: C_5  and  C_6
REMARK    3  A    between atoms: C_9  and  C_10
REMARK    4  A    between atoms: C_11  and  C_12
REMARK                            x       y       z     vdW  Elec       q    Type
REMARK                         _______ _______ _______ _____ _____    ______ ____
ROOT
ATOM      1  C   UNL     1      10.398  13.130  19.610  0.00  0.00    +0.000 A 
ATOM      2  C   UNL     1      10.389  12.063  20.511  0.00  0.00    +0.000 A 
ATOM      3  C   UNL     1       9.790  10.861  20.139  0.00  0.00    +0.000 A 
ATOM      4  C   UNL     1       9.198  10.760  18.889  0.00  0.00    +0.000 A 
ATOM      5  C   UNL     1       9.193  11.881  18.076  0.00  0.00    +0.000 A 
ATOM      6  N   UNL     1       9.765  13.057  18.413  0.00  0.00    +0.000 NA
ENDROOT
BRANCH   1  11
ATOM      7  C   UNL     1      11.467  17.207  17.452  0.00  0.00    +0.000 C 
ATOM      8  N   UNL     1      11.368  16.342  18.602  0.00  0.00    +0.000 N 
ATOM      9  C   UNL     1      11.713  15.003  18.607  0.00  0.00    +0.000 C 
ATOM     10  O   UNL     1      12.331  14.428  17.723  0.00  0.00    +0.000 OA
ATOM     11  C   UNL     1      11.205  14.379  19.906  0.00  0.00    +0.000 C 
ATOM     12  C   UNL     1      10.372  15.530  20.538  0.00  0.00    +0.000 C 
ATOM     13  C   UNL     1      10.582  15.713  22.038  0.00  0.00    +0.000 C 
ATOM     14  C   UNL     1      11.601  16.838  22.203  0.00  0.00    +0.000 C 
ATOM     15  C   UNL     1      12.046  17.232  20.802  0.00  0.00    +0.000 C 
ATOM     16  C   UNL     1      10.908  16.795  19.885  0.00  0.00    +0.000 C 
ENDBRANCH   1  11
BRANCH   4  17
ATOM     17  C   UNL     1       8.643   9.539  18.415  0.00  0.00    +0.000 C 
ATOM     18  C   UNL     1       8.154   8.488  18.102  0.00  0.00    +0.000 C 
BRANCH  18  19
ATOM     19  C   UNL     1       7.580   7.217  17.801  0.00  0.00    +0.000 A 
ATOM     20  C   UNL     1       7.882   6.112  18.598  0.00  0.00    +0.000 A 
ATOM     21  C   UNL     1       7.288   4.879  18.329  0.00  0.00    +0.000 A 
ATOM     22  C   UNL     1       6.396   4.750  17.264  0.00  0.00    +0.000 A 
ATOM     23  C   UNL     1       6.102   5.852  16.463  0.00  0.00    +0.000 A 
ATOM     24  C   UNL     1       6.692   7.088  16.729  0.00  0.00    +0.000 A 
ENDBRANCH  18  19
ENDBRANCH   4  17
TORSDOF 3
ENDMDL
MODEL 6
REMARK VINA RESULT:      -7.7      8.047      9.570
REMARK  Name = 
REMARK  4 active torsions:
REMARK  status: ('A' for Active; 'I' for Inactive)
REMARK    1  A    between atoms: C_1  and  N_2
REMARK    2  A    between atoms: C_5  and  C_6
REMARK    3  A    between atoms: C_9  and  C_10
REMARK    4  A    between atoms: C_11  and  C_12
REMARK                            x       y       z     vdW  Elec       q    Type
REMARK                         _______ _______ _______ _____ _____    ______ ____
ROOT
ATOM      1  C   UNL     1       0.341  10.031  19.647  0.00  0.00    +0.000 A 
ATOM      2  C   UNL     1       0.852  10.365  18.390  0.00  0.00    +0.000 A 
ATOM      3  C   UNL     1       1.824   9.551  17.811  0.00  0.00    +0.000 A 
ATOM      4  C   UNL     1       2.276   8.440  18.507  0.00  0.00    +0.000 A 
ATOM      5  C   UNL     1       1.766   8.209  19.773  0.00  0.00    +0.000 A 
ATOM      6  N   UNL     1       0.825   8.983  20.357  0.00  0.00    +0.000 NA
ENDROOT
BRANCH   1  11
ATOM      7  C   UNL     1      -0.438  13.892  22.274  0.00  0.00    +0.000 C 
ATOM      8  N   UNL     1      -0.843  12.837  21.378  0.00  0.00    +0.000 N 
ATOM      9  C   UNL     1      -0.449  11.517  21.495  0.00  0.00    +0.000 C 
ATOM     10  O   UNL     1       0.113  11.028  22.464  0.00  0.00    +0.000 OA
ATOM     11  C   UNL     1      -0.848  10.780  20.216  0.00  0.00    +0.000 C 
ATOM     12  C   UNL     1      -1.361  11.930  19.303  0.00  0.00    +0.000 C 
ATOM     13  C   UNL     1      -2.641  11.605  18.538  0.00  0.00    +0.000 C 
ATOM     14  C   UNL     1      -3.794  12.206  19.339  0.00  0.00    +0.000 C 
ATOM     15  C   UNL     1      -3.187  12.787  20.608  0.00  0.00    +0.000 C 
ATOM     16  C   UNL     1      -1.725  13.050  20.265  0.00  0.00    +0.000 C 
ENDBRANCH   1  11
BRANCH   4  17
ATOM     17  C   UNL     1       3.204   7.522  17.939  0.00  0.00    +0.000 C 
ATOM     18  C   UNL     1       4.054   6.800  17.496  0.00  0.00    +0.000 C 
BRANCH  18  19
ATOM     19  C   UNL     1       5.114   5.997  16.978  0.00  0.00    +0.000 A 
ATOM     20  C   UNL     1       5.228   5.801  15.601  0.00  0.00    +0.000 A 
ATOM     21  C   UNL     1       6.288   5.051  15.092  0.00  0.00    +0.000 A 
ATOM     22  C   UNL     1       7.230   4.496  15.959  0.00  0.00    +0.000 A 
ATOM     23  C   UNL     1       7.110   4.684  17.334  0.00  0.00    +0.000 A 
ATOM     24  C   UNL     1       6.052   5.435  17.848  0.00  0.00    +0.000 A 
ENDBRANCH  18  19
ENDBRANCH   4  17
TORSDOF 3
ENDMDL
MODEL 7
REMARK VINA RESULT:      -7.6      4.365     10.432
REMARK  Name = 
REMARK  4 active torsions:
REMARK  status: ('A' for Active; 'I' for Inactive)
REMARK    1  A    between atoms: C_1  and  N_2
REMARK    2  A    between atoms: C_5  and  C_6
REMARK    3  A    between atoms: C_9  and  C_10
REMARK    4  A    between atoms: C_11  and  C_12
REMARK                            x       y       z     vdW  Elec       q    Type
REMARK                         _______ _______ _______ _____ _____    ______ ____
ROOT
ATOM      1  C   UNL     1       5.035   5.674  18.034  0.00  0.00    +0.000 A 
ATOM      2  C   UNL     1       6.230   5.350  18.680  0.00  0.00    +0.000 A 
ATOM      3  C   UNL     1       7.260   6.288  18.720  0.00  0.00    +0.000 A 
ATOM      4  C   UNL     1       7.080   7.515  18.098  0.00  0.00    +0.000 A 
ATOM      5  C   UNL     1       5.891   7.739  17.426  0.00  0.00    +0.000 A 
ATOM      6  N   UNL     1       4.878   6.846  17.370  0.00  0.00    +0.000 NA
ENDROOT
BRANCH   1  11
ATOM      7  C   UNL     1       4.188   1.029  18.389  0.00  0.00    +0.000 C 
ATOM      8  N   UNL     1       3.817   2.420  18.482  0.00  0.00    +0.000 N 
ATOM      9  C   UNL     1       4.158   3.384  17.551  0.00  0.00    +0.000 C 
ATOM     10  O   UNL     1       4.628   3.166  16.444  0.00  0.00    +0.000 OA
ATOM     11  C   UNL     1       3.832   4.757  18.138  0.00  0.00    +0.000 C 
ATOM     12  C   UNL     1       3.427   4.418  19.602  0.00  0.00    +0.000 C 
ATOM     13  C   UNL     1       2.199   5.168  20.107  0.00  0.00    +0.000 C 
ATOM     14  C   UNL     1       1.009   4.226  19.936  0.00  0.00    +0.000 C 
ATOM     15  C   UNL     1       1.538   2.978  19.244  0.00  0.00    +0.000 C 
ATOM     16  C   UNL     1       3.030   2.950  19.559  0.00  0.00    +0.000 C 
ENDBRANCH   1  11
BRANCH   4  17
ATOM     17  C   UNL     1       8.057   8.548  18.172  0.00  0.00    +0.000 C 
ATOM     18  C   UNL     1       8.854   9.431  18.322  0.00  0.00    +0.000 C 
BRANCH  18  19
ATOM     19  C   UNL     1       9.764  10.505  18.560  0.00  0.00    +0.000 A 
ATOM     20  C   UNL     1      10.324  11.192  17.483  0.00  0.00    +0.000 A 
ATOM     21  C   UNL     1      11.181  12.268  17.716  0.00  0.00    +0.000 A 
ATOM     22  C   UNL     1      11.479  12.653  19.023  0.00  0.00    +0.000 A 
ATOM     23  C   UNL     1      10.927  11.960  20.098  0.00  0.00    +0.000 A 
ATOM     24  C   UNL     1      10.068  10.884  19.871  0.00  0.00    +0.000 A 
ENDBRANCH  18  19
ENDBRANCH   4  17
TORSDOF 3
ENDMDL
MODEL 8
REMARK VINA RESULT:      -7.6      9.436     10.541
REMARK  Name = 
REMARK  4 active torsions:
REMARK  status: ('A' for Active; 'I' for Inactive)
REMARK    1  A    between atoms: C_1  and  N_2
REMARK    2  A    between atoms: C_5  and  C_6
REMARK    3  A    between atoms: C_9  and  C_10
REMARK    4  A    between atoms: C_11  and  C_12
REMARK                            x       y       z     vdW  Elec       q    Type
REMARK                         _______ _______ _______ _____ _____    ______ ____
ROOT
ATOM      1  C   UNL     1      -0.314  11.238  22.339  0.00  0.00    +0.000 A 
ATOM      2  C   UNL     1      -0.190  11.071  20.958  0.00  0.00    +0.000 A 
ATOM      3  C   UNL     1       0.316   9.872  20.458  0.00  0.00    +0.000 A 
ATOM      4  C   UNL     1       0.705   8.881  21.348  0.00  0.00    +0.000 A 
ATOM      5  C   UNL     1       0.609   9.145  22.703  0.00  0.00    +0.000 A 
ATOM      6  N   UNL     1       0.123  10.298  23.212  0.00  0.00    +0.000 NA
ENDROOT
BRANCH   1  11
ATOM      7  C   UNL     1      -1.374  15.647  20.976  0.00  0.00    +0.000 C 
ATOM      8  N   UNL     1      -1.524  14.484  21.817  0.00  0.00    +0.000 N 
ATOM      9  C   UNL     1      -0.472  13.732  22.306  0.00  0.00    +0.000 C 
ATOM     10  O   UNL     1       0.707  14.056  22.272  0.00  0.00    +0.000 OA
ATOM     11  C   UNL     1      -1.037  12.445  22.904  0.00  0.00    +0.000 C 
ATOM     12  C   UNL     1      -2.542  12.515  22.513  0.00  0.00    +0.000 C 
ATOM     13  C   UNL     1      -3.504  12.114  23.627  0.00  0.00    +0.000 C 
ATOM     14  C   UNL     1      -3.979  13.409  24.282  0.00  0.00    +0.000 C 
ATOM     15  C   UNL     1      -3.218  14.543  23.610  0.00  0.00    +0.000 C 
ATOM     16  C   UNL     1      -2.800  13.991  22.251  0.00  0.00    +0.000 C 
ENDBRANCH   1  11
BRANCH   4  17
ATOM     17  C   UNL     1       1.152   7.605  20.904  0.00  0.00    +0.000 C 
ATOM     18  C   UNL     1       1.485   6.492  20.603  0.00  0.00    +0.000 C 
BRANCH  18  19
ATOM     19  C   UNL     1       1.865   5.147  20.314  0.00  0.00    +0.000 A 
ATOM     20  C   UNL     1       2.139   4.263  21.359  0.00  0.00    +0.000 A 
ATOM     21  C   UNL     1       2.470   2.938  21.078  0.00  0.00    +0.000 A 
ATOM     22  C   UNL     1       2.529   2.498  19.755  0.00  0.00    +0.000 A 
ATOM     23  C   UNL     1       2.265   3.384  18.712  0.00  0.00    +0.000 A 
ATOM     24  C   UNL     1       1.932   4.710  18.988  0.00  0.00    +0.000 A 
ENDBRANCH  18  19
ENDBRANCH   4  17
TORSDOF 3
ENDMDL
MODEL 9
REMARK VINA RESULT:      -7.6      7.355     10.333
REMARK  Name = 
REMARK  4 active torsions:
REMARK  status: ('A' for Active; 'I' for Inactive)
REMARK    1  A    between atoms: C_1  and  N_2
REMARK    2  A    between atoms: C_5  and  C_6
REMARK    3  A    between atoms: C_9  and  C_10
REMARK    4  A    between atoms: C_11  and  C_12
REMARK                            x       y       z     vdW  Elec       q    Type
REMARK                         _______ _______ _______ _____ _____    ______ ____
ROOT
ATOM      1  C   UNL     1       3.668   6.404  18.440  0.00  0.00    +0.000 A 
ATOM      2  C   UNL     1       3.369   7.488  17.611  0.00  0.00    +0.000 A 
ATOM      3  C   UNL     1       2.433   8.431  18.032  0.00  0.00    +0.000 A 
ATOM      4  C   UNL     1       1.805   8.258  19.257  0.00  0.00    +0.000 A 
ATOM      5  C   UNL     1       2.110   7.127  19.994  0.00  0.00    +0.000 A 
ATOM      6  N   UNL     1       3.011   6.197  19.607  0.00  0.00    +0.000 NA
ENDROOT
BRANCH   1  11
ATOM      7  C   UNL     1       5.505   4.362  14.583  0.00  0.00    +0.000 C 
ATOM      8  N   UNL     1       5.542   4.787  15.961  0.00  0.00    +0.000 N 
ATOM      9  C   UNL     1       4.488   4.662  16.847  0.00  0.00    +0.000 C 
ATOM     10  O   UNL     1       3.477   4.002  16.657  0.00  0.00    +0.000 OA
ATOM     11  C   UNL     1       4.815   5.472  18.101  0.00  0.00    +0.000 C 
ATOM     12  C   UNL     1       6.126   6.209  17.703  0.00  0.00    +0.000 C 
ATOM     13  C   UNL     1       7.196   6.226  18.790  0.00  0.00    +0.000 C 
ATOM     14  C   UNL     1       8.161   5.086  18.474  0.00  0.00    +0.000 C 
ATOM     15  C   UNL     1       7.592   4.356  17.266  0.00  0.00    +0.000 C 
ATOM     16  C   UNL     1       6.702   5.379  16.566  0.00  0.00    +0.000 C 
ENDBRANCH   1  11
BRANCH   4  17
ATOM     17  C   UNL     1       0.903   9.225  19.784  0.00  0.00    +0.000 C 
ATOM     18  C   UNL     1       0.173  10.018  20.312  0.00  0.00    +0.000 C 
BRANCH  18  19
ATOM     19  C   UNL     1      -0.685  10.924  21.004  0.00  0.00    +0.000 A 
ATOM     20  C   UNL     1      -0.762  10.881  22.396  0.00  0.00    +0.000 A 
ATOM     21  C   UNL     1      -1.569  11.795  23.075  0.00  0.00    +0.000 A 
ATOM     22  C   UNL     1      -2.298  12.747  22.362  0.00  0.00    +0.000 A 
ATOM     23  C   UNL     1      -2.227  12.783  20.971  0.00  0.00    +0.000 A 
ATOM     24  C   UNL     1      -1.421  11.872  20.287  0.00  0.00    +0.000 A 
ENDBRANCH  18  19
ENDBRANCH   4  17
TORSDOF 3
ENDMDL
