MODEL 1
REMARK VINA RESULT:      -7.5      0.000      0.000
REMARK  Name = 
REMARK  5 active torsions:
REMARK  status: ('A' for Active; 'I' for Inactive)
REMARK    1  A    between atoms: C_1  and  C_2
REMARK    2  A    between atoms: C_7  and  C_8
REMARK    3  A    between atoms: N_10  and  N_11
REMARK    4  A    between atoms: C_12  and  C_13
REMARK    5  A    between atoms: C_19  and  O_20
REMARK                            x       y       z     vdW  Elec       q    Type
REMARK                         _______ _______ _______ _____ _____    ______ ____
ROOT
ATOM      1  C   UNL     1       7.333   6.530  18.293  0.00  0.00    +0.000 C 
ATOM      2  O   UNL     1       8.060   6.003  19.138  0.00  0.00    +0.000 OA
ATOM      3  N   UNL     1       7.517   7.822  17.819  0.00  0.00    +0.000 N 
ATOM      4  H   UNL     1       6.861   8.261  17.195  0.00  0.00    +0.000 HD
ENDROOT
BRANCH   1  11
ATOM      5  C   UNL     1       7.027   5.142  15.435  0.00  0.00    +0.000 C 
ATOM      6  C   UNL     1       6.003   5.118  16.533  0.00  0.00    +0.000 A 
ATOM      7  C   UNL     1       4.829   4.376  16.269  0.00  0.00    +0.000 A 
ATOM      8  C   UNL     1       3.810   4.252  17.211  0.00  0.00    +0.000 A 
ATOM      9  C   UNL     1       3.943   4.866  18.446  0.00  0.00    +0.000 A 
ATOM     10  C   UNL     1       5.098   5.598  18.734  0.00  0.00    +0.000 A 
ATOM     11  C   UNL     1       6.144   5.744  17.793  0.00  0.00    +0.000 A 
ENDBRANCH   1  11
BRANCH   3  12
ATOM     12  N   UNL     1       8.559   8.573  18.290  0.00  0.00    +0.000 NA
ATOM     13  C   UNL     1       8.429   9.861  18.213  0.00  0.00    +0.000 C 
BRANCH  13  14
ATOM     14  C   UNL     1       9.502  10.772  18.692  0.00  0.00    +0.000 A 
ATOM     15  C   UNL     1      10.233  11.516  17.760  0.00  0.00    +0.000 A 
ATOM     16  C   UNL     1      11.244  12.370  18.197  0.00  0.00    +0.000 A 
ATOM     17 BR   UNL     1      12.233  13.379  16.941  0.00  0.00    +0.000 Br
ATOM     18  C   UNL     1      11.536  12.487  19.556  0.00  0.00    +0.000 A 
ATOM     19  C   UNL     1      10.806  11.747  20.491  0.00  0.00    +0.000 A 
ATOM     20  C   UNL     1       9.787  10.890  20.054  0.00  0.00    +0.000 A 
BRANCH  20  21
ATOM     21  O   UNL     1       9.084  10.173  20.984  0.00  0.00    +0.000 OA
ATOM     22  H   UNL     1       8.976  10.706  21.790  0.00  0.00    +0.000 HD
ENDBRANCH  20  21
ENDBRANCH  13  14
ENDBRANCH   3  12
TORSDOF 4
ENDMDL
MODEL 2
REMARK VINA RESULT:      -7.4      3.241      8.306
REMARK  Name = 
REMARK  5 active torsions:
REMARK  status: ('A' for Active; 'I' for Inactive)
REMARK    1  A    between atoms: C_1  and  C_2
REMARK    2  A    between atoms: C_7  and  C_8
REMARK    3  A    between atoms: N_10  and  N_11
REMARK    4  A    between atoms: C_12  and  C_13
REMARK    5  A    between atoms: C_19  and  O_20
REMARK                            x       y       z     vdW  Elec       q    Type
REMARK                         _______ _______ _______ _____ _____    ______ ____
ROOT
ATOM      1  C   UNL     1       8.774  10.196  18.217  0.00  0.00    +0.000 C 
ATOM      2  O   UNL     1       7.901  10.750  17.545  0.00  0.00    +0.000 OA
ATOM      3  N   UNL     1       8.782   8.835  18.495  0.00  0.00    +0.000 N 
ATOM      4  H   UNL     1       9.456   8.421  19.117  0.00  0.00    +0.000 HD
ENDROOT
BRANCH   1  11
ATOM      5  C   UNL     1       9.022  11.100  21.268  0.00  0.00    +0.000 C 
ATOM      6  C   UNL     1       9.982  11.456  20.170  0.00  0.00    +0.000 A 
ATOM      7  C   UNL     1      11.105  12.224  20.553  0.00  0.00    +0.000 A 
ATOM      8  C   UNL     1      12.085  12.602  19.637  0.00  0.00    +0.000 A 
ATOM      9  C   UNL     1      11.967  12.217  18.311  0.00  0.00    +0.000 A 
ATOM     10  C   UNL     1      10.869  11.450  17.910  0.00  0.00    +0.000 A 
ATOM     11  C   UNL     1       9.858  11.059  18.818  0.00  0.00    +0.000 A 
ENDBRANCH   1  11
BRANCH   3  12
ATOM     12  N   UNL     1       7.786   8.039  18.001  0.00  0.00    +0.000 NA
ATOM     13  C   UNL     1       7.817   6.789  18.344  0.00  0.00    +0.000 C 
BRANCH  13  14
ATOM     14  C   UNL     1       6.785   5.833  17.862  0.00  0.00    +0.000 A 
ATOM     15  C   UNL     1       5.866   5.302  18.775  0.00  0.00    +0.000 A 
ATOM     16  C   UNL     1       4.898   4.402  18.336  0.00  0.00    +0.000 A 
ATOM     17 BR   UNL     1       3.653   3.684  19.565  0.00  0.00    +0.000 Br
ATOM     18  C   UNL     1       4.837   4.023  16.995  0.00  0.00    +0.000 A 
ATOM     19  C   UNL     1       5.751   4.552  16.080  0.00  0.00    +0.000 A 
ATOM     20  C   UNL     1       6.725   5.460  16.518  0.00  0.00    +0.000 A 
BRANCH  20  21
ATOM     21  O   UNL     1       7.612   5.968  15.608  0.00  0.00    +0.000 OA
ATOM     22  H   UNL     1       7.131   6.257  14.813  0.00  0.00    +0.000 HD
ENDBRANCH  20  21
ENDBRANCH  13  14
ENDBRANCH   3  12
TORSDOF 4
ENDMDL
MODEL 3
REMARK VINA RESULT:      -7.4      0.576      1.624
REMARK  Name = 
REMARK  5 active torsions:
REMARK  status: ('A' for Active; 'I' for Inactive)
REMARK    1  A    between atoms: C_1  and  C_2
REMARK    2  A    between atoms: C_7  and  C_8
REMARK    3  A    between atoms: N_10  and  N_11
REMARK    4  A    between atoms: C_12  and  C_13
REMARK    5  A    between atoms: C_19  and  O_20
REMARK                            x       y       z     vdW  Elec       q    Type
REMARK                         _______ _______ _______ _____ _____    ______ ____
ROOT
ATOM      1  C   UNL     1       7.579   6.606  18.190  0.00  0.00    +0.000 C 
ATOM      2  O   UNL     1       8.164   6.122  19.161  0.00  0.00    +0.000 OA
ATOM      3  N   UNL     1       7.767   7.910  17.752  0.00  0.00    +0.000 N 
ATOM      4  H   UNL     1       7.216   8.310  17.011  0.00  0.00    +0.000 HD
ENDROOT
BRANCH   1  11
ATOM      5  C   UNL     1       4.844   5.492  19.401  0.00  0.00    +0.000 C 
ATOM      6  C   UNL     1       5.340   5.259  18.003  0.00  0.00    +0.000 A 
ATOM      7  C   UNL     1       4.487   4.514  17.157  0.00  0.00    +0.000 A 
ATOM      8  C   UNL     1       4.816   4.247  15.830  0.00  0.00    +0.000 A 
ATOM      9  C   UNL     1       6.010   4.723  15.313  0.00  0.00    +0.000 A 
ATOM     10  C   UNL     1       6.867   5.469  16.127  0.00  0.00    +0.000 A 
ATOM     11  C   UNL     1       6.559   5.749  17.478  0.00  0.00    +0.000 A 
ENDBRANCH   1  11
BRANCH   3  12
ATOM     12  N   UNL     1       8.651   8.723  18.407  0.00  0.00    +0.000 NA
ATOM     13  C   UNL     1       8.688   9.964  18.033  0.00  0.00    +0.000 C 
BRANCH  13  14
ATOM     14  C   UNL     1       9.614  10.934  18.675  0.00  0.00    +0.000 A 
ATOM     15  C   UNL     1      10.398  11.766  17.869  0.00  0.00    +0.000 A 
ATOM     16  C   UNL     1      11.273  12.676  18.459  0.00  0.00    +0.000 A 
ATOM     17 BR   UNL     1      12.333  13.805  17.374  0.00  0.00    +0.000 Br
ATOM     18  C   UNL     1      11.376  12.762  19.848  0.00  0.00    +0.000 A 
ATOM     19  C   UNL     1      10.593  11.935  20.657  0.00  0.00    +0.000 A 
ATOM     20  C   UNL     1       9.710  11.020  20.065  0.00  0.00    +0.000 A 
BRANCH  20  21
ATOM     21  O   UNL     1       8.952  10.218  20.874  0.00  0.00    +0.000 OA
ATOM     22  H   UNL     1       8.009  10.395  20.714  0.00  0.00    +0.000 HD
ENDBRANCH  20  21
ENDBRANCH  13  14
ENDBRANCH   3  12
TORSDOF 4
ENDMDL
MODEL 4
REMARK VINA RESULT:      -7.1      2.865      8.058
REMARK  Name = 
REMARK  5 active torsions:
REMARK  status: ('A' for Active; 'I' for Inactive)
REMARK    1  A    between atoms: C_1  and  C_2
REMARK    2  A    between atoms: C_7  and  C_8
REMARK    3  A    between atoms: N_10  and  N_11
REMARK    4  A    between atoms: C_12  and  C_13
REMARK    5  A    between atoms: C_19  and  O_20
REMARK                            x       y       z     vdW  Elec       q    Type
REMARK                         _______ _______ _______ _____ _____    ______ ____
ROOT
ATOM      1  C   UNL     1       8.762  10.119  18.212  0.00  0.00    +0.000 C 
ATOM      2  O   UNL     1       7.921  10.684  17.511  0.00  0.00    +0.000 OA
ATOM      3  N   UNL     1       8.753   8.755  18.475  0.00  0.00    +0.000 N 
ATOM      4  H   UNL     1       9.398   8.331  19.120  0.00  0.00    +0.000 HD
ENDROOT
BRANCH   1  11
ATOM      5  C   UNL     1       8.901  10.967  21.286  0.00  0.00    +0.000 C 
ATOM      6  C   UNL     1       9.900  11.343  20.230  0.00  0.00    +0.000 A 
ATOM      7  C   UNL     1      11.009  12.102  20.667  0.00  0.00    +0.000 A 
ATOM      8  C   UNL     1      12.021  12.496  19.794  0.00  0.00    +0.000 A 
ATOM      9  C   UNL     1      11.950  12.134  18.458  0.00  0.00    +0.000 A 
ATOM     10  C   UNL     1      10.867  11.376  18.004  0.00  0.00    +0.000 A 
ATOM     11  C   UNL     1       9.824  10.969  18.868  0.00  0.00    +0.000 A 
ENDBRANCH   1  11
BRANCH   3  12
ATOM     12  N   UNL     1       7.774   7.969  17.932  0.00  0.00    +0.000 NA
ATOM     13  C   UNL     1       7.874   6.693  18.136  0.00  0.00    +0.000 C 
BRANCH  13  14
ATOM     14  C   UNL     1       6.867   5.745  17.589  0.00  0.00    +0.000 A 
ATOM     15  C   UNL     1       6.925   5.393  16.235  0.00  0.00    +0.000 A 
ATOM     16  C   UNL     1       5.984   4.511  15.709  0.00  0.00    +0.000 A 
ATOM     17 BR   UNL     1       6.060   4.031  13.882  0.00  0.00    +0.000 Br
ATOM     18  C   UNL     1       4.983   3.975  16.520  0.00  0.00    +0.000 A 
ATOM     19  C   UNL     1       4.923   4.321  17.873  0.00  0.00    +0.000 A 
ATOM     20  C   UNL     1       5.869   5.208  18.405  0.00  0.00    +0.000 A 
BRANCH  20  21
ATOM     21  O   UNL     1       5.795   5.535  19.731  0.00  0.00    +0.000 OA
ATOM     22  H   UNL     1       6.692   5.652  20.088  0.00  0.00    +0.000 HD
ENDBRANCH  20  21
ENDBRANCH  13  14
ENDBRANCH   3  12
TORSDOF 4
ENDMDL
MODEL 5
REMARK VINA RESULT:      -7.0      1.912      2.701
REMARK  Name = 
REMARK  5 active torsions:
REMARK  status: ('A' for Active; 'I' for Inactive)
REMARK    1  A    between atoms: C_1  and  C_2
REMARK    2  A    between atoms: C_7  and  C_8
REMARK    3  A    between atoms: N_10  and  N_11
REMARK    4  A    between atoms: C_12  and  C_13
REMARK    5  A    between atoms: C_19  and  O_20
REMARK                            x       y       z     vdW  Elec       q    Type
REMARK                         _______ _______ _______ _____ _____    ______ ____
ROOT
ATOM      1  C   UNL     1       7.556   6.570  18.141  0.00  0.00    +0.000 C 
ATOM      2  O   UNL     1       7.914   6.099  19.223  0.00  0.00    +0.000 OA
ATOM      3  N   UNL     1       7.837   7.868  17.737  0.00  0.00    +0.000 N 
ATOM      4  H   UNL     1       7.462   8.257  16.888  0.00  0.00    +0.000 HD
ENDROOT
BRANCH   1  11
ATOM      5  C   UNL     1       4.519   5.703  18.604  0.00  0.00    +0.000 C 
ATOM      6  C   UNL     1       5.368   5.320  17.425  0.00  0.00    +0.000 A 
ATOM      7  C   UNL     1       4.732   4.544  16.430  0.00  0.00    +0.000 A 
ATOM      8  C   UNL     1       5.398   4.141  15.274  0.00  0.00    +0.000 A 
ATOM      9  C   UNL     1       6.720   4.511  15.083  0.00  0.00    +0.000 A 
ATOM     10  C   UNL     1       7.367   5.286  16.049  0.00  0.00    +0.000 A 
ATOM     11  C   UNL     1       6.716   5.702  17.234  0.00  0.00    +0.000 A 
ENDBRANCH   1  11
BRANCH   3  12
ATOM     12  N   UNL     1       8.557   8.691  18.560  0.00  0.00    +0.000 NA
ATOM     13  C   UNL     1       8.684   9.924  18.181  0.00  0.00    +0.000 C 
BRANCH  13  14
ATOM     14  C   UNL     1       9.449  10.904  18.998  0.00  0.00    +0.000 A 
ATOM     15  C   UNL     1       8.974  11.255  20.266  0.00  0.00    +0.000 A 
ATOM     16  C   UNL     1       9.679  12.176  21.039  0.00  0.00    +0.000 A 
ATOM     17 BR   UNL     1       9.041  12.651  22.754  0.00  0.00    +0.000 Br
ATOM     18  C   UNL     1      10.854  12.753  20.557  0.00  0.00    +0.000 A 
ATOM     19  C   UNL     1      11.334  12.403  19.292  0.00  0.00    +0.000 A 
ATOM     20  C   UNL     1      10.628  11.475  18.514  0.00  0.00    +0.000 A 
BRANCH  20  21
ATOM     21  O   UNL     1      11.113  11.145  17.278  0.00  0.00    +0.000 OA
ATOM     22  H   UNL     1      11.537  10.272  17.319  0.00  0.00    +0.000 HD
ENDBRANCH  20  21
ENDBRANCH  13  14
ENDBRANCH   3  12
TORSDOF 4
ENDMDL
MODEL 6
REMARK VINA RESULT:      -7.0      3.342      8.175
REMARK  Name = 
REMARK  5 active torsions:
REMARK  status: ('A' for Active; 'I' for Inactive)
REMARK    1  A    between atoms: C_1  and  C_2
REMARK    2  A    between atoms: C_7  and  C_8
REMARK    3  A    between atoms: N_10  and  N_11
REMARK    4  A    between atoms: C_12  and  C_13
REMARK    5  A    between atoms: C_19  and  O_20
REMARK                            x       y       z     vdW  Elec       q    Type
REMARK                         _______ _______ _______ _____ _____    ______ ____
ROOT
ATOM      1  C   UNL     1       8.671   9.907  18.390  0.00  0.00    +0.000 C 
ATOM      2  O   UNL     1       7.927  10.434  17.559  0.00  0.00    +0.000 OA
ATOM      3  N   UNL     1       8.687   8.543  18.651  0.00  0.00    +0.000 N 
ATOM      4  H   UNL     1       9.239   8.148  19.393  0.00  0.00    +0.000 HD
ENDROOT
BRANCH   1  11
ATOM      5  C   UNL     1      11.224  11.514  17.348  0.00  0.00    +0.000 C 
ATOM      6  C   UNL     1      10.695  11.529  18.754  0.00  0.00    +0.000 A 
ATOM      7  C   UNL     1      11.379  12.365  19.665  0.00  0.00    +0.000 A 
ATOM      8  C   UNL     1      10.977  12.490  20.993  0.00  0.00    +0.000 A 
ATOM      9  C   UNL     1       9.875  11.781  21.443  0.00  0.00    +0.000 A 
ATOM     10  C   UNL     1       9.177  10.954  20.559  0.00  0.00    +0.000 A 
ATOM     11  C   UNL     1       9.568  10.806  19.208  0.00  0.00    +0.000 A 
ENDBRANCH   1  11
BRANCH   3  12
ATOM     12  N   UNL     1       7.851   7.712  17.957  0.00  0.00    +0.000 NA
ATOM     13  C   UNL     1       7.607   6.556  18.490  0.00  0.00    +0.000 C 
BRANCH  13  14
ATOM     14  C   UNL     1       6.715   5.573  17.819  0.00  0.00    +0.000 A 
ATOM     15  C   UNL     1       5.781   4.865  18.584  0.00  0.00    +0.000 A 
ATOM     16  C   UNL     1       4.943   3.938  17.969  0.00  0.00    +0.000 A 
ATOM     17 BR   UNL     1       3.679   2.981  18.998  0.00  0.00    +0.000 Br
ATOM     18  C   UNL     1       5.028   3.707  16.595  0.00  0.00    +0.000 A 
ATOM     19  C   UNL     1       5.957   4.414  15.827  0.00  0.00    +0.000 A 
ATOM     20  C   UNL     1       6.800   5.349  16.444  0.00  0.00    +0.000 A 
BRANCH  20  21
ATOM     21  O   UNL     1       7.703   6.032  15.675  0.00  0.00    +0.000 OA
ATOM     22  H   UNL     1       8.423   5.433  15.412  0.00  0.00    +0.000 HD
ENDBRANCH  20  21
ENDBRANCH  13  14
ENDBRANCH   3  12
TORSDOF 4
ENDMDL
MODEL 7
REMARK VINA RESULT:      -7.0      6.660      7.927
REMARK  Name = 
REMARK  5 active torsions:
REMARK  status: ('A' for Active; 'I' for Inactive)
REMARK    1  A    between atoms: C_1  and  C_2
REMARK    2  A    between atoms: C_7  and  C_8
REMARK    3  A    between atoms: N_10  and  N_11
REMARK    4  A    between atoms: C_12  and  C_13
REMARK    5  A    between atoms: C_19  and  O_20
REMARK                            x       y       z     vdW  Elec       q    Type
REMARK                         _______ _______ _______ _____ _____    ______ ____
ROOT
ATOM      1  C   UNL     1       3.090   3.688  17.707  0.00  0.00    +0.000 C 
ATOM      2  O   UNL     1       2.477   3.200  16.756  0.00  0.00    +0.000 OA
ATOM      3  N   UNL     1       4.248   4.441  17.570  0.00  0.00    +0.000 N 
ATOM      4  H   UNL     1       4.778   4.756  18.366  0.00  0.00    +0.000 HD
ENDROOT
BRANCH   1  11
ATOM      5  C   UNL     1       4.632   2.105  20.010  0.00  0.00    +0.000 C 
ATOM      6  C   UNL     1       3.261   2.706  20.130  0.00  0.00    +0.000 A 
ATOM      7  C   UNL     1       2.638   2.583  21.393  0.00  0.00    +0.000 A 
ATOM      8  C   UNL     1       1.377   3.117  21.646  0.00  0.00    +0.000 A 
ATOM      9  C   UNL     1       0.707   3.793  20.639  0.00  0.00    +0.000 A 
ATOM     10  C   UNL     1       1.305   3.936  19.385  0.00  0.00    +0.000 A 
ATOM     11  C   UNL     1       2.582   3.398  19.100  0.00  0.00    +0.000 A 
ENDBRANCH   1  11
BRANCH   3  12
ATOM     12  N   UNL     1       4.756   4.680  16.323  0.00  0.00    +0.000 NA
ATOM     13  C   UNL     1       5.635   3.835  15.882  0.00  0.00    +0.000 C 
BRANCH  13  14
ATOM     14  C   UNL     1       6.254   4.000  14.540  0.00  0.00    +0.000 A 
ATOM     15  C   UNL     1       5.922   3.103  13.519  0.00  0.00    +0.000 A 
ATOM     16  C   UNL     1       6.499   3.244  12.259  0.00  0.00    +0.000 A 
ATOM     17 BR   UNL     1       6.051   2.035  10.876  0.00  0.00    +0.000 Br
ATOM     18  C   UNL     1       7.408   4.272  12.006  0.00  0.00    +0.000 A 
ATOM     19  C   UNL     1       7.740   5.173  13.022  0.00  0.00    +0.000 A 
ATOM     20  C   UNL     1       7.159   5.034  14.290  0.00  0.00    +0.000 A 
BRANCH  20  21
ATOM     21  O   UNL     1       7.497   5.925  15.272  0.00  0.00    +0.000 OA
ATOM     22  H   UNL     1       6.749   6.523  15.440  0.00  0.00    +0.000 HD
ENDBRANCH  20  21
ENDBRANCH  13  14
ENDBRANCH   3  12
TORSDOF 4
ENDMDL
MODEL 8
REMARK VINA RESULT:      -6.8      2.843      7.902
REMARK  Name = 
REMARK  5 active torsions:
REMARK  status: ('A' for Active; 'I' for Inactive)
REMARK    1  A    between atoms: C_1  and  C_2
REMARK    2  A    between atoms: C_7  and  C_8
REMARK    3  A    between atoms: N_10  and  N_11
REMARK    4  A    between atoms: C_12  and  C_13
REMARK    5  A    between atoms: C_19  and  O_20
REMARK                            x       y       z     vdW  Elec       q    Type
REMARK                         _______ _______ _______ _____ _____    ______ ____
ROOT
ATOM      1  C   UNL     1       8.698   9.996  18.368  0.00  0.00    +0.000 C 
ATOM      2  O   UNL     1       7.970  10.532  17.530  0.00  0.00    +0.000 OA
ATOM      3  N   UNL     1       8.702   8.631  18.622  0.00  0.00    +0.000 N 
ATOM      4  H   UNL     1       9.241   8.228  19.370  0.00  0.00    +0.000 HD
ENDROOT
BRANCH   1  11
ATOM      5  C   UNL     1      11.287  11.579  17.379  0.00  0.00    +0.000 C 
ATOM      6  C   UNL     1      10.731  11.597  18.774  0.00  0.00    +0.000 A 
ATOM      7  C   UNL     1      11.405  12.426  19.699  0.00  0.00    +0.000 A 
ATOM      8  C   UNL     1      10.979  12.553  21.020  0.00  0.00    +0.000 A 
ATOM      9  C   UNL     1       9.861  11.855  21.447  0.00  0.00    +0.000 A 
ATOM     10  C   UNL     1       9.172  11.036  20.548  0.00  0.00    +0.000 A 
ATOM     11  C   UNL     1       9.588  10.885  19.205  0.00  0.00    +0.000 A 
ENDBRANCH   1  11
BRANCH   3  12
ATOM     12  N   UNL     1       7.871   7.809  17.911  0.00  0.00    +0.000 NA
ATOM     13  C   UNL     1       7.664   6.627  18.401  0.00  0.00    +0.000 C 
BRANCH  13  14
ATOM     14  C   UNL     1       6.781   5.651  17.709  0.00  0.00    +0.000 A 
ATOM     15  C   UNL     1       6.983   5.392  16.349  0.00  0.00    +0.000 A 
ATOM     16  C   UNL     1       6.160   4.484  15.688  0.00  0.00    +0.000 A 
ATOM     17 BR   UNL     1       6.430   4.129  13.850  0.00  0.00    +0.000 Br
ATOM     18  C   UNL     1       5.133   3.831  16.370  0.00  0.00    +0.000 A 
ATOM     19  C   UNL     1       4.929   4.084  17.729  0.00  0.00    +0.000 A 
ATOM     20  C   UNL     1       5.758   4.996  18.397  0.00  0.00    +0.000 A 
BRANCH  20  21
ATOM     21  O   UNL     1       5.544   5.231  19.728  0.00  0.00    +0.000 OA
ATOM     22  H   UNL     1       4.612   5.471  19.869  0.00  0.00    +0.000 HD
ENDBRANCH  20  21
ENDBRANCH  13  14
ENDBRANCH   3  12
TORSDOF 4
ENDMDL
MODEL 9
REMARK VINA RESULT:      -6.8      7.148      9.860
REMARK  Name = 
REMARK  5 active torsions:
REMARK  status: ('A' for Active; 'I' for Inactive)
REMARK    1  A    between atoms: C_1  and  C_2
REMARK    2  A    between atoms: C_7  and  C_8
REMARK    3  A    between atoms: N_10  and  N_11
REMARK    4  A    between atoms: C_12  and  C_13
REMARK    5  A    between atoms: C_19  and  O_20
REMARK                            x       y       z     vdW  Elec       q    Type
REMARK                         _______ _______ _______ _____ _____    ______ ____
ROOT
ATOM      1  C   UNL     1       1.117   8.928  20.337  0.00  0.00    +0.000 C 
ATOM      2  O   UNL     1       1.174   9.119  19.121  0.00  0.00    +0.000 OA
ATOM      3  N   UNL     1       1.581   7.775  20.957  0.00  0.00    +0.000 N 
ATOM      4  H   UNL     1       1.445   7.605  21.939  0.00  0.00    +0.000 HD
ENDROOT
BRANCH   1  11
ATOM      5  C   UNL     1       1.122  12.079  19.827  0.00  0.00    +0.000 C 
ATOM      6  C   UNL     1       0.438  11.379  20.966  0.00  0.00    +0.000 A 
ATOM      7  C   UNL     1      -0.294  12.202  21.851  0.00  0.00    +0.000 A 
ATOM      8  C   UNL     1      -0.996  11.678  22.935  0.00  0.00    +0.000 A 
ATOM      9  C   UNL     1      -0.985  10.310  23.158  0.00  0.00    +0.000 A 
ATOM     10  C   UNL     1      -0.276   9.474  22.292  0.00  0.00    +0.000 A 
ATOM     11  C   UNL     1       0.449   9.982  21.188  0.00  0.00    +0.000 A 
ENDBRANCH   1  11
BRANCH   3  12
ATOM     12  N   UNL     1       2.148   6.784  20.204  0.00  0.00    +0.000 NA
ATOM     13  C   UNL     1       1.633   5.600  20.318  0.00  0.00    +0.000 C 
BRANCH  13  14
ATOM     14  C   UNL     1       2.173   4.449  19.548  0.00  0.00    +0.000 A 
ATOM     15  C   UNL     1       3.150   4.677  18.572  0.00  0.00    +0.000 A 
ATOM     16  C   UNL     1       3.660   3.607  17.841  0.00  0.00    +0.000 A 
ATOM     17 BR   UNL     1       4.982   3.911  16.523  0.00  0.00    +0.000 Br
ATOM     18  C   UNL     1       3.204   2.309  18.071  0.00  0.00    +0.000 A 
ATOM     19  C   UNL     1       2.231   2.076  19.046  0.00  0.00    +0.000 A 
ATOM     20  C   UNL     1       1.717   3.150  19.785  0.00  0.00    +0.000 A 
BRANCH  20  21
ATOM     21  O   UNL     1       0.764   2.903  20.736  0.00  0.00    +0.000 OA
ATOM     22  H   UNL     1       0.082   3.594  20.699  0.00  0.00    +0.000 HD
ENDBRANCH  20  21
ENDBRANCH  13  14
ENDBRANCH   3  12
TORSDOF 4
ENDMDL
