MODEL 1
REMARK VINA RESULT:      -7.0      0.000      0.000
REMARK  Name = 
REMARK  9 active torsions:
REMARK  status: ('A' for Active; 'I' for Inactive)
REMARK    1  A    between atoms: C_1  and  C_2
REMARK    2  A    between atoms: C_2  and  C_3
REMARK    3  A    between atoms: C_3  and  O_4
REMARK    4  A    between atoms: O_4  and  C_5
REMARK    5  A    between atoms: C_8  and  C_9
REMARK    6  A    between atoms: C_20  and  O_21
REMARK    7  A    between atoms: O_21  and  C_22
REMARK    8  A    between atoms: C_22  and  C_23
REMARK    9  A    between atoms: C_23  and  C_24
REMARK                            x       y       z     vdW  Elec       q    Type
REMARK                         _______ _______ _______ _____ _____    ______ ____
ROOT
ATOM      1  C   UNL     1       5.434   4.466  17.078  0.00  0.00    +0.000 A 
ATOM      2  C   UNL     1       5.780   5.321  18.132  0.00  0.00    +0.000 A 
ATOM      3  C   UNL     1       4.779   5.949  19.004  0.00  0.00    +0.000 A 
ATOM      4  C   UNL     1       3.378   5.737  18.892  0.00  0.00    +0.000 A 
ATOM      5  C   UNL     1       3.072   4.757  17.903  0.00  0.00    +0.000 A 
ATOM      6  C   UNL     1       4.070   4.190  16.999  0.00  0.00    +0.000 A 
ENDROOT
BRANCH   4   7
ATOM      7  C   UNL     1       2.296   6.370  19.895  0.00  0.00    +0.000 C 
ATOM      8  C   UNL     1       1.843   7.660  20.015  0.00  0.00    +0.000 C 
ATOM      9  C   UNL     1       1.835   8.301  18.664  0.00  0.00    +0.000 C 
ATOM     10  O   UNL     1       1.279   7.795  17.698  0.00  0.00    +0.000 OA
ATOM     11  N   UNL     1       1.947   9.672  18.884  0.00  0.00    +0.000 N 
ATOM     12  C   UNL     1       1.242   9.900  20.073  0.00  0.00    +0.000 A 
ATOM     13  C   UNL     1       0.713  11.185  20.350  0.00  0.00    +0.000 A 
ATOM     14  C   UNL     1      -0.134  11.308  21.434  0.00  0.00    +0.000 A 
ATOM     15  C   UNL     1      -0.375  10.179  22.230  0.00  0.00    +0.000 A 
ATOM     16  C   UNL     1       0.249   8.873  21.942  0.00  0.00    +0.000 A 
ATOM     17  C   UNL     1       1.063   8.722  20.831  0.00  0.00    +0.000 A 
ATOM     18  H   UNL     1       2.922   9.903  19.060  0.00  0.00    +0.000 HD
ENDBRANCH   4   7
BRANCH   1  19
ATOM     19  O   UNL     1       6.426   3.906  16.285  0.00  0.00    +0.000 OA
BRANCH  19  20
ATOM     20  C   UNL     1       6.691   4.514  14.988  0.00  0.00    +0.000 C 
BRANCH  20  22
ATOM     21  C   UNL     1       6.461   3.622  12.551  0.00  0.00    +0.000 C 
ATOM     22  C   UNL     1       5.758   4.033  13.841  0.00  0.00    +0.000 C 
ENDBRANCH  20  22
ENDBRANCH  19  20
ENDBRANCH   1  19
BRANCH   5  23
ATOM     23  O   UNL     1       1.760   4.303  17.861  0.00  0.00    +0.000 OA
BRANCH  23  24
ATOM     24  C   UNL     1       1.548   2.975  18.359  0.00  0.00    +0.000 C 
BRANCH  24  25
ATOM     25  C   UNL     1       0.741   3.044  19.643  0.00  0.00    +0.000 C 
ATOM     26  C   UNL     1       1.604   2.761  20.862  0.00  0.00    +0.000 C 
ENDBRANCH  24  25
ENDBRANCH  23  24
ENDBRANCH   5  23
TORSDOF 7
ENDMDL
MODEL 2
REMARK VINA RESULT:      -6.9      1.242      1.403
REMARK  Name = 
REMARK  9 active torsions:
REMARK  status: ('A' for Active; 'I' for Inactive)
REMARK    1  A    between atoms: C_1  and  C_2
REMARK    2  A    between atoms: C_2  and  C_3
REMARK    3  A    between atoms: C_3  and  O_4
REMARK    4  A    between atoms: O_4  and  C_5
REMARK    5  A    between atoms: C_8  and  C_9
REMARK    6  A    between atoms: C_20  and  O_21
REMARK    7  A    between atoms: O_21  and  C_22
REMARK    8  A    between atoms: C_22  and  C_23
REMARK    9  A    between atoms: C_23  and  C_24
REMARK                            x       y       z     vdW  Elec       q    Type
REMARK                         _______ _______ _______ _____ _____    ______ ____
ROOT
ATOM      1  C   UNL     1       6.415   5.059  16.474  0.00  0.00    +0.000 A 
ATOM      2  C   UNL     1       5.918   6.363  16.587  0.00  0.00    +0.000 A 
ATOM      3  C   UNL     1       4.855   6.727  17.533  0.00  0.00    +0.000 A 
ATOM      4  C   UNL     1       4.248   5.817  18.439  0.00  0.00    +0.000 A 
ATOM      5  C   UNL     1       4.872   4.536  18.395  0.00  0.00    +0.000 A 
ATOM      6  C   UNL     1       5.883   4.168  17.405  0.00  0.00    +0.000 A 
ENDROOT
BRANCH   4   7
ATOM      7  C   UNL     1       3.138   6.239  19.520  0.00  0.00    +0.000 C 
ATOM      8  C   UNL     1       2.369   7.373  19.608  0.00  0.00    +0.000 C 
ATOM      9  C   UNL     1       2.057   7.857  18.228  0.00  0.00    +0.000 C 
ATOM     10  O   UNL     1       1.567   7.134  17.371  0.00  0.00    +0.000 OA
ATOM     11  N   UNL     1       1.817   9.224  18.343  0.00  0.00    +0.000 N 
ATOM     12  C   UNL     1       1.196   9.373  19.589  0.00  0.00    +0.000 A 
ATOM     13  C   UNL     1       0.370  10.497  19.842  0.00  0.00    +0.000 A 
ATOM     14  C   UNL     1      -0.369  10.498  21.009  0.00  0.00    +0.000 A 
ATOM     15  C   UNL     1      -0.218   9.426  21.900  0.00  0.00    +0.000 A 
ATOM     16  C   UNL     1       0.703   8.306  21.627  0.00  0.00    +0.000 A 
ATOM     17  C   UNL     1       1.414   8.268  20.439  0.00  0.00    +0.000 A 
ATOM     18  H   UNL     1       2.706   9.718  18.385  0.00  0.00    +0.000 HD
ENDBRANCH   4   7
BRANCH   1  19
ATOM     19  O   UNL     1       7.418   4.775  15.558  0.00  0.00    +0.000 OA
BRANCH  19  20
ATOM     20  C   UNL     1       7.095   4.863  14.140  0.00  0.00    +0.000 C 
BRANCH  20  22
ATOM     21  C   UNL     1       6.190   3.348  12.224  0.00  0.00    +0.000 C 
ATOM     22  C   UNL     1       6.019   3.852  13.654  0.00  0.00    +0.000 C 
ENDBRANCH  20  22
ENDBRANCH  19  20
ENDBRANCH   1  19
BRANCH   5  23
ATOM     23  O   UNL     1       4.516   3.635  19.391  0.00  0.00    +0.000 OA
BRANCH  23  24
ATOM     24  C   UNL     1       3.681   2.547  18.972  0.00  0.00    +0.000 C 
BRANCH  24  25
ATOM     25  C   UNL     1       2.381   2.583  19.753  0.00  0.00    +0.000 C 
ATOM     26  C   UNL     1       1.199   2.916  18.858  0.00  0.00    +0.000 C 
ENDBRANCH  24  25
ENDBRANCH  23  24
ENDBRANCH   5  23
TORSDOF 7
ENDMDL
MODEL 3
REMARK VINA RESULT:      -6.9      2.056      7.853
REMARK  Name = 
REMARK  9 active torsions:
REMARK  status: ('A' for Active; 'I' for Inactive)
REMARK    1  A    between atoms: C_1  and  C_2
REMARK    2  A    between atoms: C_2  and  C_3
REMARK    3  A    between atoms: C_3  and  O_4
REMARK    4  A    between atoms: O_4  and  C_5
REMARK    5  A    between atoms: C_8  and  C_9
REMARK    6  A    between atoms: C_20  and  O_21
REMARK    7  A    between atoms: O_21  and  C_22
REMARK    8  A    between atoms: C_22  and  C_23
REMARK    9  A    between atoms: C_23  and  C_24
REMARK                            x       y       z     vdW  Elec       q    Type
REMARK                         _______ _______ _______ _____ _____    ______ ____
ROOT
ATOM      1  C   UNL     1       2.306   6.627  20.129  0.00  0.00    +0.000 A 
ATOM      2  C   UNL     1       2.142   7.087  18.817  0.00  0.00    +0.000 A 
ATOM      3  C   UNL     1       2.665   6.362  17.652  0.00  0.00    +0.000 A 
ATOM      4  C   UNL     1       3.358   5.124  17.728  0.00  0.00    +0.000 A 
ATOM      5  C   UNL     1       3.385   4.617  19.060  0.00  0.00    +0.000 A 
ATOM      6  C   UNL     1       2.919   5.378  20.218  0.00  0.00    +0.000 A 
ENDROOT
BRANCH   4   7
ATOM      7  C   UNL     1       3.863   4.302  16.445  0.00  0.00    +0.000 C 
ATOM      8  C   UNL     1       4.914   4.540  15.594  0.00  0.00    +0.000 C 
ATOM      9  C   UNL     1       6.031   5.168  16.364  0.00  0.00    +0.000 C 
ATOM     10  O   UNL     1       6.481   4.678  17.391  0.00  0.00    +0.000 OA
ATOM     11  N   UNL     1       6.778   5.894  15.440  0.00  0.00    +0.000 N 
ATOM     12  C   UNL     1       6.713   5.143  14.260  0.00  0.00    +0.000 A 
ATOM     13  C   UNL     1       7.723   5.278  13.275  0.00  0.00    +0.000 A 
ATOM     14  C   UNL     1       7.717   4.379  12.226  0.00  0.00    +0.000 A 
ATOM     15  C   UNL     1       6.688   3.429  12.161  0.00  0.00    +0.000 A 
ATOM     16  C   UNL     1       5.618   3.365  13.176  0.00  0.00    +0.000 A 
ATOM     17  C   UNL     1       5.638   4.228  14.259  0.00  0.00    +0.000 A 
ATOM     18  H   UNL     1       6.316   6.783  15.260  0.00  0.00    +0.000 HD
ENDBRANCH   4   7
BRANCH   1  19
ATOM     19  O   UNL     1       1.793   7.359  21.191  0.00  0.00    +0.000 OA
BRANCH  19  20
ATOM     20  C   UNL     1       1.072   8.589  20.891  0.00  0.00    +0.000 C 
BRANCH  20  22
ATOM     21  C   UNL     1      -0.330   9.425  22.921  0.00  0.00    +0.000 C 
ATOM     22  C   UNL     1       0.939   9.573  22.086  0.00  0.00    +0.000 C 
ENDBRANCH  20  22
ENDBRANCH  19  20
ENDBRANCH   1  19
BRANCH   5  23
ATOM     23  O   UNL     1       3.833   3.312  19.222  0.00  0.00    +0.000 OA
BRANCH  23  24
ATOM     24  C   UNL     1       2.890   2.401  19.804  0.00  0.00    +0.000 C 
BRANCH  24  25
ATOM     25  C   UNL     1       1.963   1.880  18.722  0.00  0.00    +0.000 C 
ATOM     26  C   UNL     1       0.577   2.497  18.828  0.00  0.00    +0.000 C 
ENDBRANCH  24  25
ENDBRANCH  23  24
ENDBRANCH   5  23
TORSDOF 7
ENDMDL
MODEL 4
REMARK VINA RESULT:      -6.8      0.990      1.048
REMARK  Name = 
REMARK  9 active torsions:
REMARK  status: ('A' for Active; 'I' for Inactive)
REMARK    1  A    between atoms: C_1  and  C_2
REMARK    2  A    between atoms: C_2  and  C_3
REMARK    3  A    between atoms: C_3  and  O_4
REMARK    4  A    between atoms: O_4  and  C_5
REMARK    5  A    between atoms: C_8  and  C_9
REMARK    6  A    between atoms: C_20  and  O_21
REMARK    7  A    between atoms: O_21  and  C_22
REMARK    8  A    between atoms: C_22  and  C_23
REMARK    9  A    between atoms: C_23  and  C_24
REMARK                            x       y       z     vdW  Elec       q    Type
REMARK                         _______ _______ _______ _____ _____    ______ ____
ROOT
ATOM      1  C   UNL     1       5.512   5.572  16.026  0.00  0.00    +0.000 A 
ATOM      2  C   UNL     1       5.629   6.746  16.781  0.00  0.00    +0.000 A 
ATOM      3  C   UNL     1       4.657   7.124  17.814  0.00  0.00    +0.000 A 
ATOM      4  C   UNL     1       3.527   6.340  18.172  0.00  0.00    +0.000 A 
ATOM      5  C   UNL     1       3.516   5.091  17.485  0.00  0.00    +0.000 A 
ATOM      6  C   UNL     1       4.451   4.754  16.414  0.00  0.00    +0.000 A 
ENDROOT
BRANCH   4   7
ATOM      7  C   UNL     1       2.509   6.725  19.352  0.00  0.00    +0.000 C 
ATOM      8  C   UNL     1       1.931   7.930  19.669  0.00  0.00    +0.000 C 
ATOM      9  C   UNL     1       1.687   8.699  18.410  0.00  0.00    +0.000 C 
ATOM     10  O   UNL     1       1.080   8.228  17.458  0.00  0.00    +0.000 OA
ATOM     11  N   UNL     1       1.669  10.043  18.774  0.00  0.00    +0.000 N 
ATOM     12  C   UNL     1       1.092  10.058  20.050  0.00  0.00    +0.000 A 
ATOM     13  C   UNL     1       0.457  11.232  20.530  0.00  0.00    +0.000 A 
ATOM     14  C   UNL     1      -0.261  11.136  21.705  0.00  0.00    +0.000 A 
ATOM     15  C   UNL     1      -0.274   9.910  22.386  0.00  0.00    +0.000 A 
ATOM     16  C   UNL     1       0.455   8.729  21.884  0.00  0.00    +0.000 A 
ATOM     17  C   UNL     1       1.140   8.797  20.682  0.00  0.00    +0.000 A 
ATOM     18  H   UNL     1       2.626  10.377  18.869  0.00  0.00    +0.000 HD
ENDBRANCH   4   7
BRANCH   1  19
ATOM     19  O   UNL     1       6.461   5.270  15.060  0.00  0.00    +0.000 OA
BRANCH  19  20
ATOM     20  C   UNL     1       6.389   3.966  14.413  0.00  0.00    +0.000 C 
BRANCH  20  22
ATOM     21  C   UNL     1       5.401   3.247  12.113  0.00  0.00    +0.000 C 
ATOM     22  C   UNL     1       6.493   4.004  12.862  0.00  0.00    +0.000 C 
ENDBRANCH  20  22
ENDBRANCH  19  20
ENDBRANCH   1  19
BRANCH   5  23
ATOM     23  O   UNL     1       2.590   4.150  17.919  0.00  0.00    +0.000 OA
BRANCH  23  24
ATOM     24  C   UNL     1       3.079   2.807  18.034  0.00  0.00    +0.000 C 
BRANCH  24  25
ATOM     25  C   UNL     1       2.267   2.066  19.079  0.00  0.00    +0.000 C 
ATOM     26  C   UNL     1       1.845   2.984  20.215  0.00  0.00    +0.000 C 
ENDBRANCH  24  25
ENDBRANCH  23  24
ENDBRANCH   5  23
TORSDOF 7
ENDMDL
MODEL 5
REMARK VINA RESULT:      -6.6      1.904      7.726
REMARK  Name = 
REMARK  9 active torsions:
REMARK  status: ('A' for Active; 'I' for Inactive)
REMARK    1  A    between atoms: C_1  and  C_2
REMARK    2  A    between atoms: C_2  and  C_3
REMARK    3  A    between atoms: C_3  and  O_4
REMARK    4  A    between atoms: O_4  and  C_5
REMARK    5  A    between atoms: C_8  and  C_9
REMARK    6  A    between atoms: C_20  and  O_21
REMARK    7  A    between atoms: O_21  and  C_22
REMARK    8  A    between atoms: C_22  and  C_23
REMARK    9  A    between atoms: C_23  and  C_24
REMARK                            x       y       z     vdW  Elec       q    Type
REMARK                         _______ _______ _______ _____ _____    ______ ____
ROOT
ATOM      1  C   UNL     1       1.912   7.429  20.373  0.00  0.00    +0.000 A 
ATOM      2  C   UNL     1       2.119   7.906  19.072  0.00  0.00    +0.000 A 
ATOM      3  C   UNL     1       2.681   7.072  18.003  0.00  0.00    +0.000 A 
ATOM      4  C   UNL     1       3.042   5.707  18.162  0.00  0.00    +0.000 A 
ATOM      5  C   UNL     1       2.689   5.216  19.453  0.00  0.00    +0.000 A 
ATOM      6  C   UNL     1       2.192   6.072  20.529  0.00  0.00    +0.000 A 
ENDROOT
BRANCH   4   7
ATOM      7  C   UNL     1       3.587   4.782  16.968  0.00  0.00    +0.000 C 
ATOM      8  C   UNL     1       4.666   4.949  16.136  0.00  0.00    +0.000 C 
ATOM      9  C   UNL     1       5.759   5.640  16.888  0.00  0.00    +0.000 C 
ATOM     10  O   UNL     1       6.174   5.236  17.966  0.00  0.00    +0.000 OA
ATOM     11  N   UNL     1       6.538   6.287  15.932  0.00  0.00    +0.000 N 
ATOM     12  C   UNL     1       6.510   5.440  14.817  0.00  0.00    +0.000 A 
ATOM     13  C   UNL     1       7.552   5.494  13.858  0.00  0.00    +0.000 A 
ATOM     14  C   UNL     1       7.579   4.511  12.887  0.00  0.00    +0.000 A 
ATOM     15  C   UNL     1       6.551   3.559  12.868  0.00  0.00    +0.000 A 
ATOM     16  C   UNL     1       5.448   3.578  13.848  0.00  0.00    +0.000 A 
ATOM     17  C   UNL     1       5.433   4.528  14.856  0.00  0.00    +0.000 A 
ATOM     18  H   UNL     1       6.084   7.158  15.664  0.00  0.00    +0.000 HD
ENDBRANCH   4   7
BRANCH   1  19
ATOM     19  O   UNL     1       1.382   8.267  21.344  0.00  0.00    +0.000 OA
BRANCH  19  20
ATOM     20  C   UNL     1       0.489   9.335  20.914  0.00  0.00    +0.000 C 
BRANCH  20  22
ATOM     21  C   UNL     1      -0.013   9.518  23.463  0.00  0.00    +0.000 C 
ATOM     22  C   UNL     1      -0.200  10.112  22.070  0.00  0.00    +0.000 C 
ENDBRANCH  20  22
ENDBRANCH  19  20
ENDBRANCH   1  19
BRANCH   5  23
ATOM     23  O   UNL     1       2.785   3.844  19.647  0.00  0.00    +0.000 OA
BRANCH  23  24
ATOM     24  C   UNL     1       1.546   3.124  19.602  0.00  0.00    +0.000 C 
BRANCH  24  25
ATOM     25  C   UNL     1       1.733   1.853  18.795  0.00  0.00    +0.000 C 
ATOM     26  C   UNL     1       3.200   1.596  18.488  0.00  0.00    +0.000 C 
ENDBRANCH  24  25
ENDBRANCH  23  24
ENDBRANCH   5  23
TORSDOF 7
ENDMDL
MODEL 6
REMARK VINA RESULT:      -6.6      2.731      8.563
REMARK  Name = 
REMARK  9 active torsions:
REMARK  status: ('A' for Active; 'I' for Inactive)
REMARK    1  A    between atoms: C_1  and  C_2
REMARK    2  A    between atoms: C_2  and  C_3
REMARK    3  A    between atoms: C_3  and  O_4
REMARK    4  A    between atoms: O_4  and  C_5
REMARK    5  A    between atoms: C_8  and  C_9
REMARK    6  A    between atoms: C_20  and  O_21
REMARK    7  A    between atoms: O_21  and  C_22
REMARK    8  A    between atoms: C_22  and  C_23
REMARK    9  A    between atoms: C_23  and  C_24
REMARK                            x       y       z     vdW  Elec       q    Type
REMARK                         _______ _______ _______ _____ _____    ______ ____
ROOT
ATOM      1  C   UNL     1      -0.229   9.749  21.785  0.00  0.00    +0.000 A 
ATOM      2  C   UNL     1       0.949   9.011  21.963  0.00  0.00    +0.000 A 
ATOM      3  C   UNL     1       1.721   8.467  20.839  0.00  0.00    +0.000 A 
ATOM      4  C   UNL     1       1.378   8.651  19.473  0.00  0.00    +0.000 A 
ATOM      5  C   UNL     1       0.257   9.520  19.324  0.00  0.00    +0.000 A 
ATOM      6  C   UNL     1      -0.541  10.001  20.449  0.00  0.00    +0.000 A 
ENDROOT
BRANCH   4   7
ATOM      7  C   UNL     1       2.267   8.114  18.249  0.00  0.00    +0.000 C 
ATOM      8  C   UNL     1       3.266   7.172  18.221  0.00  0.00    +0.000 C 
ATOM      9  C   UNL     1       2.966   6.115  19.235  0.00  0.00    +0.000 C 
ATOM     10  O   UNL     1       1.893   5.526  19.276  0.00  0.00    +0.000 OA
ATOM     11  N   UNL     1       4.191   5.552  19.582  0.00  0.00    +0.000 N 
ATOM     12  C   UNL     1       4.943   5.581  18.402  0.00  0.00    +0.000 A 
ATOM     13  C   UNL     1       6.017   4.673  18.220  0.00  0.00    +0.000 A 
ATOM     14  C   UNL     1       6.598   4.612  16.969  0.00  0.00    +0.000 A 
ATOM     15  C   UNL     1       6.140   5.485  15.972  0.00  0.00    +0.000 A 
ATOM     16  C   UNL     1       5.062   6.461  16.224  0.00  0.00    +0.000 A 
ATOM     17  C   UNL     1       4.437   6.501  17.459  0.00  0.00    +0.000 A 
ATOM     18  H   UNL     1       4.658   6.156  20.256  0.00  0.00    +0.000 HD
ENDBRANCH   4   7
BRANCH   1  19
ATOM     19  O   UNL     1      -0.918  10.234  22.887  0.00  0.00    +0.000 OA
BRANCH  19  20
ATOM     20  C   UNL     1      -1.149  11.670  22.973  0.00  0.00    +0.000 C 
BRANCH  20  22
ATOM     21  C   UNL     1      -3.151  13.105  23.823  0.00  0.00    +0.000 C 
ATOM     22  C   UNL     1      -2.632  12.102  22.797  0.00  0.00    +0.000 C 
ENDBRANCH  20  22
ENDBRANCH  19  20
ENDBRANCH   1  19
BRANCH   5  23
ATOM     23  O   UNL     1      -0.029   9.952  18.035  0.00  0.00    +0.000 OA
BRANCH  23  24
ATOM     24  C   UNL     1      -1.255  10.679  17.884  0.00  0.00    +0.000 C 
BRANCH  24  25
ATOM     25  C   UNL     1      -2.248   9.832  17.111  0.00  0.00    +0.000 C 
ATOM     26  C   UNL     1      -2.638  10.488  15.796  0.00  0.00    +0.000 C 
ENDBRANCH  24  25
ENDBRANCH  23  24
ENDBRANCH   5  23
TORSDOF 7
ENDMDL
MODEL 7
REMARK VINA RESULT:      -6.5      3.768      5.841
REMARK  Name = 
REMARK  9 active torsions:
REMARK  status: ('A' for Active; 'I' for Inactive)
REMARK    1  A    between atoms: C_1  and  C_2
REMARK    2  A    between atoms: C_2  and  C_3
REMARK    3  A    between atoms: C_3  and  O_4
REMARK    4  A    between atoms: O_4  and  C_5
REMARK    5  A    between atoms: C_8  and  C_9
REMARK    6  A    between atoms: C_20  and  O_21
REMARK    7  A    between atoms: O_21  and  C_22
REMARK    8  A    between atoms: C_22  and  C_23
REMARK    9  A    between atoms: C_23  and  C_24
REMARK                            x       y       z     vdW  Elec       q    Type
REMARK                         _______ _______ _______ _____ _____    ______ ____
ROOT
ATOM      1  C   UNL     1       6.941   4.519  13.569  0.00  0.00    +0.000 A 
ATOM      2  C   UNL     1       5.673   3.938  13.697  0.00  0.00    +0.000 A 
ATOM      3  C   UNL     1       4.812   4.165  14.864  0.00  0.00    +0.000 A 
ATOM      4  C   UNL     1       5.155   5.006  15.957  0.00  0.00    +0.000 A 
ATOM      5  C   UNL     1       6.386   5.688  15.729  0.00  0.00    +0.000 A 
ATOM      6  C   UNL     1       7.264   5.404  14.596  0.00  0.00    +0.000 A 
ENDROOT
BRANCH   4   7
ATOM      7  C   UNL     1       4.177   5.306  17.194  0.00  0.00    +0.000 C 
ATOM      8  C   UNL     1       3.735   4.479  18.198  0.00  0.00    +0.000 C 
ATOM      9  C   UNL     1       4.810   3.494  18.526  0.00  0.00    +0.000 C 
ATOM     10  O   UNL     1       5.956   3.833  18.794  0.00  0.00    +0.000 OA
ATOM     11  N   UNL     1       4.166   2.384  19.068  0.00  0.00    +0.000 N 
ATOM     12  C   UNL     1       3.082   2.913  19.779  0.00  0.00    +0.000 A 
ATOM     13  C   UNL     1       2.506   2.179  20.846  0.00  0.00    +0.000 A 
ATOM     14  C   UNL     1       1.573   2.823  21.635  0.00  0.00    +0.000 A 
ATOM     15  C   UNL     1       1.206   4.136  21.305  0.00  0.00    +0.000 A 
ATOM     16  C   UNL     1       1.786   4.841  20.146  0.00  0.00    +0.000 A 
ATOM     17  C   UNL     1       2.757   4.225  19.374  0.00  0.00    +0.000 A 
ATOM     18  H   UNL     1       3.787   1.816  18.313  0.00  0.00    +0.000 HD
ENDBRANCH   4   7
BRANCH   1  19
ATOM     19  O   UNL     1       7.712   4.263  12.443  0.00  0.00    +0.000 OA
BRANCH  19  20
ATOM     20  C   UNL     1       7.069   3.624  11.303  0.00  0.00    +0.000 C 
BRANCH  20  22
ATOM     21  C   UNL     1       6.297   1.140  11.151  0.00  0.00    +0.000 C 
ATOM     22  C   UNL     1       7.455   2.133  11.090  0.00  0.00    +0.000 C 
ENDBRANCH  20  22
ENDBRANCH  19  20
ENDBRANCH   1  19
BRANCH   5  23
ATOM     23  O   UNL     1       6.709   6.703  16.620  0.00  0.00    +0.000 OA
BRANCH  23  24
ATOM     24  C   UNL     1       7.452   6.298  17.778  0.00  0.00    +0.000 C 
BRANCH  24  25
ATOM     25  C   UNL     1       8.211   7.490  18.330  0.00  0.00    +0.000 C 
ATOM     26  C   UNL     1       7.794   8.784  17.648  0.00  0.00    +0.000 C 
ENDBRANCH  24  25
ENDBRANCH  23  24
ENDBRANCH   5  23
TORSDOF 7
ENDMDL
MODEL 8
REMARK VINA RESULT:      -6.5      1.624      2.418
REMARK  Name = 
REMARK  9 active torsions:
REMARK  status: ('A' for Active; 'I' for Inactive)
REMARK    1  A    between atoms: C_1  and  C_2
REMARK    2  A    between atoms: C_2  and  C_3
REMARK    3  A    between atoms: C_3  and  O_4
REMARK    4  A    between atoms: O_4  and  C_5
REMARK    5  A    between atoms: C_8  and  C_9
REMARK    6  A    between atoms: C_20  and  O_21
REMARK    7  A    between atoms: O_21  and  C_22
REMARK    8  A    between atoms: C_22  and  C_23
REMARK    9  A    between atoms: C_23  and  C_24
REMARK                            x       y       z     vdW  Elec       q    Type
REMARK                         _______ _______ _______ _____ _____    ______ ____
ROOT
ATOM      1  C   UNL     1       4.448   5.260  17.330  0.00  0.00    +0.000 A 
ATOM      2  C   UNL     1       4.328   6.637  17.105  0.00  0.00    +0.000 A 
ATOM      3  C   UNL     1       3.437   7.495  17.896  0.00  0.00    +0.000 A 
ATOM      4  C   UNL     1       2.637   7.033  18.975  0.00  0.00    +0.000 A 
ATOM      5  C   UNL     1       2.887   5.660  19.266  0.00  0.00    +0.000 A 
ATOM      6  C   UNL     1       3.725   4.802  18.431  0.00  0.00    +0.000 A 
ENDROOT
BRANCH   4   7
ATOM      7  C   UNL     1       1.720   7.990  19.882  0.00  0.00    +0.000 C 
ATOM      8  C   UNL     1       1.387   9.313  19.723  0.00  0.00    +0.000 C 
ATOM      9  C   UNL     1       1.287   9.618  18.262  0.00  0.00    +0.000 C 
ATOM     10  O   UNL     1       0.594   8.959  17.498  0.00  0.00    +0.000 OA
ATOM     11  N   UNL     1       1.531  10.983  18.134  0.00  0.00    +0.000 N 
ATOM     12  C   UNL     1       0.977  11.553  19.286  0.00  0.00    +0.000 A 
ATOM     13  C   UNL     1       0.584  12.915  19.286  0.00  0.00    +0.000 A 
ATOM     14  C   UNL     1      -0.131  13.375  20.375  0.00  0.00    +0.000 A 
ATOM     15  C   UNL     1      -0.375  12.493  21.438  0.00  0.00    +0.000 A 
ATOM     16  C   UNL     1       0.109  11.099  21.424  0.00  0.00    +0.000 A 
ATOM     17  C   UNL     1       0.785  10.611  20.319  0.00  0.00    +0.000 A 
ATOM     18  H   UNL     1       2.535  11.148  18.165  0.00  0.00    +0.000 HD
ENDBRANCH   4   7
BRANCH   1  19
ATOM     19  O   UNL     1       5.304   4.500  16.545  0.00  0.00    +0.000 OA
BRANCH  19  20
ATOM     20  C   UNL     1       6.703   4.901  16.471  0.00  0.00    +0.000 C 
BRANCH  20  22
ATOM     21  C   UNL     1       7.705   5.943  18.638  0.00  0.00    +0.000 C 
ATOM     22  C   UNL     1       7.509   4.694  17.783  0.00  0.00    +0.000 C 
ENDBRANCH  20  22
ENDBRANCH  19  20
ENDBRANCH   1  19
BRANCH   5  23
ATOM     23  O   UNL     1       2.334   5.160  20.438  0.00  0.00    +0.000 OA
BRANCH  23  24
ATOM     24  C   UNL     1       1.049   4.538  20.300  0.00  0.00    +0.000 C 
BRANCH  24  25
ATOM     25  C   UNL     1       1.218   3.031  20.311  0.00  0.00    +0.000 C 
ATOM     26  C   UNL     1       0.869   2.419  18.964  0.00  0.00    +0.000 C 
ENDBRANCH  24  25
ENDBRANCH  23  24
ENDBRANCH   5  23
TORSDOF 7
ENDMDL
MODEL 9
REMARK VINA RESULT:      -6.5      1.639      2.260
REMARK  Name = 
REMARK  9 active torsions:
REMARK  status: ('A' for Active; 'I' for Inactive)
REMARK    1  A    between atoms: C_1  and  C_2
REMARK    2  A    between atoms: C_2  and  C_3
REMARK    3  A    between atoms: C_3  and  O_4
REMARK    4  A    between atoms: O_4  and  C_5
REMARK    5  A    between atoms: C_8  and  C_9
REMARK    6  A    between atoms: C_20  and  O_21
REMARK    7  A    between atoms: O_21  and  C_22
REMARK    8  A    between atoms: C_22  and  C_23
REMARK    9  A    between atoms: C_23  and  C_24
REMARK                            x       y       z     vdW  Elec       q    Type
REMARK                         _______ _______ _______ _____ _____    ______ ____
ROOT
ATOM      1  C   UNL     1       4.549   5.959  16.936  0.00  0.00    +0.000 A 
ATOM      2  C   UNL     1       4.276   7.321  17.113  0.00  0.00    +0.000 A 
ATOM      3  C   UNL     1       3.299   7.813  18.092  0.00  0.00    +0.000 A 
ATOM      4  C   UNL     1       2.560   6.976  18.971  0.00  0.00    +0.000 A 
ATOM      5  C   UNL     1       2.962   5.613  18.862  0.00  0.00    +0.000 A 
ATOM      6  C   UNL     1       3.887   5.128  17.839  0.00  0.00    +0.000 A 
ENDROOT
BRANCH   4   7
ATOM      7  C   UNL     1       1.547   7.527  20.088  0.00  0.00    +0.000 C 
ATOM      8  C   UNL     1       1.138   8.809  20.363  0.00  0.00    +0.000 C 
ATOM      9  C   UNL     1       1.080   9.585  19.087  0.00  0.00    +0.000 C 
ATOM     10  O   UNL     1       0.463   9.195  18.105  0.00  0.00    +0.000 OA
ATOM     11  N   UNL     1       1.242  10.923  19.440  0.00  0.00    +0.000 N 
ATOM     12  C   UNL     1       0.605  11.043  20.681  0.00  0.00    +0.000 A 
ATOM     13  C   UNL     1       0.127  12.305  21.115  0.00  0.00    +0.000 A 
ATOM     14  C   UNL     1      -0.661  12.335  22.249  0.00  0.00    +0.000 A 
ATOM     15  C   UNL     1      -0.893  11.136  22.937  0.00  0.00    +0.000 A 
ATOM     16  C   UNL     1      -0.322   9.852  22.485  0.00  0.00    +0.000 A 
ATOM     17  C   UNL     1       0.430   9.798  21.323  0.00  0.00    +0.000 A 
ATOM     18  H   UNL     1       2.232  11.112  19.586  0.00  0.00    +0.000 HD
ENDBRANCH   4   7
BRANCH   1  19
ATOM     19  O   UNL     1       5.480   5.554  15.990  0.00  0.00    +0.000 OA
BRANCH  19  20
ATOM     20  C   UNL     1       6.868   5.416  16.410  0.00  0.00    +0.000 C 
BRANCH  20  22
ATOM     21  C   UNL     1       7.704   5.928  18.824  0.00  0.00    +0.000 C 
ATOM     22  C   UNL     1       7.343   6.474  17.446  0.00  0.00    +0.000 C 
ENDBRANCH  20  22
ENDBRANCH  19  20
ENDBRANCH   1  19
BRANCH   5  23
ATOM     23  O   UNL     1       2.474   4.740  19.825  0.00  0.00    +0.000 OA
BRANCH  23  24
ATOM     24  C   UNL     1       1.401   3.887  19.402  0.00  0.00    +0.000 C 
BRANCH  24  25
ATOM     25  C   UNL     1       1.196   2.790  20.429  0.00  0.00    +0.000 C 
ATOM     26  C   UNL     1       1.941   3.087  21.721  0.00  0.00    +0.000 C 
ENDBRANCH  24  25
ENDBRANCH  23  24
ENDBRANCH   5  23
TORSDOF 7
ENDMDL
