MODEL 1
REMARK VINA RESULT:      -7.8      0.000      0.000
REMARK  Name = 
REMARK  2 active torsions:
REMARK  status: ('A' for Active; 'I' for Inactive)
REMARK    1  A    between atoms: C_5  and  C_6
REMARK    2  A    between atoms: C_12  and  C_13
REMARK                            x       y       z     vdW  Elec       q    Type
REMARK                         _______ _______ _______ _____ _____    ______ ____
ROOT
ATOM      1  C   UNL     1       4.684   4.839  17.396  0.00  0.00    +0.000 A 
ATOM      2  N   UNL     1       4.504   3.762  18.221  0.00  0.00    +0.000 NA
ATOM      3  C   UNL     1       3.654   4.187  19.129  0.00  0.00    +0.000 A 
ATOM      4  N   UNL     1       3.148   3.515  20.202  0.00  0.00    +0.000 NA
ATOM      5  C   UNL     1       2.313   4.178  20.937  0.00  0.00    +0.000 A 
ATOM      6  C   UNL     1       1.860   5.574  20.714  0.00  0.00    +0.000 A 
ATOM      7  C   UNL     1       2.372   6.223  19.646  0.00  0.00    +0.000 A 
ATOM      8  N   UNL     1       3.298   5.514  18.843  0.00  0.00    +0.000 N 
ATOM      9  N   UNL     1       3.979   5.922  17.742  0.00  0.00    +0.000 NA
ENDROOT
BRANCH   1  14
ATOM     10  C   UNL     1       6.147   4.033  14.027  0.00  0.00    +0.000 A 
ATOM     11  C   UNL     1       7.297   4.800  14.108  0.00  0.00    +0.000 A 
ATOM     12  N   UNL     1       7.623   5.551  15.182  0.00  0.00    +0.000 NA
ATOM     13  C   UNL     1       6.751   5.535  16.224  0.00  0.00    +0.000 A 
ATOM     14  C   UNL     1       5.570   4.803  16.244  0.00  0.00    +0.000 A 
ATOM     15  C   UNL     1       5.275   4.036  15.112  0.00  0.00    +0.000 A 
ENDBRANCH   1  14
BRANCH   7  16
ATOM     16  C   UNL     1       1.991   7.586  19.336  0.00  0.00    +0.000 A 
ATOM     17  C   UNL     1       2.154   8.225  18.061  0.00  0.00    +0.000 A 
ATOM     18  C   UNL     1       1.708   9.530  18.058  0.00  0.00    +0.000 A 
ATOM     19  S   UNL     1       1.092  10.000  19.579  0.00  0.00    +0.000 S 
ATOM     20  C   UNL     1       1.430   8.461  20.248  0.00  0.00    +0.000 A 
ENDBRANCH   7  16
TORSDOF 2
ENDMDL
MODEL 2
REMARK VINA RESULT:      -7.8      2.693      5.997
REMARK  Name = 
REMARK  2 active torsions:
REMARK  status: ('A' for Active; 'I' for Inactive)
REMARK    1  A    between atoms: C_5  and  C_6
REMARK    2  A    between atoms: C_12  and  C_13
REMARK                            x       y       z     vdW  Elec       q    Type
REMARK                         _______ _______ _______ _____ _____    ______ ____
ROOT
ATOM      1  C   UNL     1       2.277   6.748  19.706  0.00  0.00    +0.000 A 
ATOM      2  N   UNL     1       1.795   5.906  20.671  0.00  0.00    +0.000 NA
ATOM      3  C   UNL     1       2.467   4.790  20.494  0.00  0.00    +0.000 A 
ATOM      4  N   UNL     1       2.364   3.616  21.179  0.00  0.00    +0.000 NA
ATOM      5  C   UNL     1       3.162   2.671  20.796  0.00  0.00    +0.000 A 
ATOM      6  C   UNL     1       4.165   2.753  19.704  0.00  0.00    +0.000 A 
ATOM      7  C   UNL     1       4.252   3.924  19.037  0.00  0.00    +0.000 A 
ATOM      8  N   UNL     1       3.374   4.962  19.436  0.00  0.00    +0.000 N 
ATOM      9  N   UNL     1       3.227   6.213  18.932  0.00  0.00    +0.000 NA
ENDROOT
BRANCH   1  14
ATOM     10  C   UNL     1       1.431  10.092  18.209  0.00  0.00    +0.000 A 
ATOM     11  C   UNL     1       0.833  10.672  19.314  0.00  0.00    +0.000 A 
ATOM     12  N   UNL     1       0.694  10.050  20.504  0.00  0.00    +0.000 NA
ATOM     13  C   UNL     1       1.175   8.782  20.588  0.00  0.00    +0.000 A 
ATOM     14  C   UNL     1       1.790   8.108  19.540  0.00  0.00    +0.000 A 
ATOM     15  C   UNL     1       1.916   8.793  18.327  0.00  0.00    +0.000 A 
ENDBRANCH   1  14
BRANCH   7  16
ATOM     16  C   UNL     1       5.202   4.111  17.960  0.00  0.00    +0.000 A 
ATOM     17  C   UNL     1       6.543   4.602  18.110  0.00  0.00    +0.000 A 
ATOM     18  C   UNL     1       7.217   4.684  16.910  0.00  0.00    +0.000 A 
ATOM     19  S   UNL     1       6.253   4.174  15.597  0.00  0.00    +0.000 S 
ATOM     20  C   UNL     1       4.927   3.853  16.630  0.00  0.00    +0.000 A 
ENDBRANCH   7  16
TORSDOF 2
ENDMDL
MODEL 3
REMARK VINA RESULT:      -7.6      2.708      6.007
REMARK  Name = 
REMARK  2 active torsions:
REMARK  status: ('A' for Active; 'I' for Inactive)
REMARK    1  A    between atoms: C_5  and  C_6
REMARK    2  A    between atoms: C_12  and  C_13
REMARK                            x       y       z     vdW  Elec       q    Type
REMARK                         _______ _______ _______ _____ _____    ______ ____
ROOT
ATOM      1  C   UNL     1       2.250   6.769  19.742  0.00  0.00    +0.000 A 
ATOM      2  N   UNL     1       1.760   5.926  20.703  0.00  0.00    +0.000 NA
ATOM      3  C   UNL     1       2.429   4.809  20.526  0.00  0.00    +0.000 A 
ATOM      4  N   UNL     1       2.320   3.633  21.208  0.00  0.00    +0.000 NA
ATOM      5  C   UNL     1       3.117   2.687  20.827  0.00  0.00    +0.000 A 
ATOM      6  C   UNL     1       4.127   2.769  19.741  0.00  0.00    +0.000 A 
ATOM      7  C   UNL     1       4.220   3.942  19.077  0.00  0.00    +0.000 A 
ATOM      8  N   UNL     1       3.343   4.981  19.474  0.00  0.00    +0.000 N 
ATOM      9  N   UNL     1       3.203   6.233  18.973  0.00  0.00    +0.000 NA
ENDROOT
BRANCH   1  14
ATOM     10  C   UNL     1       0.682  10.120  20.417  0.00  0.00    +0.000 A 
ATOM     11  C   UNL     1       0.896  10.705  19.181  0.00  0.00    +0.000 A 
ATOM     12  N   UNL     1       1.509  10.081  18.152  0.00  0.00    +0.000 NA
ATOM     13  C   UNL     1       1.930   8.810  18.376  0.00  0.00    +0.000 A 
ATOM     14  C   UNL     1       1.767   8.131  19.578  0.00  0.00    +0.000 A 
ATOM     15  C   UNL     1       1.124   8.815  20.614  0.00  0.00    +0.000 A 
ENDBRANCH   1  14
BRANCH   7  16
ATOM     16  C   UNL     1       5.177   4.129  18.006  0.00  0.00    +0.000 A 
ATOM     17  C   UNL     1       6.510   4.639  18.160  0.00  0.00    +0.000 A 
ATOM     18  C   UNL     1       7.192   4.716  16.965  0.00  0.00    +0.000 A 
ATOM     19  S   UNL     1       6.246   4.179  15.650  0.00  0.00    +0.000 S 
ATOM     20  C   UNL     1       4.915   3.852  16.677  0.00  0.00    +0.000 A 
ENDBRANCH   7  16
TORSDOF 2
ENDMDL
MODEL 4
REMARK VINA RESULT:      -7.3      3.084      4.134
REMARK  Name = 
REMARK  2 active torsions:
REMARK  status: ('A' for Active; 'I' for Inactive)
REMARK    1  A    between atoms: C_5  and  C_6
REMARK    2  A    between atoms: C_12  and  C_13
REMARK                            x       y       z     vdW  Elec       q    Type
REMARK                         _______ _______ _______ _____ _____    ______ ____
ROOT
ATOM      1  C   UNL     1       6.404   4.489  15.339  0.00  0.00    +0.000 A 
ATOM      2  N   UNL     1       7.428   5.050  16.053  0.00  0.00    +0.000 NA
ATOM      3  C   UNL     1       6.965   5.124  17.281  0.00  0.00    +0.000 A 
ATOM      4  N   UNL     1       7.576   5.623  18.393  0.00  0.00    +0.000 NA
ATOM      5  C   UNL     1       6.885   5.563  19.487  0.00  0.00    +0.000 A 
ATOM      6  C   UNL     1       5.519   5.003  19.637  0.00  0.00    +0.000 A 
ATOM      7  C   UNL     1       4.930   4.513  18.524  0.00  0.00    +0.000 A 
ATOM      8  N   UNL     1       5.668   4.586  17.318  0.00  0.00    +0.000 N 
ATOM      9  N   UNL     1       5.318   4.202  16.064  0.00  0.00    +0.000 NA
ENDROOT
BRANCH   1  14
ATOM     10  C   UNL     1       5.737   3.144  11.891  0.00  0.00    +0.000 A 
ATOM     11  C   UNL     1       6.736   3.816  11.206  0.00  0.00    +0.000 A 
ATOM     12  N   UNL     1       7.604   4.667  11.793  0.00  0.00    +0.000 NA
ATOM     13  C   UNL     1       7.462   4.856  13.130  0.00  0.00    +0.000 A 
ATOM     14  C   UNL     1       6.495   4.233  13.911  0.00  0.00    +0.000 A 
ATOM     15  C   UNL     1       5.620   3.357  13.262  0.00  0.00    +0.000 A 
ENDBRANCH   1  14
BRANCH   7  16
ATOM     16  C   UNL     1       3.602   3.938  18.563  0.00  0.00    +0.000 A 
ATOM     17  C   UNL     1       2.402   4.586  18.115  0.00  0.00    +0.000 A 
ATOM     18  C   UNL     1       1.280   3.802  18.280  0.00  0.00    +0.000 A 
ATOM     19  S   UNL     1       1.652   2.287  18.972  0.00  0.00    +0.000 S 
ATOM     20  C   UNL     1       3.316   2.681  19.062  0.00  0.00    +0.000 A 
ENDBRANCH   7  16
TORSDOF 2
ENDMDL
MODEL 5
REMARK VINA RESULT:      -7.1      3.233      5.285
REMARK  Name = 
REMARK  2 active torsions:
REMARK  status: ('A' for Active; 'I' for Inactive)
REMARK    1  A    between atoms: C_5  and  C_6
REMARK    2  A    between atoms: C_12  and  C_13
REMARK                            x       y       z     vdW  Elec       q    Type
REMARK                         _______ _______ _______ _____ _____    ______ ____
ROOT
ATOM      1  C   UNL     1       2.393   6.363  19.676  0.00  0.00    +0.000 A 
ATOM      2  N   UNL     1       2.777   6.863  18.461  0.00  0.00    +0.000 NA
ATOM      3  C   UNL     1       2.303   8.089  18.449  0.00  0.00    +0.000 A 
ATOM      4  N   UNL     1       2.386   9.025  17.462  0.00  0.00    +0.000 NA
ATOM      5  C   UNL     1       1.831  10.166  17.722  0.00  0.00    +0.000 A 
ATOM      6  C   UNL     1       1.134  10.541  18.978  0.00  0.00    +0.000 A 
ATOM      7  C   UNL     1       1.062   9.600  19.944  0.00  0.00    +0.000 A 
ATOM      8  N   UNL     1       1.651   8.342  19.667  0.00  0.00    +0.000 N 
ATOM      9  N   UNL     1       1.703   7.223  20.432  0.00  0.00    +0.000 NA
ENDROOT
BRANCH   1  14
ATOM     10  C   UNL     1       2.330   3.070  21.491  0.00  0.00    +0.000 A 
ATOM     11  C   UNL     1       3.376   2.447  20.832  0.00  0.00    +0.000 A 
ATOM     12  N   UNL     1       4.093   3.028  19.847  0.00  0.00    +0.000 NA
ATOM     13  C   UNL     1       3.743   4.295  19.504  0.00  0.00    +0.000 A 
ATOM     14  C   UNL     1       2.711   5.010  20.100  0.00  0.00    +0.000 A 
ATOM     15  C   UNL     1       1.997   4.370  21.118  0.00  0.00    +0.000 A 
ENDBRANCH   1  14
BRANCH   7  16
ATOM     16  C   UNL     1       0.409   9.865  21.210  0.00  0.00    +0.000 A 
ATOM     17  C   UNL     1       0.660   9.166  22.438  0.00  0.00    +0.000 A 
ATOM     18  C   UNL     1      -0.113   9.628  23.482  0.00  0.00    +0.000 A 
ATOM     19  S   UNL     1      -1.145  10.900  23.001  0.00  0.00    +0.000 S 
ATOM     20  C   UNL     1      -0.566  10.829  21.392  0.00  0.00    +0.000 A 
ENDBRANCH   7  16
TORSDOF 2
ENDMDL
MODEL 6
REMARK VINA RESULT:      -7.1      2.105      3.542
REMARK  Name = 
REMARK  2 active torsions:
REMARK  status: ('A' for Active; 'I' for Inactive)
REMARK    1  A    between atoms: C_5  and  C_6
REMARK    2  A    between atoms: C_12  and  C_13
REMARK                            x       y       z     vdW  Elec       q    Type
REMARK                         _______ _______ _______ _____ _____    ______ ____
ROOT
ATOM      1  C   UNL     1       4.414   6.068  16.945  0.00  0.00    +0.000 A 
ATOM      2  N   UNL     1       4.121   7.404  17.005  0.00  0.00    +0.000 NA
ATOM      3  C   UNL     1       3.238   7.499  17.974  0.00  0.00    +0.000 A 
ATOM      4  N   UNL     1       2.600   8.611  18.438  0.00  0.00    +0.000 NA
ATOM      5  C   UNL     1       1.776   8.417  19.418  0.00  0.00    +0.000 A 
ATOM      6  C   UNL     1       1.477   7.119  20.074  0.00  0.00    +0.000 A 
ATOM      7  C   UNL     1       2.119   6.029  19.600  0.00  0.00    +0.000 A 
ATOM      8  N   UNL     1       3.011   6.225  18.518  0.00  0.00    +0.000 N 
ATOM      9  N   UNL     1       3.758   5.319  17.837  0.00  0.00    +0.000 NA
ENDROOT
BRANCH   1  14
ATOM     10  C   UNL     1       5.900   4.097  14.107  0.00  0.00    +0.000 A 
ATOM     11  C   UNL     1       7.209   4.535  14.210  0.00  0.00    +0.000 A 
ATOM     12  N   UNL     1       7.633   5.419  15.139  0.00  0.00    +0.000 NA
ATOM     13  C   UNL     1       6.697   5.889  16.004  0.00  0.00    +0.000 A 
ATOM     14  C   UNL     1       5.358   5.517  15.987  0.00  0.00    +0.000 A 
ATOM     15  C   UNL     1       4.965   4.597  15.010  0.00  0.00    +0.000 A 
ENDBRANCH   1  14
BRANCH   7  16
ATOM     16  C   UNL     1       1.903   4.717  20.174  0.00  0.00    +0.000 A 
ATOM     17  C   UNL     1       1.115   3.671  19.585  0.00  0.00    +0.000 A 
ATOM     18  C   UNL     1       1.081   2.530  20.359  0.00  0.00    +0.000 A 
ATOM     19  S   UNL     1       1.990   2.701  21.794  0.00  0.00    +0.000 S 
ATOM     20  C   UNL     1       2.423   4.307  21.387  0.00  0.00    +0.000 A 
ENDBRANCH   7  16
TORSDOF 2
ENDMDL
MODEL 7
REMARK VINA RESULT:      -7.1      3.109      4.270
REMARK  Name = 
REMARK  2 active torsions:
REMARK  status: ('A' for Active; 'I' for Inactive)
REMARK    1  A    between atoms: C_5  and  C_6
REMARK    2  A    between atoms: C_12  and  C_13
REMARK                            x       y       z     vdW  Elec       q    Type
REMARK                         _______ _______ _______ _____ _____    ______ ____
ROOT
ATOM      1  C   UNL     1       6.453   4.536  15.353  0.00  0.00    +0.000 A 
ATOM      2  N   UNL     1       7.463   5.112  16.075  0.00  0.00    +0.000 NA
ATOM      3  C   UNL     1       6.991   5.174  17.300  0.00  0.00    +0.000 A 
ATOM      4  N   UNL     1       7.587   5.680  18.418  0.00  0.00    +0.000 NA
ATOM      5  C   UNL     1       6.892   5.604  19.507  0.00  0.00    +0.000 A 
ATOM      6  C   UNL     1       5.535   5.019  19.648  0.00  0.00    +0.000 A 
ATOM      7  C   UNL     1       4.961   4.523  18.530  0.00  0.00    +0.000 A 
ATOM      8  N   UNL     1       5.705   4.613  17.328  0.00  0.00    +0.000 N 
ATOM      9  N   UNL     1       5.369   4.227  16.072  0.00  0.00    +0.000 NA
ENDROOT
BRANCH   1  14
ATOM     10  C   UNL     1       7.559   4.686  11.762  0.00  0.00    +0.000 A 
ATOM     11  C   UNL     1       6.691   3.745  11.235  0.00  0.00    +0.000 A 
ATOM     12  N   UNL     1       5.776   3.076  11.968  0.00  0.00    +0.000 NA
ATOM     13  C   UNL     1       5.732   3.362  13.295  0.00  0.00    +0.000 A 
ATOM     14  C   UNL     1       6.557   4.286  13.925  0.00  0.00    +0.000 A 
ATOM     15  C   UNL     1       7.487   4.959  13.125  0.00  0.00    +0.000 A 
ENDBRANCH   1  14
BRANCH   7  16
ATOM     16  C   UNL     1       3.643   3.924  18.560  0.00  0.00    +0.000 A 
ATOM     17  C   UNL     1       2.433   4.555  18.115  0.00  0.00    +0.000 A 
ATOM     18  C   UNL     1       1.324   3.749  18.269  0.00  0.00    +0.000 A 
ATOM     19  S   UNL     1       1.722   2.234  18.945  0.00  0.00    +0.000 S 
ATOM     20  C   UNL     1       3.378   2.656  19.044  0.00  0.00    +0.000 A 
ENDBRANCH   7  16
TORSDOF 2
ENDMDL
MODEL 8
REMARK VINA RESULT:      -7.1      2.732      6.298
REMARK  Name = 
REMARK  2 active torsions:
REMARK  status: ('A' for Active; 'I' for Inactive)
REMARK    1  A    between atoms: C_5  and  C_6
REMARK    2  A    between atoms: C_12  and  C_13
REMARK                            x       y       z     vdW  Elec       q    Type
REMARK                         _______ _______ _______ _____ _____    ______ ____
ROOT
ATOM      1  C   UNL     1       1.829   7.209  20.401  0.00  0.00    +0.000 A 
ATOM      2  N   UNL     1       1.328   6.129  21.078  0.00  0.00    +0.000 NA
ATOM      3  C   UNL     1       2.026   5.112  20.626  0.00  0.00    +0.000 A 
ATOM      4  N   UNL     1       1.920   3.793  20.957  0.00  0.00    +0.000 NA
ATOM      5  C   UNL     1       2.749   2.996  20.360  0.00  0.00    +0.000 A 
ATOM      6  C   UNL     1       3.789   3.385  19.374  0.00  0.00    +0.000 A 
ATOM      7  C   UNL     1       3.878   4.695  19.059  0.00  0.00    +0.000 A 
ATOM      8  N   UNL     1       2.967   5.575  19.694  0.00  0.00    +0.000 N 
ATOM      9  N   UNL     1       2.815   6.916  19.548  0.00  0.00    +0.000 NA
ENDROOT
BRANCH   1  14
ATOM     10  C   UNL     1       0.517  10.673  19.751  0.00  0.00    +0.000 A 
ATOM     11  C   UNL     1       0.365  11.090  21.062  0.00  0.00    +0.000 A 
ATOM     12  N   UNL     1       0.663  10.322  22.132  0.00  0.00    +0.000 NA
ATOM     13  C   UNL     1       1.134   9.075  21.874  0.00  0.00    +0.000 A 
ATOM     14  C   UNL     1       1.323   8.558  20.598  0.00  0.00    +0.000 A 
ATOM     15  C   UNL     1       1.004   9.389  19.519  0.00  0.00    +0.000 A 
ENDBRANCH   1  14
BRANCH   7  16
ATOM     16  C   UNL     1       4.862   5.179  18.113  0.00  0.00    +0.000 A 
ATOM     17  C   UNL     1       4.648   5.349  16.704  0.00  0.00    +0.000 A 
ATOM     18  C   UNL     1       5.766   5.820  16.049  0.00  0.00    +0.000 A 
ATOM     19  S   UNL     1       7.079   6.063  17.113  0.00  0.00    +0.000 S 
ATOM     20  C   UNL     1       6.156   5.528  18.452  0.00  0.00    +0.000 A 
ENDBRANCH   7  16
TORSDOF 2
ENDMDL
MODEL 9
REMARK VINA RESULT:      -7.0      2.554      5.949
REMARK  Name = 
REMARK  2 active torsions:
REMARK  status: ('A' for Active; 'I' for Inactive)
REMARK    1  A    between atoms: C_5  and  C_6
REMARK    2  A    between atoms: C_12  and  C_13
REMARK                            x       y       z     vdW  Elec       q    Type
REMARK                         _______ _______ _______ _____ _____    ______ ____
ROOT
ATOM      1  C   UNL     1       2.358   6.348  18.903  0.00  0.00    +0.000 A 
ATOM      2  N   UNL     1       1.823   5.322  19.634  0.00  0.00    +0.000 NA
ATOM      3  C   UNL     1       2.440   4.250  19.188  0.00  0.00    +0.000 A 
ATOM      4  N   UNL     1       2.271   2.951  19.566  0.00  0.00    +0.000 NA
ATOM      5  C   UNL     1       3.024   2.088  18.962  0.00  0.00    +0.000 A 
ATOM      6  C   UNL     1       4.043   2.383  17.923  0.00  0.00    +0.000 A 
ATOM      7  C   UNL     1       4.196   3.675  17.562  0.00  0.00    +0.000 A 
ATOM      8  N   UNL     1       3.367   4.628  18.204  0.00  0.00    +0.000 N 
ATOM      9  N   UNL     1       3.288   5.970  18.021  0.00  0.00    +0.000 NA
ENDROOT
BRANCH   1  14
ATOM     10  C   UNL     1       1.564   9.961  18.226  0.00  0.00    +0.000 A 
ATOM     11  C   UNL     1       1.128  10.321  19.489  0.00  0.00    +0.000 A 
ATOM     12  N   UNL     1       1.081   9.470  20.537  0.00  0.00    +0.000 NA
ATOM     13  C   UNL     1       1.488   8.195  20.304  0.00  0.00    +0.000 A 
ATOM     14  C   UNL     1       1.942   7.730  19.075  0.00  0.00    +0.000 A 
ATOM     15  C   UNL     1       1.977   8.647  18.020  0.00  0.00    +0.000 A 
ENDBRANCH   1  14
BRANCH   7  16
ATOM     16  C   UNL     1       5.166   4.071  16.562  0.00  0.00    +0.000 A 
ATOM     17  C   UNL     1       4.975   3.992  15.141  0.00  0.00    +0.000 A 
ATOM     18  C   UNL     1       6.073   4.431  14.432  0.00  0.00    +0.000 A 
ATOM     19  S   UNL     1       7.338   4.940  15.457  0.00  0.00    +0.000 S 
ATOM     20  C   UNL     1       6.424   4.564  16.855  0.00  0.00    +0.000 A 
ENDBRANCH   7  16
TORSDOF 2
ENDMDL
