MODEL 1
REMARK VINA RESULT:      -8.5      0.000      0.000
REMARK  Name = 
REMARK  9 active torsions:
REMARK  status: ('A' for Active; 'I' for Inactive)
REMARK    1  A    between atoms: N_2  and  C_4
REMARK    2  A    between atoms: C_6  and  N_7
REMARK    3  A    between atoms: N_7  and  C_8
REMARK    4  A    between atoms: N_11  and  C_12
REMARK    5  A    between atoms: C_12  and  C_13
REMARK    6  A    between atoms: C_16  and  O_17
REMARK    7  A    between atoms: O_17  and  C_18
REMARK    8  A    between atoms: C_28  and  C_29
REMARK    9  A    between atoms: C_29  and  O_30
REMARK                            x       y       z     vdW  Elec       q    Type
REMARK                         _______ _______ _______ _____ _____    ______ ____
ROOT
ATOM      1  C   UNL     1       1.708   4.102  21.099  0.00  0.00    +0.000 C 
ATOM      2  C   UNL     1       2.589   2.870  21.303  0.00  0.00    +0.000 C 
ATOM      3  C   UNL     1       3.385   2.460  20.064  0.00  0.00    +0.000 C 
ATOM      4  N   UNL     1       2.594   2.371  18.828  0.00  0.00    +0.000 NA
ATOM      5  C   UNL     1       1.722   3.541  18.621  0.00  0.00    +0.000 C 
ATOM      6  C   UNL     1       0.879   3.935  19.832  0.00  0.00    +0.000 C 
ENDROOT
BRANCH   1   7
ATOM      7  N   UNL     1       2.508   5.334  21.084  0.00  0.00    +0.000 N 
ATOM      8  H   UNL     1       3.488   5.228  21.330  0.00  0.00    +0.000 HD
BRANCH   7  11
ATOM      9  C   UNL     1       1.332   8.696  19.955  0.00  0.00    +0.000 A 
ATOM     10  C   UNL     1       1.477   7.544  20.754  0.00  0.00    +0.000 A 
ATOM     11  C   UNL     1       2.220   6.451  20.307  0.00  0.00    +0.000 A 
ATOM     12  C   UNL     1       2.817   6.564  19.041  0.00  0.00    +0.000 A 
ATOM     13  C   UNL     1       2.685   7.722  18.254  0.00  0.00    +0.000 A 
ATOM     14  C   UNL     1       1.949   8.828  18.704  0.00  0.00    +0.000 A 
BRANCH   9  16
ATOM     15  O   UNL     1      -0.728   9.639  20.348  0.00  0.00    +0.000 OA
ATOM     16  N   UNL     1       0.497   9.755  20.494  0.00  0.00    +0.000 N 
ATOM     17  O   UNL     1       1.070  10.688  21.070  0.00  0.00    +0.000 OA
ENDBRANCH   9  16
BRANCH  14  18
ATOM     18  C   UNL     1       1.852  10.045  17.822  0.00  0.00    +0.000 C 
BRANCH  18  19
ATOM     19  O   UNL     1       0.501  10.492  17.779  0.00  0.00    +0.000 OA
ATOM     20  H   UNL     1       0.048  10.104  18.548  0.00  0.00    +0.000 HD
ENDBRANCH  18  19
ENDBRANCH  14  18
ENDBRANCH   7  11
ENDBRANCH   1   7
BRANCH   4  21
ATOM     21  C   UNL     1       3.488   2.261  17.648  0.00  0.00    +0.000 C 
BRANCH  21  22
ATOM     22  C   UNL     1       4.445   3.415  17.425  0.00  0.00    +0.000 A 
ATOM     23  C   UNL     1       5.466   3.689  18.342  0.00  0.00    +0.000 A 
ATOM     24  C   UNL     1       6.429   4.660  18.055  0.00  0.00    +0.000 A 
ATOM     25  C   UNL     1       6.392   5.369  16.850  0.00  0.00    +0.000 A 
ATOM     26  C   UNL     1       5.327   5.166  15.976  0.00  0.00    +0.000 A 
ATOM     27  C   UNL     1       4.372   4.180  16.252  0.00  0.00    +0.000 A 
BRANCH  25  28
ATOM     28  O   UNL     1       7.395   6.271  16.667  0.00  0.00    +0.000 OA
BRANCH  28  29
ATOM     29  C   UNL     1       7.494   7.374  17.562  0.00  0.00    +0.000 C 
ATOM     30  F   UNL     1       8.030   7.079  18.766  0.00  0.00    +0.000 F 
ATOM     31  F   UNL     1       8.241   8.343  16.987  0.00  0.00    +0.000 F 
ATOM     32  F   UNL     1       6.255   7.875  17.775  0.00  0.00    +0.000 F 
ENDBRANCH  28  29
ENDBRANCH  25  28
ENDBRANCH  21  22
ENDBRANCH   4  21
TORSDOF 9
ENDMDL
MODEL 2
REMARK VINA RESULT:      -8.0      0.879      1.433
REMARK  Name = 
REMARK  9 active torsions:
REMARK  status: ('A' for Active; 'I' for Inactive)
REMARK    1  A    between atoms: N_2  and  C_4
REMARK    2  A    between atoms: C_6  and  N_7
REMARK    3  A    between atoms: N_7  and  C_8
REMARK    4  A    between atoms: N_11  and  C_12
REMARK    5  A    between atoms: C_12  and  C_13
REMARK    6  A    between atoms: C_16  and  O_17
REMARK    7  A    between atoms: O_17  and  C_18
REMARK    8  A    between atoms: C_28  and  C_29
REMARK    9  A    between atoms: C_29  and  O_30
REMARK                            x       y       z     vdW  Elec       q    Type
REMARK                         _______ _______ _______ _____ _____    ______ ____
ROOT
ATOM      1  C   UNL     1       1.469   3.868  21.122  0.00  0.00    +0.000 C 
ATOM      2  C   UNL     1       2.390   2.663  21.317  0.00  0.00    +0.000 C 
ATOM      3  C   UNL     1       3.363   2.429  20.162  0.00  0.00    +0.000 C 
ATOM      4  N   UNL     1       2.746   2.438  18.827  0.00  0.00    +0.000 NA
ATOM      5  C   UNL     1       1.838   3.582  18.625  0.00  0.00    +0.000 C 
ATOM      6  C   UNL     1       0.823   3.801  19.744  0.00  0.00    +0.000 C 
ENDROOT
BRANCH   1   7
ATOM      7  N   UNL     1       2.189   5.130  21.341  0.00  0.00    +0.000 N 
ATOM      8  H   UNL     1       3.143   5.043  21.677  0.00  0.00    +0.000 HD
BRANCH   7  11
ATOM      9  C   UNL     1       1.098   8.618  20.562  0.00  0.00    +0.000 A 
ATOM     10  C   UNL     1       1.233   7.396  21.252  0.00  0.00    +0.000 A 
ATOM     11  C   UNL     1       1.910   6.320  20.677  0.00  0.00    +0.000 A 
ATOM     12  C   UNL     1       2.453   6.521  19.398  0.00  0.00    +0.000 A 
ATOM     13  C   UNL     1       2.331   7.748  18.720  0.00  0.00    +0.000 A 
ATOM     14  C   UNL     1       1.662   8.836  19.298  0.00  0.00    +0.000 A 
BRANCH   9  16
ATOM     15  O   UNL     1       0.927  10.348  22.067  0.00  0.00    +0.000 OA
ATOM     16  N   UNL     1       0.332   9.656  21.229  0.00  0.00    +0.000 N 
ATOM     17  O   UNL     1      -0.854   9.781  20.901  0.00  0.00    +0.000 OA
ENDBRANCH   9  16
BRANCH  14  18
ATOM     18  C   UNL     1       1.574  10.128  18.529  0.00  0.00    +0.000 C 
BRANCH  18  19
ATOM     19  O   UNL     1       2.074   9.929  17.211  0.00  0.00    +0.000 OA
ATOM     20  H   UNL     1       1.318  10.014  16.604  0.00  0.00    +0.000 HD
ENDBRANCH  18  19
ENDBRANCH  14  18
ENDBRANCH   7  11
ENDBRANCH   1   7
BRANCH   4  21
ATOM     21  C   UNL     1       3.790   2.500  17.774  0.00  0.00    +0.000 C 
BRANCH  21  22
ATOM     22  C   UNL     1       4.551   3.806  17.663  0.00  0.00    +0.000 A 
ATOM     23  C   UNL     1       4.365   4.653  16.565  0.00  0.00    +0.000 A 
ATOM     24  C   UNL     1       4.959   5.918  16.544  0.00  0.00    +0.000 A 
ATOM     25  C   UNL     1       5.742   6.359  17.615  0.00  0.00    +0.000 A 
ATOM     26  C   UNL     1       6.005   5.485  18.667  0.00  0.00    +0.000 A 
ATOM     27  C   UNL     1       5.395   4.225  18.701  0.00  0.00    +0.000 A 
BRANCH  25  28
ATOM     28  O   UNL     1       6.249   7.617  17.497  0.00  0.00    +0.000 OA
BRANCH  28  29
ATOM     29  C   UNL     1       7.662   7.785  17.468  0.00  0.00    +0.000 C 
ATOM     30  F   UNL     1       8.275   7.245  16.392  0.00  0.00    +0.000 F 
ATOM     31  F   UNL     1       7.950   9.105  17.506  0.00  0.00    +0.000 F 
ATOM     32  F   UNL     1       8.191   7.211  18.574  0.00  0.00    +0.000 F 
ENDBRANCH  28  29
ENDBRANCH  25  28
ENDBRANCH  21  22
ENDBRANCH   4  21
TORSDOF 9
ENDMDL
MODEL 3
REMARK VINA RESULT:      -7.8      1.088      1.880
REMARK  Name = 
REMARK  9 active torsions:
REMARK  status: ('A' for Active; 'I' for Inactive)
REMARK    1  A    between atoms: N_2  and  C_4
REMARK    2  A    between atoms: C_6  and  N_7
REMARK    3  A    between atoms: N_7  and  C_8
REMARK    4  A    between atoms: N_11  and  C_12
REMARK    5  A    between atoms: C_12  and  C_13
REMARK    6  A    between atoms: C_16  and  O_17
REMARK    7  A    between atoms: O_17  and  C_18
REMARK    8  A    between atoms: C_28  and  C_29
REMARK    9  A    between atoms: C_29  and  O_30
REMARK                            x       y       z     vdW  Elec       q    Type
REMARK                         _______ _______ _______ _____ _____    ______ ____
ROOT
ATOM      1  C   UNL     1       1.583   4.550  20.903  0.00  0.00    +0.000 C 
ATOM      2  C   UNL     1       2.448   3.352  21.294  0.00  0.00    +0.000 C 
ATOM      3  C   UNL     1       3.353   2.844  20.171  0.00  0.00    +0.000 C 
ATOM      4  N   UNL     1       2.675   2.635  18.883  0.00  0.00    +0.000 NA
ATOM      5  C   UNL     1       1.819   3.771  18.496  0.00  0.00    +0.000 C 
ATOM      6  C   UNL     1       0.871   4.260  19.588  0.00  0.00    +0.000 C 
ENDROOT
BRANCH   1   7
ATOM      7  N   UNL     1       2.376   5.785  20.848  0.00  0.00    +0.000 N 
ATOM      8  H   UNL     1       3.345   5.677  20.563  0.00  0.00    +0.000 HD
BRANCH   7  11
ATOM      9  C   UNL     1       1.445   9.061  19.310  0.00  0.00    +0.000 A 
ATOM     10  C   UNL     1       2.118   7.840  19.517  0.00  0.00    +0.000 A 
ATOM     11  C   UNL     1       1.846   7.053  20.638  0.00  0.00    +0.000 A 
ATOM     12  C   UNL     1       0.872   7.532  21.528  0.00  0.00    +0.000 A 
ATOM     13  C   UNL     1       0.190   8.743  21.309  0.00  0.00    +0.000 A 
ATOM     14  C   UNL     1       0.451   9.531  20.178  0.00  0.00    +0.000 A 
BRANCH   9  16
ATOM     15  O   UNL     1       1.961  11.049  18.278  0.00  0.00    +0.000 OA
ATOM     16  N   UNL     1       1.839   9.825  18.139  0.00  0.00    +0.000 N 
ATOM     17  O   UNL     1       2.037   9.193  17.094  0.00  0.00    +0.000 OA
ENDBRANCH   9  16
BRANCH  14  18
ATOM     18  C   UNL     1      -0.319  10.812  19.990  0.00  0.00    +0.000 C 
BRANCH  18  19
ATOM     19  O   UNL     1      -1.138  10.706  18.831  0.00  0.00    +0.000 OA
ATOM     20  H   UNL     1      -0.881   9.885  18.375  0.00  0.00    +0.000 HD
ENDBRANCH  18  19
ENDBRANCH  14  18
ENDBRANCH   7  11
ENDBRANCH   1   7
BRANCH   4  21
ATOM     21  C   UNL     1       3.671   2.432  17.802  0.00  0.00    +0.000 C 
BRANCH  21  22
ATOM     22  C   UNL     1       4.613   3.589  17.534  0.00  0.00    +0.000 A 
ATOM     23  C   UNL     1       5.580   3.959  18.474  0.00  0.00    +0.000 A 
ATOM     24  C   UNL     1       6.536   4.929  18.158  0.00  0.00    +0.000 A 
ATOM     25  C   UNL     1       6.543   5.541  16.901  0.00  0.00    +0.000 A 
ATOM     26  C   UNL     1       5.528   5.243  15.996  0.00  0.00    +0.000 A 
ATOM     27  C   UNL     1       4.582   4.258  16.302  0.00  0.00    +0.000 A 
BRANCH  25  28
ATOM     28  O   UNL     1       7.535   6.451  16.695  0.00  0.00    +0.000 OA
BRANCH  28  29
ATOM     29  C   UNL     1       7.607   7.587  17.550  0.00  0.00    +0.000 C 
ATOM     30  F   UNL     1       8.310   8.627  17.053  0.00  0.00    +0.000 F 
ATOM     31  F   UNL     1       6.353   8.011  17.825  0.00  0.00    +0.000 F 
ATOM     32  F   UNL     1       8.186   7.218  18.717  0.00  0.00    +0.000 F 
ENDBRANCH  28  29
ENDBRANCH  25  28
ENDBRANCH  21  22
ENDBRANCH   4  21
TORSDOF 9
ENDMDL
MODEL 4
REMARK VINA RESULT:      -7.7      0.963      1.379
REMARK  Name = 
REMARK  9 active torsions:
REMARK  status: ('A' for Active; 'I' for Inactive)
REMARK    1  A    between atoms: N_2  and  C_4
REMARK    2  A    between atoms: C_6  and  N_7
REMARK    3  A    between atoms: N_7  and  C_8
REMARK    4  A    between atoms: N_11  and  C_12
REMARK    5  A    between atoms: C_12  and  C_13
REMARK    6  A    between atoms: C_16  and  O_17
REMARK    7  A    between atoms: O_17  and  C_18
REMARK    8  A    between atoms: C_28  and  C_29
REMARK    9  A    between atoms: C_29  and  O_30
REMARK                            x       y       z     vdW  Elec       q    Type
REMARK                         _______ _______ _______ _____ _____    ______ ____
ROOT
ATOM      1  C   UNL     1       1.849   4.510  20.497  0.00  0.00    +0.000 C 
ATOM      2  C   UNL     1       2.794   3.332  20.736  0.00  0.00    +0.000 C 
ATOM      3  C   UNL     1       3.733   3.038  19.566  0.00  0.00    +0.000 C 
ATOM      4  N   UNL     1       3.072   2.955  18.254  0.00  0.00    +0.000 NA
ATOM      5  C   UNL     1       2.141   4.071  18.011  0.00  0.00    +0.000 C 
ATOM      6  C   UNL     1       1.160   4.348  19.148  0.00  0.00    +0.000 C 
ENDROOT
BRANCH   1   7
ATOM      7  N   UNL     1       2.556   5.793  20.612  0.00  0.00    +0.000 N 
ATOM      8  H   UNL     1       3.570   5.738  20.643  0.00  0.00    +0.000 HD
BRANCH   7  11
ATOM      9  C   UNL     1       1.018   9.197  20.512  0.00  0.00    +0.000 A 
ATOM     10  C   UNL     1       1.390   7.926  20.995  0.00  0.00    +0.000 A 
ATOM     11  C   UNL     1       2.051   7.012  20.173  0.00  0.00    +0.000 A 
ATOM     12  C   UNL     1       2.332   7.426  18.861  0.00  0.00    +0.000 A 
ATOM     13  C   UNL     1       1.974   8.701  18.388  0.00  0.00    +0.000 A 
ATOM     14  C   UNL     1       1.321   9.627  19.213  0.00  0.00    +0.000 A 
BRANCH   9  16
ATOM     15  O   UNL     1       0.870  11.066  21.842  0.00  0.00    +0.000 OA
ATOM     16  N   UNL     1       0.290  10.051  21.434  0.00  0.00    +0.000 N 
ATOM     17  O   UNL     1      -0.861   9.708  21.731  0.00  0.00    +0.000 OA
ENDBRANCH   9  16
BRANCH  14  18
ATOM     18  C   UNL     1       0.973  10.982  18.654  0.00  0.00    +0.000 C 
BRANCH  18  19
ATOM     19  O   UNL     1      -0.165  10.866  17.807  0.00  0.00    +0.000 OA
ATOM     20  H   UNL     1      -0.948  10.832  18.384  0.00  0.00    +0.000 HD
ENDBRANCH  18  19
ENDBRANCH  14  18
ENDBRANCH   7  11
ENDBRANCH   1   7
BRANCH   4  21
ATOM     21  C   UNL     1       4.080   2.964  17.166  0.00  0.00    +0.000 C 
BRANCH  21  22
ATOM     22  C   UNL     1       5.031   4.144  17.144  0.00  0.00    +0.000 A 
ATOM     23  C   UNL     1       6.407   3.960  17.313  0.00  0.00    +0.000 A 
ATOM     24  C   UNL     1       7.287   5.033  17.147  0.00  0.00    +0.000 A 
ATOM     25  C   UNL     1       6.810   6.302  16.806  0.00  0.00    +0.000 A 
ATOM     26  C   UNL     1       5.436   6.511  16.726  0.00  0.00    +0.000 A 
ATOM     27  C   UNL     1       4.553   5.434  16.873  0.00  0.00    +0.000 A 
BRANCH  25  28
ATOM     28  O   UNL     1       7.760   7.265  16.644  0.00  0.00    +0.000 OA
BRANCH  28  29
ATOM     29  C   UNL     1       7.933   8.233  17.673  0.00  0.00    +0.000 C 
ATOM     30  F   UNL     1       6.829   8.954  17.963  0.00  0.00    +0.000 F 
ATOM     31  F   UNL     1       8.344   7.609  18.800  0.00  0.00    +0.000 F 
ATOM     32  F   UNL     1       8.904   9.098  17.299  0.00  0.00    +0.000 F 
ENDBRANCH  28  29
ENDBRANCH  25  28
ENDBRANCH  21  22
ENDBRANCH   4  21
TORSDOF 9
ENDMDL
MODEL 5
REMARK VINA RESULT:      -7.7      0.926      1.417
REMARK  Name = 
REMARK  9 active torsions:
REMARK  status: ('A' for Active; 'I' for Inactive)
REMARK    1  A    between atoms: N_2  and  C_4
REMARK    2  A    between atoms: C_6  and  N_7
REMARK    3  A    between atoms: N_7  and  C_8
REMARK    4  A    between atoms: N_11  and  C_12
REMARK    5  A    between atoms: C_12  and  C_13
REMARK    6  A    between atoms: C_16  and  O_17
REMARK    7  A    between atoms: O_17  and  C_18
REMARK    8  A    between atoms: C_28  and  C_29
REMARK    9  A    between atoms: C_29  and  O_30
REMARK                            x       y       z     vdW  Elec       q    Type
REMARK                         _______ _______ _______ _____ _____    ______ ____
ROOT
ATOM      1  C   UNL     1       1.813   4.867  20.253  0.00  0.00    +0.000 C 
ATOM      2  C   UNL     1       2.628   3.676  20.758  0.00  0.00    +0.000 C 
ATOM      3  C   UNL     1       3.582   3.087  19.719  0.00  0.00    +0.000 C 
ATOM      4  N   UNL     1       2.970   2.817  18.408  0.00  0.00    +0.000 NA
ATOM      5  C   UNL     1       2.163   3.946  17.911  0.00  0.00    +0.000 C 
ATOM      6  C   UNL     1       1.168   4.515  18.918  0.00  0.00    +0.000 C 
ENDROOT
BRANCH   1   7
ATOM      7  N   UNL     1       2.636   6.081  20.172  0.00  0.00    +0.000 N 
ATOM      8  H   UNL     1       3.637   5.932  20.075  0.00  0.00    +0.000 HD
BRANCH   7  11
ATOM      9  C   UNL     1       1.187   9.521  19.993  0.00  0.00    +0.000 A 
ATOM     10  C   UNL     1       1.506   8.243  20.497  0.00  0.00    +0.000 A 
ATOM     11  C   UNL     1       2.182   7.311  19.709  0.00  0.00    +0.000 A 
ATOM     12  C   UNL     1       2.533   7.713  18.410  0.00  0.00    +0.000 A 
ATOM     13  C   UNL     1       2.229   8.995  17.917  0.00  0.00    +0.000 A 
ATOM     14  C   UNL     1       1.561   9.939  18.710  0.00  0.00    +0.000 A 
BRANCH   9  16
ATOM     15  O   UNL     1       1.056  10.908  21.822  0.00  0.00    +0.000 OA
ATOM     16  N   UNL     1       0.438  10.396  20.879  0.00  0.00    +0.000 N 
ATOM     17  O   UNL     1      -0.757  10.575  20.616  0.00  0.00    +0.000 OA
ENDBRANCH   9  16
BRANCH  14  18
ATOM     18  C   UNL     1       1.272  11.300  18.132  0.00  0.00    +0.000 C 
BRANCH  18  19
ATOM     19  O   UNL     1       2.444  11.803  17.499  0.00  0.00    +0.000 OA
ATOM     20  H   UNL     1       2.348  11.634  16.545  0.00  0.00    +0.000 HD
ENDBRANCH  18  19
ENDBRANCH  14  18
ENDBRANCH   7  11
ENDBRANCH   1   7
BRANCH   4  21
ATOM     21  C   UNL     1       4.019   2.533  17.397  0.00  0.00    +0.000 C 
BRANCH  21  22
ATOM     22  C   UNL     1       5.057   3.617  17.188  0.00  0.00    +0.000 A 
ATOM     23  C   UNL     1       5.251   4.191  15.927  0.00  0.00    +0.000 A 
ATOM     24  C   UNL     1       6.105   5.287  15.776  0.00  0.00    +0.000 A 
ATOM     25  C   UNL     1       6.774   5.829  16.878  0.00  0.00    +0.000 A 
ATOM     26  C   UNL     1       6.656   5.205  18.117  0.00  0.00    +0.000 A 
ATOM     27  C   UNL     1       5.786   4.120  18.275  0.00  0.00    +0.000 A 
BRANCH  25  28
ATOM     28  O   UNL     1       7.559   6.911  16.616  0.00  0.00    +0.000 OA
BRANCH  28  29
ATOM     29  C   UNL     1       7.722   7.897  17.630  0.00  0.00    +0.000 C 
ATOM     30  F   UNL     1       8.265   7.442  18.780  0.00  0.00    +0.000 F 
ATOM     31  F   UNL     1       8.502   8.894  17.154  0.00  0.00    +0.000 F 
ATOM     32  F   UNL     1       6.511   8.422  17.926  0.00  0.00    +0.000 F 
ENDBRANCH  28  29
ENDBRANCH  25  28
ENDBRANCH  21  22
ENDBRANCH   4  21
TORSDOF 9
ENDMDL
MODEL 6
REMARK VINA RESULT:      -7.7      3.348      6.839
REMARK  Name = 
REMARK  9 active torsions:
REMARK  status: ('A' for Active; 'I' for Inactive)
REMARK    1  A    between atoms: N_2  and  C_4
REMARK    2  A    between atoms: C_6  and  N_7
REMARK    3  A    between atoms: N_7  and  C_8
REMARK    4  A    between atoms: N_11  and  C_12
REMARK    5  A    between atoms: C_12  and  C_13
REMARK    6  A    between atoms: C_16  and  O_17
REMARK    7  A    between atoms: O_17  and  C_18
REMARK    8  A    between atoms: C_28  and  C_29
REMARK    9  A    between atoms: C_29  and  O_30
REMARK                            x       y       z     vdW  Elec       q    Type
REMARK                         _______ _______ _______ _____ _____    ______ ____
ROOT
ATOM      1  C   UNL     1       2.400   2.605  18.044  0.00  0.00    +0.000 C 
ATOM      2  C   UNL     1       2.070   3.918  17.334  0.00  0.00    +0.000 C 
ATOM      3  C   UNL     1       2.330   5.166  18.178  0.00  0.00    +0.000 C 
ATOM      4  N   UNL     1       1.764   5.118  19.534  0.00  0.00    +0.000 NA
ATOM      5  C   UNL     1       2.053   3.851  20.230  0.00  0.00    +0.000 C 
ATOM      6  C   UNL     1       1.751   2.592  19.422  0.00  0.00    +0.000 C 
ENDROOT
BRANCH   1   7
ATOM      7  N   UNL     1       3.850   2.382  18.107  0.00  0.00    +0.000 N 
ATOM      8  H   UNL     1       4.169   1.461  17.822  0.00  0.00    +0.000 HD
BRANCH   7  11
ATOM      9  C   UNL     1       6.114   5.043  16.781  0.00  0.00    +0.000 A 
ATOM     10  C   UNL     1       5.236   3.940  16.799  0.00  0.00    +0.000 A 
ATOM     11  C   UNL     1       4.806   3.387  18.006  0.00  0.00    +0.000 A 
ATOM     12  C   UNL     1       5.279   3.988  19.184  0.00  0.00    +0.000 A 
ATOM     13  C   UNL     1       6.141   5.099  19.161  0.00  0.00    +0.000 A 
ATOM     14  C   UNL     1       6.566   5.666  17.951  0.00  0.00    +0.000 A 
BRANCH   9  16
ATOM     15  O   UNL     1       7.692   5.228  15.119  0.00  0.00    +0.000 OA
ATOM     16  N   UNL     1       6.539   5.508  15.472  0.00  0.00    +0.000 N 
ATOM     17  O   UNL     1       5.712   6.138  14.802  0.00  0.00    +0.000 OA
ENDBRANCH   9  16
BRANCH  14  18
ATOM     18  C   UNL     1       7.480   6.862  17.990  0.00  0.00    +0.000 C 
BRANCH  18  19
ATOM     19  O   UNL     1       7.113   7.772  16.958  0.00  0.00    +0.000 OA
ATOM     20  H   UNL     1       7.698   8.545  17.038  0.00  0.00    +0.000 HD
ENDBRANCH  18  19
ENDBRANCH  14  18
ENDBRANCH   7  11
ENDBRANCH   1   7
BRANCH   4  21
ATOM     21  C   UNL     1       2.311   6.222  20.362  0.00  0.00    +0.000 C 
BRANCH  21  22
ATOM     22  C   UNL     1       1.847   7.620  20.003  0.00  0.00    +0.000 A 
ATOM     23  C   UNL     1       2.128   8.169  18.747  0.00  0.00    +0.000 A 
ATOM     24  C   UNL     1       1.573   9.396  18.375  0.00  0.00    +0.000 A 
ATOM     25  C   UNL     1       0.728  10.092  19.245  0.00  0.00    +0.000 A 
ATOM     26  C   UNL     1       0.519   9.595  20.528  0.00  0.00    +0.000 A 
ATOM     27  C   UNL     1       1.057   8.356  20.898  0.00  0.00    +0.000 A 
BRANCH  25  28
ATOM     28  O   UNL     1       0.224  11.263  18.766  0.00  0.00    +0.000 OA
BRANCH  28  29
ATOM     29  C   UNL     1      -1.161  11.330  18.445  0.00  0.00    +0.000 C 
ATOM     30  F   UNL     1      -1.485  12.268  17.529  0.00  0.00    +0.000 F 
ATOM     31  F   UNL     1      -1.565  10.125  17.983  0.00  0.00    +0.000 F 
ATOM     32  F   UNL     1      -1.858  11.598  19.574  0.00  0.00    +0.000 F 
ENDBRANCH  28  29
ENDBRANCH  25  28
ENDBRANCH  21  22
ENDBRANCH   4  21
TORSDOF 9
ENDMDL
MODEL 7
REMARK VINA RESULT:      -7.7      3.538      6.971
REMARK  Name = 
REMARK  9 active torsions:
REMARK  status: ('A' for Active; 'I' for Inactive)
REMARK    1  A    between atoms: N_2  and  C_4
REMARK    2  A    between atoms: C_6  and  N_7
REMARK    3  A    between atoms: N_7  and  C_8
REMARK    4  A    between atoms: N_11  and  C_12
REMARK    5  A    between atoms: C_12  and  C_13
REMARK    6  A    between atoms: C_16  and  O_17
REMARK    7  A    between atoms: O_17  and  C_18
REMARK    8  A    between atoms: C_28  and  C_29
REMARK    9  A    between atoms: C_29  and  O_30
REMARK                            x       y       z     vdW  Elec       q    Type
REMARK                         _______ _______ _______ _____ _____    ______ ____
ROOT
ATOM      1  C   UNL     1       1.906   2.686  19.723  0.00  0.00    +0.000 C 
ATOM      2  C   UNL     1       1.341   3.645  18.675  0.00  0.00    +0.000 C 
ATOM      3  C   UNL     1       1.799   5.094  18.845  0.00  0.00    +0.000 C 
ATOM      4  N   UNL     1       1.659   5.626  20.209  0.00  0.00    +0.000 NA
ATOM      5  C   UNL     1       2.179   4.707  21.237  0.00  0.00    +0.000 C 
ATOM      6  C   UNL     1       1.693   3.266  21.115  0.00  0.00    +0.000 C 
ENDROOT
BRANCH   1   7
ATOM      7  N   UNL     1       3.318   2.376  19.457  0.00  0.00    +0.000 N 
ATOM      8  H   UNL     1       3.594   1.410  19.601  0.00  0.00    +0.000 HD
BRANCH   7  11
ATOM      9  C   UNL     1       6.011   4.545  18.040  0.00  0.00    +0.000 A 
ATOM     10  C   UNL     1       5.147   3.954  18.984  0.00  0.00    +0.000 A 
ATOM     11  C   UNL     1       4.128   3.090  18.581  0.00  0.00    +0.000 A 
ATOM     12  C   UNL     1       4.019   2.836  17.204  0.00  0.00    +0.000 A 
ATOM     13  C   UNL     1       4.894   3.415  16.267  0.00  0.00    +0.000 A 
ATOM     14  C   UNL     1       5.927   4.273  16.669  0.00  0.00    +0.000 A 
BRANCH   9  16
ATOM     15  O   UNL     1       7.874   4.998  19.310  0.00  0.00    +0.000 OA
ATOM     16  N   UNL     1       7.005   5.467  18.563  0.00  0.00    +0.000 N 
ATOM     17  O   UNL     1       6.917   6.650  18.210  0.00  0.00    +0.000 OA
ENDBRANCH   9  16
BRANCH  14  18
ATOM     18  C   UNL     1       6.841   4.854  15.621  0.00  0.00    +0.000 C 
BRANCH  18  19
ATOM     19  O   UNL     1       6.285   6.068  15.129  0.00  0.00    +0.000 OA
ATOM     20  H   UNL     1       7.012   6.714  15.076  0.00  0.00    +0.000 HD
ENDBRANCH  18  19
ENDBRANCH  14  18
ENDBRANCH   7  11
ENDBRANCH   1   7
BRANCH   4  21
ATOM     21  C   UNL     1       2.389   6.911  20.340  0.00  0.00    +0.000 C 
BRANCH  21  22
ATOM     22  C   UNL     1       1.655   8.149  19.867  0.00  0.00    +0.000 A 
ATOM     23  C   UNL     1       1.803   8.614  18.556  0.00  0.00    +0.000 A 
ATOM     24  C   UNL     1       1.012   9.668  18.089  0.00  0.00    +0.000 A 
ATOM     25  C   UNL     1       0.060  10.269  18.918  0.00  0.00    +0.000 A 
ATOM     26  C   UNL     1      -0.027   9.872  20.250  0.00  0.00    +0.000 A 
ATOM     27  C   UNL     1       0.750   8.804  20.715  0.00  0.00    +0.000 A 
BRANCH  25  28
ATOM     28  O   UNL     1      -0.671  11.267  18.349  0.00  0.00    +0.000 OA
BRANCH  28  29
ATOM     29  C   UNL     1      -2.001  10.985  17.929  0.00  0.00    +0.000 C 
ATOM     30  F   UNL     1      -2.284   9.672  17.789  0.00  0.00    +0.000 F 
ATOM     31  F   UNL     1      -2.867  11.516  18.821  0.00  0.00    +0.000 F 
ATOM     32  F   UNL     1      -2.217  11.582  16.734  0.00  0.00    +0.000 F 
ENDBRANCH  28  29
ENDBRANCH  25  28
ENDBRANCH  21  22
ENDBRANCH   4  21
TORSDOF 9
ENDMDL
MODEL 8
REMARK VINA RESULT:      -7.6      1.568      2.191
REMARK  Name = 
REMARK  9 active torsions:
REMARK  status: ('A' for Active; 'I' for Inactive)
REMARK    1  A    between atoms: N_2  and  C_4
REMARK    2  A    between atoms: C_6  and  N_7
REMARK    3  A    between atoms: N_7  and  C_8
REMARK    4  A    between atoms: N_11  and  C_12
REMARK    5  A    between atoms: C_12  and  C_13
REMARK    6  A    between atoms: C_16  and  O_17
REMARK    7  A    between atoms: O_17  and  C_18
REMARK    8  A    between atoms: C_28  and  C_29
REMARK    9  A    between atoms: C_29  and  O_30
REMARK                            x       y       z     vdW  Elec       q    Type
REMARK                         _______ _______ _______ _____ _____    ______ ____
ROOT
ATOM      1  C   UNL     1       1.950   5.296  20.310  0.00  0.00    +0.000 C 
ATOM      2  C   UNL     1       3.125   4.404  20.713  0.00  0.00    +0.000 C 
ATOM      3  C   UNL     1       3.945   3.882  19.533  0.00  0.00    +0.000 C 
ATOM      4  N   UNL     1       3.150   3.287  18.448  0.00  0.00    +0.000 NA
ATOM      5  C   UNL     1       2.000   4.121  18.057  0.00  0.00    +0.000 C 
ATOM      6  C   UNL     1       1.138   4.610  19.218  0.00  0.00    +0.000 C 
ENDROOT
BRANCH   1   7
ATOM      7  N   UNL     1       2.408   6.633  19.908  0.00  0.00    +0.000 N 
ATOM      8  H   UNL     1       3.011   6.667  19.091  0.00  0.00    +0.000 HD
BRANCH   7  11
ATOM      9  C   UNL     1       0.648   9.422  21.664  0.00  0.00    +0.000 A 
ATOM     10  C   UNL     1       1.217   8.153  21.433  0.00  0.00    +0.000 A 
ATOM     11  C   UNL     1       1.726   7.813  20.178  0.00  0.00    +0.000 A 
ATOM     12  C   UNL     1       1.651   8.794  19.176  0.00  0.00    +0.000 A 
ATOM     13  C   UNL     1       1.098  10.065  19.415  0.00  0.00    +0.000 A 
ATOM     14  C   UNL     1       0.597  10.415  20.677  0.00  0.00    +0.000 A 
BRANCH   9  16
ATOM     15  O   UNL     1       0.895   9.611  23.941  0.00  0.00    +0.000 OA
ATOM     16  N   UNL     1       0.103   9.654  22.990  0.00  0.00    +0.000 N 
ATOM     17  O   UNL     1      -1.108   9.892  23.069  0.00  0.00    +0.000 OA
ENDBRANCH   9  16
BRANCH  14  18
ATOM     18  C   UNL     1       0.028  11.796  20.877  0.00  0.00    +0.000 C 
BRANCH  18  19
ATOM     19  O   UNL     1       1.031  12.648  21.418  0.00  0.00    +0.000 OA
ATOM     20  H   UNL     1       1.892  12.282  21.148  0.00  0.00    +0.000 HD
ENDBRANCH  18  19
ENDBRANCH  14  18
ENDBRANCH   7  11
ENDBRANCH   1   7
BRANCH   4  21
ATOM     21  C   UNL     1       3.991   3.084  17.242  0.00  0.00    +0.000 C 
BRANCH  21  22
ATOM     22  C   UNL     1       5.074   4.117  17.000  0.00  0.00    +0.000 A 
ATOM     23  C   UNL     1       4.859   5.192  16.132  0.00  0.00    +0.000 A 
ATOM     24  C   UNL     1       5.806   6.214  16.029  0.00  0.00    +0.000 A 
ATOM     25  C   UNL     1       6.978   6.182  16.791  0.00  0.00    +0.000 A 
ATOM     26  C   UNL     1       7.239   5.070  17.587  0.00  0.00    +0.000 A 
ATOM     27  C   UNL     1       6.283   4.054  17.708  0.00  0.00    +0.000 A 
BRANCH  25  28
ATOM     28  O   UNL     1       7.816   7.243  16.628  0.00  0.00    +0.000 OA
BRANCH  28  29
ATOM     29  C   UNL     1       7.954   8.174  17.696  0.00  0.00    +0.000 C 
ATOM     30  F   UNL     1       8.511   7.670  18.819  0.00  0.00    +0.000 F 
ATOM     31  F   UNL     1       8.707   9.217  17.278  0.00  0.00    +0.000 F 
ATOM     32  F   UNL     1       6.729   8.649  18.022  0.00  0.00    +0.000 F 
ENDBRANCH  28  29
ENDBRANCH  25  28
ENDBRANCH  21  22
ENDBRANCH   4  21
TORSDOF 9
ENDMDL
MODEL 9
REMARK VINA RESULT:      -7.5      3.402      6.923
REMARK  Name = 
REMARK  9 active torsions:
REMARK  status: ('A' for Active; 'I' for Inactive)
REMARK    1  A    between atoms: N_2  and  C_4
REMARK    2  A    between atoms: C_6  and  N_7
REMARK    3  A    between atoms: N_7  and  C_8
REMARK    4  A    between atoms: N_11  and  C_12
REMARK    5  A    between atoms: C_12  and  C_13
REMARK    6  A    between atoms: C_16  and  O_17
REMARK    7  A    between atoms: O_17  and  C_18
REMARK    8  A    between atoms: C_28  and  C_29
REMARK    9  A    between atoms: C_29  and  O_30
REMARK                            x       y       z     vdW  Elec       q    Type
REMARK                         _______ _______ _______ _____ _____    ______ ____
ROOT
ATOM      1  C   UNL     1       2.213   2.855  18.393  0.00  0.00    +0.000 C 
ATOM      2  C   UNL     1       1.954   4.057  17.485  0.00  0.00    +0.000 C 
ATOM      3  C   UNL     1       2.291   5.405  18.123  0.00  0.00    +0.000 C 
ATOM      4  N   UNL     1       1.733   5.603  19.469  0.00  0.00    +0.000 NA
ATOM      5  C   UNL     1       1.955   4.447  20.356  0.00  0.00    +0.000 C 
ATOM      6  C   UNL     1       1.575   3.096  19.755  0.00  0.00    +0.000 C 
ENDROOT
BRANCH   1   7
ATOM      7  N   UNL     1       3.649   2.561  18.493  0.00  0.00    +0.000 N 
ATOM      8  H   UNL     1       3.916   1.596  18.321  0.00  0.00    +0.000 HD
BRANCH   7  11
ATOM      9  C   UNL     1       6.041   4.937  16.880  0.00  0.00    +0.000 A 
ATOM     10  C   UNL     1       5.102   3.895  17.020  0.00  0.00    +0.000 A 
ATOM     11  C   UNL     1       4.659   3.493  18.281  0.00  0.00    +0.000 A 
ATOM     12  C   UNL     1       5.184   4.181  19.387  0.00  0.00    +0.000 A 
ATOM     13  C   UNL     1       6.108   5.232  19.242  0.00  0.00    +0.000 A 
ATOM     14  C   UNL     1       6.546   5.647  17.976  0.00  0.00    +0.000 A 
BRANCH   9  16
ATOM     15  O   UNL     1       5.787   6.049  14.884  0.00  0.00    +0.000 OA
ATOM     16  N   UNL     1       6.471   5.241  15.526  0.00  0.00    +0.000 N 
ATOM     17  O   UNL     1       7.498   4.682  15.122  0.00  0.00    +0.000 OA
ENDBRANCH   9  16
BRANCH  14  18
ATOM     18  C   UNL     1       7.528   6.786  17.883  0.00  0.00    +0.000 C 
BRANCH  18  19
ATOM     19  O   UNL     1       6.957   7.842  17.119  0.00  0.00    +0.000 OA
ATOM     20  H   UNL     1       7.356   8.671  17.436  0.00  0.00    +0.000 HD
ENDBRANCH  18  19
ENDBRANCH  14  18
ENDBRANCH   7  11
ENDBRANCH   1   7
BRANCH   4  21
ATOM     21  C   UNL     1       2.348   6.790  20.114  0.00  0.00    +0.000 C 
BRANCH  21  22
ATOM     22  C   UNL     1       1.701   8.126  19.811  0.00  0.00    +0.000 A 
ATOM     23  C   UNL     1       0.970   8.808  20.791  0.00  0.00    +0.000 A 
ATOM     24  C   UNL     1       0.502  10.102  20.547  0.00  0.00    +0.000 A 
ATOM     25  C   UNL     1       0.758  10.737  19.327  0.00  0.00    +0.000 A 
ATOM     26  C   UNL     1       1.404  10.029  18.317  0.00  0.00    +0.000 A 
ATOM     27  C   UNL     1       1.892   8.740  18.565  0.00  0.00    +0.000 A 
BRANCH  25  28
ATOM     28  O   UNL     1       0.277  12.006  19.211  0.00  0.00    +0.000 OA
BRANCH  28  29
ATOM     29  C   UNL     1      -0.979  12.203  18.571  0.00  0.00    +0.000 C 
ATOM     30  F   UNL     1      -0.948  13.029  17.504  0.00  0.00    +0.000 F 
ATOM     31  F   UNL     1      -1.463  11.005  18.170  0.00  0.00    +0.000 F 
ATOM     32  F   UNL     1      -1.849  12.723  19.469  0.00  0.00    +0.000 F 
ENDBRANCH  28  29
ENDBRANCH  25  28
ENDBRANCH  21  22
ENDBRANCH   4  21
TORSDOF 9
ENDMDL
