MODEL 1
REMARK VINA RESULT:      -7.1      0.000      0.000
REMARK  Name = 
REMARK  7 active torsions:
REMARK  status: ('A' for Active; 'I' for Inactive)
REMARK    1  A    between atoms: C_2  and  C_3
REMARK    2  A    between atoms: C_3  and  S_4
REMARK    3  A    between atoms: S_4  and  C_5
REMARK    4  A    between atoms: C_10  and  C_11
REMARK    5  A    between atoms: C_11  and  O_13
REMARK    6  A    between atoms: N_14  and  C_15
REMARK    7  A    between atoms: C_15  and  C_16
REMARK                            x       y       z     vdW  Elec       q    Type
REMARK                         _______ _______ _______ _____ _____    ______ ____
ROOT
ATOM      1  C   UNL     1       4.133   5.651  17.379  0.00  0.00    +0.000 C 
ENDROOT
BRANCH   1   3
ATOM      2  O   UNL     1       5.078   6.949  15.588  0.00  0.00    +0.000 OA
ATOM      3  C   UNL     1       5.179   5.962  16.314  0.00  0.00    +0.000 C 
ATOM      4  N   UNL     1       6.181   5.034  16.174  0.00  0.00    +0.000 N 
ATOM      5  H   UNL     1       6.220   4.254  16.818  0.00  0.00    +0.000 HD
BRANCH   4   6
ATOM      6  C   UNL     1       7.251   5.148  15.213  0.00  0.00    +0.000 C 
BRANCH   6   7
ATOM      7  C   UNL     1       6.807   4.489  13.963  0.00  0.00    +0.000 A 
ATOM      8  C   UNL     1       5.778   3.620  13.665  0.00  0.00    +0.000 A 
ATOM      9  C   UNL     1       5.889   3.329  12.285  0.00  0.00    +0.000 A 
ATOM     10  C   UNL     1       6.977   4.034  11.829  0.00  0.00    +0.000 A 
ATOM     11  O   UNL     1       7.546   4.739  12.842  0.00  0.00    +0.000 OA
ENDBRANCH   6   7
ENDBRANCH   4   6
ENDBRANCH   1   3
BRANCH   1  12
ATOM     12  S   UNL     1       4.902   5.017  18.917  0.00  0.00    +0.000 S 
BRANCH  12  13
ATOM     13  C   UNL     1       3.458   4.323  19.713  0.00  0.00    +0.000 A 
ATOM     14  C   UNL     1       2.367   5.196  19.879  0.00  0.00    +0.000 A 
ATOM     15  C   UNL     1       1.207   4.777  20.531  0.00  0.00    +0.000 A 
ATOM     16  C   UNL     1       1.118   3.484  21.030  0.00  0.00    +0.000 A 
ATOM     17  C   UNL     1       2.190   2.604  20.870  0.00  0.00    +0.000 A 
ATOM     18  C   UNL     1       3.368   3.013  20.217  0.00  0.00    +0.000 A 
BRANCH  18  19
ATOM     19  C   UNL     1       4.426   1.969  20.097  0.00  0.00    +0.000 C 
ATOM     20  O   UNL     1       5.222   1.745  20.995  0.00  0.00    +0.000 OA
BRANCH  19  21
ATOM     21  O   UNL     1       4.486   1.336  18.909  0.00  0.00    +0.000 OA
ATOM     22  H   UNL     1       5.072   1.770  18.257  0.00  0.00    +0.000 HD
ENDBRANCH  19  21
ENDBRANCH  18  19
ENDBRANCH  12  13
ENDBRANCH   1  12
TORSDOF 7
ENDMDL
MODEL 2
REMARK VINA RESULT:      -7.0      2.854      3.999
REMARK  Name = 
REMARK  7 active torsions:
REMARK  status: ('A' for Active; 'I' for Inactive)
REMARK    1  A    between atoms: C_2  and  C_3
REMARK    2  A    between atoms: C_3  and  S_4
REMARK    3  A    between atoms: S_4  and  C_5
REMARK    4  A    between atoms: C_10  and  C_11
REMARK    5  A    between atoms: C_11  and  O_13
REMARK    6  A    between atoms: N_14  and  C_15
REMARK    7  A    between atoms: C_15  and  C_16
REMARK                            x       y       z     vdW  Elec       q    Type
REMARK                         _______ _______ _______ _____ _____    ______ ____
ROOT
ATOM      1  C   UNL     1       3.960   2.969  18.042  0.00  0.00    +0.000 C 
ENDROOT
BRANCH   1   3
ATOM      2  O   UNL     1       4.436   4.092  15.969  0.00  0.00    +0.000 OA
ATOM      3  C   UNL     1       4.856   3.720  17.062  0.00  0.00    +0.000 C 
ATOM      4  N   UNL     1       6.164   3.876  17.451  0.00  0.00    +0.000 N 
ATOM      5  H   UNL     1       6.441   3.567  18.374  0.00  0.00    +0.000 HD
BRANCH   4   6
ATOM      6  C   UNL     1       7.162   4.547  16.655  0.00  0.00    +0.000 C 
BRANCH   6   7
ATOM      7  C   UNL     1       7.522   5.805  17.348  0.00  0.00    +0.000 A 
ATOM      8  C   UNL     1       7.858   6.104  18.652  0.00  0.00    +0.000 A 
ATOM      9  C   UNL     1       8.076   7.502  18.697  0.00  0.00    +0.000 A 
ATOM     10  C   UNL     1       7.857   7.966  17.422  0.00  0.00    +0.000 A 
ATOM     11  O   UNL     1       7.515   6.944  16.595  0.00  0.00    +0.000 OA
ENDBRANCH   6   7
ENDBRANCH   4   6
ENDBRANCH   1   3
BRANCH   1  12
ATOM     12  S   UNL     1       2.192   3.378  17.791  0.00  0.00    +0.000 S 
BRANCH  12  13
ATOM     13  C   UNL     1       2.091   4.883  18.754  0.00  0.00    +0.000 A 
ATOM     14  C   UNL     1       2.362   6.077  18.061  0.00  0.00    +0.000 A 
ATOM     15  C   UNL     1       2.360   7.305  18.723  0.00  0.00    +0.000 A 
ATOM     16  C   UNL     1       2.091   7.362  20.085  0.00  0.00    +0.000 A 
ATOM     17  C   UNL     1       1.815   6.187  20.785  0.00  0.00    +0.000 A 
ATOM     18  C   UNL     1       1.817   4.939  20.133  0.00  0.00    +0.000 A 
BRANCH  18  19
ATOM     19  C   UNL     1       1.487   3.768  20.994  0.00  0.00    +0.000 C 
ATOM     20  O   UNL     1       2.157   3.471  21.971  0.00  0.00    +0.000 OA
BRANCH  19  21
ATOM     21  O   UNL     1       0.442   3.022  20.586  0.00  0.00    +0.000 OA
ATOM     22  H   UNL     1       0.275   2.235  21.143  0.00  0.00    +0.000 HD
ENDBRANCH  19  21
ENDBRANCH  18  19
ENDBRANCH  12  13
ENDBRANCH   1  12
TORSDOF 7
ENDMDL
MODEL 3
REMARK VINA RESULT:      -7.0      1.588      1.774
REMARK  Name = 
REMARK  7 active torsions:
REMARK  status: ('A' for Active; 'I' for Inactive)
REMARK    1  A    between atoms: C_2  and  C_3
REMARK    2  A    between atoms: C_3  and  S_4
REMARK    3  A    between atoms: S_4  and  C_5
REMARK    4  A    between atoms: C_10  and  C_11
REMARK    5  A    between atoms: C_11  and  O_13
REMARK    6  A    between atoms: N_14  and  C_15
REMARK    7  A    between atoms: C_15  and  C_16
REMARK                            x       y       z     vdW  Elec       q    Type
REMARK                         _______ _______ _______ _____ _____    ______ ____
ROOT
ATOM      1  C   UNL     1       5.202   5.893  17.174  0.00  0.00    +0.000 C 
ENDROOT
BRANCH   1   3
ATOM      2  O   UNL     1       7.469   6.102  16.398  0.00  0.00    +0.000 OA
ATOM      3  C   UNL     1       6.345   5.648  16.195  0.00  0.00    +0.000 C 
ATOM      4  N   UNL     1       6.014   4.963  15.052  0.00  0.00    +0.000 N 
ATOM      5  H   UNL     1       5.075   4.596  14.955  0.00  0.00    +0.000 HD
BRANCH   4   6
ATOM      6  C   UNL     1       6.954   4.648  14.005  0.00  0.00    +0.000 C 
BRANCH   6   7
ATOM      7  C   UNL     1       6.249   3.821  12.999  0.00  0.00    +0.000 A 
ATOM      8  C   UNL     1       6.678   2.912  12.052  0.00  0.00    +0.000 A 
ATOM      9  C   UNL     1       5.519   2.466  11.374  0.00  0.00    +0.000 A 
ATOM     10  C   UNL     1       4.460   3.131  11.944  0.00  0.00    +0.000 A 
ATOM     11  O   UNL     1       4.893   3.961  12.929  0.00  0.00    +0.000 OA
ENDBRANCH   6   7
ENDBRANCH   4   6
ENDBRANCH   1   3
BRANCH   1  12
ATOM     12  S   UNL     1       5.293   4.765  18.615  0.00  0.00    +0.000 S 
BRANCH  12  13
ATOM     13  C   UNL     1       3.680   3.998  18.501  0.00  0.00    +0.000 A 
ATOM     14  C   UNL     1       2.652   4.802  17.977  0.00  0.00    +0.000 A 
ATOM     15  C   UNL     1       1.344   4.325  17.887  0.00  0.00    +0.000 A 
ATOM     16  C   UNL     1       1.041   3.041  18.322  0.00  0.00    +0.000 A 
ATOM     17  C   UNL     1       2.051   2.229  18.841  0.00  0.00    +0.000 A 
ATOM     18  C   UNL     1       3.374   2.698  18.940  0.00  0.00    +0.000 A 
BRANCH  18  19
ATOM     19  C   UNL     1       4.357   1.722  19.494  0.00  0.00    +0.000 C 
ATOM     20  O   UNL     1       5.025   1.965  20.486  0.00  0.00    +0.000 OA
BRANCH  19  21
ATOM     21  O   UNL     1       4.505   0.583  18.789  0.00  0.00    +0.000 OA
ATOM     22  H   UNL     1       4.675   0.725  17.836  0.00  0.00    +0.000 HD
ENDBRANCH  19  21
ENDBRANCH  18  19
ENDBRANCH  12  13
ENDBRANCH   1  12
TORSDOF 7
ENDMDL
MODEL 4
REMARK VINA RESULT:      -6.9      1.230      1.424
REMARK  Name = 
REMARK  7 active torsions:
REMARK  status: ('A' for Active; 'I' for Inactive)
REMARK    1  A    between atoms: C_2  and  C_3
REMARK    2  A    between atoms: C_3  and  S_4
REMARK    3  A    between atoms: S_4  and  C_5
REMARK    4  A    between atoms: C_10  and  C_11
REMARK    5  A    between atoms: C_11  and  O_13
REMARK    6  A    between atoms: N_14  and  C_15
REMARK    7  A    between atoms: C_15  and  C_16
REMARK                            x       y       z     vdW  Elec       q    Type
REMARK                         _______ _______ _______ _____ _____    ______ ____
ROOT
ATOM      1  C   UNL     1       4.679   5.221  17.331  0.00  0.00    +0.000 C 
ENDROOT
BRANCH   1   3
ATOM      2  O   UNL     1       6.900   4.334  17.069  0.00  0.00    +0.000 OA
ATOM      3  C   UNL     1       5.885   4.758  16.520  0.00  0.00    +0.000 C 
ATOM      4  N   UNL     1       5.787   4.921  15.160  0.00  0.00    +0.000 N 
ATOM      5  H   UNL     1       4.915   5.255  14.769  0.00  0.00    +0.000 HD
BRANCH   4   6
ATOM      6  C   UNL     1       6.827   4.555  14.231  0.00  0.00    +0.000 C 
BRANCH   6   7
ATOM      7  C   UNL     1       6.198   3.807  13.119  0.00  0.00    +0.000 A 
ATOM      8  C   UNL     1       6.703   3.041  12.089  0.00  0.00    +0.000 A 
ATOM      9  C   UNL     1       5.589   2.605  11.333  0.00  0.00    +0.000 A 
ATOM     10  C   UNL     1       4.478   3.134  11.945  0.00  0.00    +0.000 A 
ATOM     11  O   UNL     1       4.837   3.870  13.029  0.00  0.00    +0.000 OA
ENDBRANCH   6   7
ENDBRANCH   4   6
ENDBRANCH   1   3
BRANCH   1  12
ATOM     12  S   UNL     1       5.021   5.185  19.130  0.00  0.00    +0.000 S 
BRANCH  12  13
ATOM     13  C   UNL     1       3.496   4.454  19.713  0.00  0.00    +0.000 A 
ATOM     14  C   UNL     1       2.442   5.350  19.972  0.00  0.00    +0.000 A 
ATOM     15  C   UNL     1       1.223   4.896  20.476  0.00  0.00    +0.000 A 
ATOM     16  C   UNL     1       1.037   3.544  20.734  0.00  0.00    +0.000 A 
ATOM     17  C   UNL     1       2.070   2.642  20.478  0.00  0.00    +0.000 A 
ATOM     18  C   UNL     1       3.307   3.084  19.972  0.00  0.00    +0.000 A 
BRANCH  18  19
ATOM     19  C   UNL     1       4.316   2.014  19.726  0.00  0.00    +0.000 C 
ATOM     20  O   UNL     1       5.162   1.717  20.554  0.00  0.00    +0.000 OA
BRANCH  19  21
ATOM     21  O   UNL     1       4.272   1.444  18.506  0.00  0.00    +0.000 OA
ATOM     22  H   UNL     1       3.596   0.743  18.420  0.00  0.00    +0.000 HD
ENDBRANCH  19  21
ENDBRANCH  18  19
ENDBRANCH  12  13
ENDBRANCH   1  12
TORSDOF 7
ENDMDL
MODEL 5
REMARK VINA RESULT:      -6.9      0.926      1.114
REMARK  Name = 
REMARK  7 active torsions:
REMARK  status: ('A' for Active; 'I' for Inactive)
REMARK    1  A    between atoms: C_2  and  C_3
REMARK    2  A    between atoms: C_3  and  S_4
REMARK    3  A    between atoms: S_4  and  C_5
REMARK    4  A    between atoms: C_10  and  C_11
REMARK    5  A    between atoms: C_11  and  O_13
REMARK    6  A    between atoms: N_14  and  C_15
REMARK    7  A    between atoms: C_15  and  C_16
REMARK                            x       y       z     vdW  Elec       q    Type
REMARK                         _______ _______ _______ _____ _____    ______ ____
ROOT
ATOM      1  C   UNL     1       4.373   5.450  16.946  0.00  0.00    +0.000 C 
ENDROOT
BRANCH   1   3
ATOM      2  O   UNL     1       5.603   6.693  15.294  0.00  0.00    +0.000 OA
ATOM      3  C   UNL     1       5.329   5.591  15.765  0.00  0.00    +0.000 C 
ATOM      4  N   UNL     1       5.789   4.415  15.228  0.00  0.00    +0.000 N 
ATOM      5  H   UNL     1       5.544   3.542  15.677  0.00  0.00    +0.000 HD
BRANCH   4   6
ATOM      6  C   UNL     1       6.688   4.346  14.103  0.00  0.00    +0.000 C 
BRANCH   6   7
ATOM      7  C   UNL     1       5.975   3.669  12.995  0.00  0.00    +0.000 A 
ATOM      8  C   UNL     1       4.701   3.786  12.479  0.00  0.00    +0.000 A 
ATOM      9  C   UNL     1       4.609   2.844  11.427  0.00  0.00    +0.000 A 
ATOM     10  C   UNL     1       5.827   2.211  11.370  0.00  0.00    +0.000 A 
ATOM     11  O   UNL     1       6.664   2.701  12.322  0.00  0.00    +0.000 OA
ENDBRANCH   6   7
ENDBRANCH   4   6
ENDBRANCH   1   3
BRANCH   1  12
ATOM     12  S   UNL     1       5.216   4.760  18.419  0.00  0.00    +0.000 S 
BRANCH  12  13
ATOM     13  C   UNL     1       3.791   4.346  19.417  0.00  0.00    +0.000 A 
ATOM     14  C   UNL     1       2.878   5.391  19.652  0.00  0.00    +0.000 A 
ATOM     15  C   UNL     1       1.755   5.195  20.457  0.00  0.00    +0.000 A 
ATOM     16  C   UNL     1       1.528   3.956  21.043  0.00  0.00    +0.000 A 
ATOM     17  C   UNL     1       2.421   2.908  20.816  0.00  0.00    +0.000 A 
ATOM     18  C   UNL     1       3.559   3.091  20.009  0.00  0.00    +0.000 A 
BRANCH  18  19
ATOM     19  C   UNL     1       4.418   1.885  19.834  0.00  0.00    +0.000 C 
ATOM     20  O   UNL     1       5.284   1.582  20.639  0.00  0.00    +0.000 OA
BRANCH  19  21
ATOM     21  O   UNL     1       4.219   1.189  18.697  0.00  0.00    +0.000 OA
ATOM     22  H   UNL     1       3.807   0.313  18.835  0.00  0.00    +0.000 HD
ENDBRANCH  19  21
ENDBRANCH  18  19
ENDBRANCH  12  13
ENDBRANCH   1  12
TORSDOF 7
ENDMDL
MODEL 6
REMARK VINA RESULT:      -6.9      1.145      1.212
REMARK  Name = 
REMARK  7 active torsions:
REMARK  status: ('A' for Active; 'I' for Inactive)
REMARK    1  A    between atoms: C_2  and  C_3
REMARK    2  A    between atoms: C_3  and  S_4
REMARK    3  A    between atoms: S_4  and  C_5
REMARK    4  A    between atoms: C_10  and  C_11
REMARK    5  A    between atoms: C_11  and  O_13
REMARK    6  A    between atoms: N_14  and  C_15
REMARK    7  A    between atoms: C_15  and  C_16
REMARK                            x       y       z     vdW  Elec       q    Type
REMARK                         _______ _______ _______ _____ _____    ______ ____
ROOT
ATOM      1  C   UNL     1       3.469   5.510  17.632  0.00  0.00    +0.000 C 
ENDROOT
BRANCH   1   3
ATOM      2  O   UNL     1       5.228   7.074  17.137  0.00  0.00    +0.000 OA
ATOM      3  C   UNL     1       4.780   5.940  16.982  0.00  0.00    +0.000 C 
ATOM      4  N   UNL     1       5.370   5.011  16.161  0.00  0.00    +0.000 N 
ATOM      5  H   UNL     1       4.962   4.087  16.094  0.00  0.00    +0.000 HD
BRANCH   4   6
ATOM      6  C   UNL     1       6.604   5.238  15.450  0.00  0.00    +0.000 C 
BRANCH   6   7
ATOM      7  C   UNL     1       6.490   4.585  14.126  0.00  0.00    +0.000 A 
ATOM      8  C   UNL     1       5.614   3.656  13.601  0.00  0.00    +0.000 A 
ATOM      9  C   UNL     1       6.041   3.410  12.275  0.00  0.00    +0.000 A 
ATOM     10  C   UNL     1       7.149   4.199  12.075  0.00  0.00    +0.000 A 
ATOM     11  O   UNL     1       7.433   4.914  13.195  0.00  0.00    +0.000 OA
ENDBRANCH   6   7
ENDBRANCH   4   6
ENDBRANCH   1   3
BRANCH   1  12
ATOM     12  S   UNL     1       3.153   3.721  17.398  0.00  0.00    +0.000 S 
BRANCH  12  13
ATOM     13  C   UNL     1       2.525   3.309  19.022  0.00  0.00    +0.000 A 
ATOM     14  C   UNL     1       1.158   3.567  19.237  0.00  0.00    +0.000 A 
ATOM     15  C   UNL     1       0.572   3.331  20.481  0.00  0.00    +0.000 A 
ATOM     16  C   UNL     1       1.339   2.837  21.529  0.00  0.00    +0.000 A 
ATOM     17  C   UNL     1       2.694   2.572  21.330  0.00  0.00    +0.000 A 
ATOM     18  C   UNL     1       3.301   2.808  20.082  0.00  0.00    +0.000 A 
BRANCH  18  19
ATOM     19  C   UNL     1       4.749   2.463  20.001  0.00  0.00    +0.000 C 
ATOM     20  O   UNL     1       5.193   1.416  20.446  0.00  0.00    +0.000 OA
BRANCH  19  21
ATOM     21  O   UNL     1       5.543   3.410  19.464  0.00  0.00    +0.000 OA
ATOM     22  H   UNL     1       5.263   3.705  18.575  0.00  0.00    +0.000 HD
ENDBRANCH  19  21
ENDBRANCH  18  19
ENDBRANCH  12  13
ENDBRANCH   1  12
TORSDOF 7
ENDMDL
MODEL 7
REMARK VINA RESULT:      -6.8      1.571      1.851
REMARK  Name = 
REMARK  7 active torsions:
REMARK  status: ('A' for Active; 'I' for Inactive)
REMARK    1  A    between atoms: C_2  and  C_3
REMARK    2  A    between atoms: C_3  and  S_4
REMARK    3  A    between atoms: S_4  and  C_5
REMARK    4  A    between atoms: C_10  and  C_11
REMARK    5  A    between atoms: C_11  and  O_13
REMARK    6  A    between atoms: N_14  and  C_15
REMARK    7  A    between atoms: C_15  and  C_16
REMARK                            x       y       z     vdW  Elec       q    Type
REMARK                         _______ _______ _______ _____ _____    ______ ____
ROOT
ATOM      1  C   UNL     1       5.796   4.299  17.632  0.00  0.00    +0.000 C 
ENDROOT
BRANCH   1   3
ATOM      2  O   UNL     1       7.935   4.612  16.576  0.00  0.00    +0.000 OA
ATOM      3  C   UNL     1       6.735   4.389  16.433  0.00  0.00    +0.000 C 
ATOM      4  N   UNL     1       6.138   4.283  15.201  0.00  0.00    +0.000 N 
ATOM      5  H   UNL     1       5.149   4.076  15.152  0.00  0.00    +0.000 HD
BRANCH   4   6
ATOM      6  C   UNL     1       6.858   4.356  13.953  0.00  0.00    +0.000 C 
BRANCH   6   7
ATOM      7  C   UNL     1       6.034   3.691  12.917  0.00  0.00    +0.000 A 
ATOM      8  C   UNL     1       4.745   3.883  12.466  0.00  0.00    +0.000 A 
ATOM      9  C   UNL     1       4.523   2.909  11.464  0.00  0.00    +0.000 A 
ATOM     10  C   UNL     1       5.686   2.182  11.370  0.00  0.00    +0.000 A 
ATOM     11  O   UNL     1       6.610   2.646  12.252  0.00  0.00    +0.000 OA
ENDBRANCH   6   7
ENDBRANCH   4   6
ENDBRANCH   1   3
BRANCH   1  12
ATOM     12  S   UNL     1       4.042   4.472  17.132  0.00  0.00    +0.000 S 
BRANCH  12  13
ATOM     13  C   UNL     1       3.255   4.323  18.732  0.00  0.00    +0.000 A 
ATOM     14  C   UNL     1       2.550   5.455  19.179  0.00  0.00    +0.000 A 
ATOM     15  C   UNL     1       1.938   5.469  20.433  0.00  0.00    +0.000 A 
ATOM     16  C   UNL     1       2.023   4.356  21.261  0.00  0.00    +0.000 A 
ATOM     17  C   UNL     1       2.715   3.224  20.829  0.00  0.00    +0.000 A 
ATOM     18  C   UNL     1       3.340   3.196  19.569  0.00  0.00    +0.000 A 
BRANCH  18  19
ATOM     19  C   UNL     1       4.028   1.918  19.226  0.00  0.00    +0.000 C 
ATOM     20  O   UNL     1       3.598   1.158  18.373  0.00  0.00    +0.000 OA
BRANCH  19  21
ATOM     21  O   UNL     1       5.118   1.628  19.964  0.00  0.00    +0.000 OA
ATOM     22  H   UNL     1       5.776   1.074  19.499  0.00  0.00    +0.000 HD
ENDBRANCH  19  21
ENDBRANCH  18  19
ENDBRANCH  12  13
ENDBRANCH   1  12
TORSDOF 7
ENDMDL
MODEL 8
REMARK VINA RESULT:      -6.7      1.888      2.266
REMARK  Name = 
REMARK  7 active torsions:
REMARK  status: ('A' for Active; 'I' for Inactive)
REMARK    1  A    between atoms: C_2  and  C_3
REMARK    2  A    between atoms: C_3  and  S_4
REMARK    3  A    between atoms: S_4  and  C_5
REMARK    4  A    between atoms: C_10  and  C_11
REMARK    5  A    between atoms: C_11  and  O_13
REMARK    6  A    between atoms: N_14  and  C_15
REMARK    7  A    between atoms: C_15  and  C_16
REMARK                            x       y       z     vdW  Elec       q    Type
REMARK                         _______ _______ _______ _____ _____    ______ ____
ROOT
ATOM      1  C   UNL     1       5.656   4.496  17.800  0.00  0.00    +0.000 C 
ENDROOT
BRANCH   1   3
ATOM      2  O   UNL     1       7.892   4.380  16.921  0.00  0.00    +0.000 OA
ATOM      3  C   UNL     1       6.690   4.472  16.679  0.00  0.00    +0.000 C 
ATOM      4  N   UNL     1       6.195   4.637  15.409  0.00  0.00    +0.000 N 
ATOM      5  H   UNL     1       5.193   4.684  15.276  0.00  0.00    +0.000 HD
BRANCH   4   6
ATOM      6  C   UNL     1       7.018   4.654  14.225  0.00  0.00    +0.000 C 
BRANCH   6   7
ATOM      7  C   UNL     1       6.312   3.886  13.173  0.00  0.00    +0.000 A 
ATOM      8  C   UNL     1       6.742   3.057  12.157  0.00  0.00    +0.000 A 
ATOM      9  C   UNL     1       5.580   2.636  11.468  0.00  0.00    +0.000 A 
ATOM     10  C   UNL     1       4.518   3.235  12.102  0.00  0.00    +0.000 A 
ATOM     11  O   UNL     1       4.952   4.000  13.138  0.00  0.00    +0.000 OA
ENDBRANCH   6   7
ENDBRANCH   4   6
ENDBRANCH   1   3
BRANCH   1  12
ATOM     12  S   UNL     1       4.213   5.539  17.366  0.00  0.00    +0.000 S 
BRANCH  12  13
ATOM     13  C   UNL     1       3.059   4.995  18.620  0.00  0.00    +0.000 A 
ATOM     14  C   UNL     1       2.783   5.918  19.646  0.00  0.00    +0.000 A 
ATOM     15  C   UNL     1       1.936   5.584  20.702  0.00  0.00    +0.000 A 
ATOM     16  C   UNL     1       1.353   4.324  20.754  0.00  0.00    +0.000 A 
ATOM     17  C   UNL     1       1.612   3.399  19.742  0.00  0.00    +0.000 A 
ATOM     18  C   UNL     1       2.467   3.720  18.671  0.00  0.00    +0.000 A 
BRANCH  18  19
ATOM     19  C   UNL     1       2.641   2.648  17.650  0.00  0.00    +0.000 C 
ATOM     20  O   UNL     1       2.326   2.807  16.481  0.00  0.00    +0.000 OA
BRANCH  19  21
ATOM     21  O   UNL     1       3.108   1.472  18.115  0.00  0.00    +0.000 OA
ATOM     22  H   UNL     1       3.122   0.759  17.446  0.00  0.00    +0.000 HD
ENDBRANCH  19  21
ENDBRANCH  18  19
ENDBRANCH  12  13
ENDBRANCH   1  12
TORSDOF 7
ENDMDL
MODEL 9
REMARK VINA RESULT:      -6.7      2.487      3.752
REMARK  Name = 
REMARK  7 active torsions:
REMARK  status: ('A' for Active; 'I' for Inactive)
REMARK    1  A    between atoms: C_2  and  C_3
REMARK    2  A    between atoms: C_3  and  S_4
REMARK    3  A    between atoms: S_4  and  C_5
REMARK    4  A    between atoms: C_10  and  C_11
REMARK    5  A    between atoms: C_11  and  O_13
REMARK    6  A    between atoms: N_14  and  C_15
REMARK    7  A    between atoms: C_15  and  C_16
REMARK                            x       y       z     vdW  Elec       q    Type
REMARK                         _______ _______ _______ _____ _____    ______ ____
ROOT
ATOM      1  C   UNL     1       3.696   1.880  18.268  0.00  0.00    +0.000 C 
ENDROOT
BRANCH   1   3
ATOM      2  O   UNL     1       2.989   3.491  16.627  0.00  0.00    +0.000 OA
ATOM      3  C   UNL     1       3.929   2.957  17.213  0.00  0.00    +0.000 C 
ATOM      4  N   UNL     1       5.242   3.224  16.915  0.00  0.00    +0.000 N 
ATOM      5  H   UNL     1       5.969   2.766  17.450  0.00  0.00    +0.000 HD
BRANCH   4   6
ATOM      6  C   UNL     1       5.660   4.199  15.938  0.00  0.00    +0.000 C 
BRANCH   6   7
ATOM      7  C   UNL     1       6.371   5.282  16.655  0.00  0.00    +0.000 A 
ATOM      8  C   UNL     1       7.374   5.289  17.603  0.00  0.00    +0.000 A 
ATOM      9  C   UNL     1       7.615   6.648  17.918  0.00  0.00    +0.000 A 
ATOM     10  C   UNL     1       6.745   7.381  17.148  0.00  0.00    +0.000 A 
ATOM     11  O   UNL     1       5.980   6.561  16.380  0.00  0.00    +0.000 OA
ENDBRANCH   6   7
ENDBRANCH   4   6
ENDBRANCH   1   3
BRANCH   1  12
ATOM     12  S   UNL     1       4.207   2.444  19.934  0.00  0.00    +0.000 S 
BRANCH  12  13
ATOM     13  C   UNL     1       3.356   4.016  19.996  0.00  0.00    +0.000 A 
ATOM     14  C   UNL     1       4.081   5.128  19.528  0.00  0.00    +0.000 A 
ATOM     15  C   UNL     1       3.534   6.411  19.574  0.00  0.00    +0.000 A 
ATOM     16  C   UNL     1       2.259   6.605  20.091  0.00  0.00    +0.000 A 
ATOM     17  C   UNL     1       1.526   5.512  20.555  0.00  0.00    +0.000 A 
ATOM     18  C   UNL     1       2.065   4.213  20.518  0.00  0.00    +0.000 A 
BRANCH  18  19
ATOM     19  C   UNL     1       1.168   3.136  21.026  0.00  0.00    +0.000 C 
ATOM     20  O   UNL     1       1.346   2.599  22.108  0.00  0.00    +0.000 OA
BRANCH  19  21
ATOM     21  O   UNL     1       0.188   2.749  20.185  0.00  0.00    +0.000 OA
ATOM     22  H   UNL     1      -0.712   2.965  20.500  0.00  0.00    +0.000 HD
ENDBRANCH  19  21
ENDBRANCH  18  19
ENDBRANCH  12  13
ENDBRANCH   1  12
TORSDOF 7
ENDMDL
