MODEL 1
REMARK VINA RESULT:      -6.5      0.000      0.000
REMARK  Name = 
REMARK  10 active torsions:
REMARK  status: ('A' for Active; 'I' for Inactive)
REMARK    1  A    between atoms: C_1  and  O_2
REMARK    2  A    between atoms: O_2  and  C_3
REMARK    3  A    between atoms: C_4  and  C_5
REMARK    4  A    between atoms: C_5  and  C_6
REMARK    5  A    between atoms: C_7  and  C_8
REMARK    6  A    between atoms: C_7  and  C_9
REMARK    7  A    between atoms: C_10  and  O_11
REMARK    8  A    between atoms: C_13  and  O_14
REMARK    9  A    between atoms: C_15  and  C_16
REMARK   10  A    between atoms: C_16  and  C_17
REMARK                            x       y       z     vdW  Elec       q    Type
REMARK                         _______ _______ _______ _____ _____    ______ ____
ROOT
ATOM      1  C   UNL     1       4.312   4.631  17.126  0.00  0.00    +0.000 A 
ATOM      2  C   UNL     1       3.294   5.466  17.685  0.00  0.00    +0.000 A 
ATOM      3  C   UNL     1       3.574   6.813  17.941  0.00  0.00    +0.000 A 
ATOM      4  C   UNL     1       4.799   7.362  17.597  0.00  0.00    +0.000 A 
ATOM      5  C   UNL     1       5.756   6.577  16.957  0.00  0.00    +0.000 A 
ATOM      6  C   UNL     1       5.540   5.204  16.705  0.00  0.00    +0.000 A 
ENDROOT
BRANCH   6   7
ATOM      7  C   UNL     1       6.567   4.491  15.885  0.00  0.00    +0.000 C 
ATOM      8  C   UNL     1       6.226   3.880  14.543  0.00  0.00    +0.000 C 
ATOM      9  O   UNL     1       7.704   4.340  16.328  0.00  0.00    +0.000 OA
ENDBRANCH   6   7
BRANCH   1  11
ATOM     10  C   UNL     1       4.411   2.399  18.147  0.00  0.00    +0.000 C 
ATOM     11  O   UNL     1       3.932   3.315  17.185  0.00  0.00    +0.000 OA
ENDBRANCH   1  11
BRANCH   3  12
ATOM     12  O   UNL     1       2.681   7.671  18.514  0.00  0.00    +0.000 OA
ATOM     13  H   UNL     1       3.052   7.996  19.351  0.00  0.00    +0.000 HD
ENDBRANCH   3  12
BRANCH   5  14
ATOM     14  O   UNL     1       6.905   7.203  16.545  0.00  0.00    +0.000 OA
ATOM     15  H   UNL     1       7.562   7.178  17.263  0.00  0.00    +0.000 HD
ENDBRANCH   5  14
BRANCH   2  16
ATOM     16  C   UNL     1       1.889   4.919  17.918  0.00  0.00    +0.000 C 
BRANCH  16  17
ATOM     17  C   UNL     1       1.652   4.430  19.320  0.00  0.00    +0.000 C 
ATOM     18  C   UNL     1       1.184   3.234  19.730  0.00  0.00    +0.000 C 
ATOM     19  C   UNL     1       0.746   2.102  18.839  0.00  0.00    +0.000 C 
ATOM     20  C   UNL     1       1.081   2.922  21.201  0.00  0.00    +0.000 C 
ENDBRANCH  16  17
ENDBRANCH   2  16
TORSDOF 6
ENDMDL
MODEL 2
REMARK VINA RESULT:      -6.4      1.451      5.295
REMARK  Name = 
REMARK  10 active torsions:
REMARK  status: ('A' for Active; 'I' for Inactive)
REMARK    1  A    between atoms: C_1  and  O_2
REMARK    2  A    between atoms: O_2  and  C_3
REMARK    3  A    between atoms: C_4  and  C_5
REMARK    4  A    between atoms: C_5  and  C_6
REMARK    5  A    between atoms: C_7  and  C_8
REMARK    6  A    between atoms: C_7  and  C_9
REMARK    7  A    between atoms: C_10  and  O_11
REMARK    8  A    between atoms: C_13  and  O_14
REMARK    9  A    between atoms: C_15  and  C_16
REMARK   10  A    between atoms: C_16  and  C_17
REMARK                            x       y       z     vdW  Elec       q    Type
REMARK                         _______ _______ _______ _____ _____    ______ ____
ROOT
ATOM      1  C   UNL     1       3.851   4.347  18.147  0.00  0.00    +0.000 A 
ATOM      2  C   UNL     1       4.737   4.954  17.201  0.00  0.00    +0.000 A 
ATOM      3  C   UNL     1       4.624   6.323  16.935  0.00  0.00    +0.000 A 
ATOM      4  C   UNL     1       3.714   7.108  17.624  0.00  0.00    +0.000 A 
ATOM      5  C   UNL     1       2.922   6.541  18.619  0.00  0.00    +0.000 A 
ATOM      6  C   UNL     1       2.969   5.159  18.907  0.00  0.00    +0.000 A 
ENDROOT
BRANCH   6   7
ATOM      7  C   UNL     1       2.188   4.681  20.088  0.00  0.00    +0.000 C 
ATOM      8  C   UNL     1       0.937   3.846  19.926  0.00  0.00    +0.000 C 
ATOM      9  O   UNL     1       2.527   5.018  21.221  0.00  0.00    +0.000 OA
ENDBRANCH   6   7
BRANCH   1  11
ATOM     10  C   UNL     1       2.923   2.138  17.605  0.00  0.00    +0.000 C 
ATOM     11  O   UNL     1       3.950   2.981  18.082  0.00  0.00    +0.000 OA
ENDBRANCH   1  11
BRANCH   3  12
ATOM     12  O   UNL     1       5.394   6.975  16.016  0.00  0.00    +0.000 OA
ATOM     13  H   UNL     1       5.944   6.325  15.549  0.00  0.00    +0.000 HD
ENDBRANCH   3  12
BRANCH   5  14
ATOM     14  O   UNL     1       2.119   7.389  19.338  0.00  0.00    +0.000 OA
ATOM     15  H   UNL     1       1.600   7.940  18.726  0.00  0.00    +0.000 HD
ENDBRANCH   5  14
BRANCH   2  16
ATOM     16  C   UNL     1       5.853   4.137  16.556  0.00  0.00    +0.000 C 
BRANCH  16  17
ATOM     17  C   UNL     1       5.559   3.721  15.140  0.00  0.00    +0.000 C 
ATOM     18  C   UNL     1       6.198   4.074  14.007  0.00  0.00    +0.000 C 
ATOM     19  C   UNL     1       7.363   5.021  13.904  0.00  0.00    +0.000 C 
ATOM     20  C   UNL     1       5.776   3.487  12.684  0.00  0.00    +0.000 C 
ENDBRANCH  16  17
ENDBRANCH   2  16
TORSDOF 6
ENDMDL
MODEL 3
REMARK VINA RESULT:      -6.2      1.156      3.031
REMARK  Name = 
REMARK  10 active torsions:
REMARK  status: ('A' for Active; 'I' for Inactive)
REMARK    1  A    between atoms: C_1  and  O_2
REMARK    2  A    between atoms: O_2  and  C_3
REMARK    3  A    between atoms: C_4  and  C_5
REMARK    4  A    between atoms: C_5  and  C_6
REMARK    5  A    between atoms: C_7  and  C_8
REMARK    6  A    between atoms: C_7  and  C_9
REMARK    7  A    between atoms: C_10  and  O_11
REMARK    8  A    between atoms: C_13  and  O_14
REMARK    9  A    between atoms: C_15  and  C_16
REMARK   10  A    between atoms: C_16  and  C_17
REMARK                            x       y       z     vdW  Elec       q    Type
REMARK                         _______ _______ _______ _____ _____    ______ ____
ROOT
ATOM      1  C   UNL     1       4.245   5.947  17.880  0.00  0.00    +0.000 A 
ATOM      2  C   UNL     1       3.209   4.964  17.781  0.00  0.00    +0.000 A 
ATOM      3  C   UNL     1       3.445   3.788  17.060  0.00  0.00    +0.000 A 
ATOM      4  C   UNL     1       4.687   3.534  16.502  0.00  0.00    +0.000 A 
ATOM      5  C   UNL     1       5.729   4.440  16.684  0.00  0.00    +0.000 A 
ATOM      6  C   UNL     1       5.540   5.658  17.373  0.00  0.00    +0.000 A 
ENDROOT
BRANCH   6   7
ATOM      7  C   UNL     1       6.754   6.488  17.639  0.00  0.00    +0.000 C 
ATOM      8  C   UNL     1       7.691   6.178  18.786  0.00  0.00    +0.000 C 
ATOM      9  O   UNL     1       6.975   7.484  16.952  0.00  0.00    +0.000 OA
ENDBRANCH   6   7
BRANCH   1  11
ATOM     10  C   UNL     1       3.089   8.099  17.634  0.00  0.00    +0.000 C 
ATOM     11  O   UNL     1       3.746   7.112  18.400  0.00  0.00    +0.000 OA
ENDBRANCH   1  11
BRANCH   3  12
ATOM     12  O   UNL     1       2.503   2.819  16.874  0.00  0.00    +0.000 OA
ATOM     13  H   UNL     1       2.066   2.966  16.018  0.00  0.00    +0.000 HD
ENDBRANCH   3  12
BRANCH   5  14
ATOM     14  O   UNL     1       6.962   4.082  16.200  0.00  0.00    +0.000 OA
ATOM     15  H   UNL     1       7.345   4.829  15.708  0.00  0.00    +0.000 HD
ENDBRANCH   5  14
BRANCH   2  16
ATOM     16  C   UNL     1       1.892   5.154  18.527  0.00  0.00    +0.000 C 
BRANCH  16  17
ATOM     17  C   UNL     1       1.863   4.501  19.882  0.00  0.00    +0.000 C 
ATOM     18  C   UNL     1       1.336   3.312  20.235  0.00  0.00    +0.000 C 
ATOM     19  C   UNL     1       0.607   2.361  19.325  0.00  0.00    +0.000 C 
ATOM     20  C   UNL     1       1.472   2.812  21.651  0.00  0.00    +0.000 C 
ENDBRANCH  16  17
ENDBRANCH   2  16
TORSDOF 6
ENDMDL
MODEL 4
REMARK VINA RESULT:      -6.2      2.258      5.435
REMARK  Name = 
REMARK  10 active torsions:
REMARK  status: ('A' for Active; 'I' for Inactive)
REMARK    1  A    between atoms: C_1  and  O_2
REMARK    2  A    between atoms: O_2  and  C_3
REMARK    3  A    between atoms: C_4  and  C_5
REMARK    4  A    between atoms: C_5  and  C_6
REMARK    5  A    between atoms: C_7  and  C_8
REMARK    6  A    between atoms: C_7  and  C_9
REMARK    7  A    between atoms: C_10  and  O_11
REMARK    8  A    between atoms: C_13  and  O_14
REMARK    9  A    between atoms: C_15  and  C_16
REMARK   10  A    between atoms: C_16  and  C_17
REMARK                            x       y       z     vdW  Elec       q    Type
REMARK                         _______ _______ _______ _____ _____    ______ ____
ROOT
ATOM      1  C   UNL     1       4.724   4.404  16.936  0.00  0.00    +0.000 A 
ATOM      2  C   UNL     1       5.531   4.781  15.816  0.00  0.00    +0.000 A 
ATOM      3  C   UNL     1       6.809   5.307  16.036  0.00  0.00    +0.000 A 
ATOM      4  C   UNL     1       7.327   5.403  17.317  0.00  0.00    +0.000 A 
ATOM      5  C   UNL     1       6.586   4.940  18.402  0.00  0.00    +0.000 A 
ATOM      6  C   UNL     1       5.278   4.431  18.243  0.00  0.00    +0.000 A 
ENDROOT
BRANCH   6   7
ATOM      7  C   UNL     1       4.629   3.829  19.448  0.00  0.00    +0.000 C 
ATOM      8  C   UNL     1       3.495   4.525  20.168  0.00  0.00    +0.000 C 
ATOM      9  O   UNL     1       5.059   2.773  19.907  0.00  0.00    +0.000 OA
ENDBRANCH   6   7
BRANCH   1  11
ATOM     10  C   UNL     1       2.657   3.080  17.011  0.00  0.00    +0.000 C 
ATOM     11  O   UNL     1       3.438   4.154  16.533  0.00  0.00    +0.000 OA
ENDBRANCH   1  11
BRANCH   3  12
ATOM     12  O   UNL     1       7.627   5.735  15.032  0.00  0.00    +0.000 OA
ATOM     13  H   UNL     1       8.439   6.100  15.423  0.00  0.00    +0.000 HD
ENDBRANCH   3  12
BRANCH   5  14
ATOM     14  O   UNL     1       7.195   4.963  19.631  0.00  0.00    +0.000 OA
ATOM     15  H   UNL     1       7.317   5.886  19.914  0.00  0.00    +0.000 HD
ENDBRANCH   5  14
BRANCH   2  16
ATOM     16  C   UNL     1       5.040   4.530  14.393  0.00  0.00    +0.000 C 
BRANCH  16  17
ATOM     17  C   UNL     1       6.013   3.758  13.543  0.00  0.00    +0.000 C 
ATOM     18  C   UNL     1       5.825   3.220  12.322  0.00  0.00    +0.000 C 
ATOM     19  C   UNL     1       4.544   3.244  11.531  0.00  0.00    +0.000 C 
ATOM     20  C   UNL     1       6.963   2.534  11.612  0.00  0.00    +0.000 C 
ENDBRANCH  16  17
ENDBRANCH   2  16
TORSDOF 6
ENDMDL
MODEL 5
REMARK VINA RESULT:      -6.2      0.612      1.021
REMARK  Name = 
REMARK  10 active torsions:
REMARK  status: ('A' for Active; 'I' for Inactive)
REMARK    1  A    between atoms: C_1  and  O_2
REMARK    2  A    between atoms: O_2  and  C_3
REMARK    3  A    between atoms: C_4  and  C_5
REMARK    4  A    between atoms: C_5  and  C_6
REMARK    5  A    between atoms: C_7  and  C_8
REMARK    6  A    between atoms: C_7  and  C_9
REMARK    7  A    between atoms: C_10  and  O_11
REMARK    8  A    between atoms: C_13  and  O_14
REMARK    9  A    between atoms: C_15  and  C_16
REMARK   10  A    between atoms: C_16  and  C_17
REMARK                            x       y       z     vdW  Elec       q    Type
REMARK                         _______ _______ _______ _____ _____    ______ ____
ROOT
ATOM      1  C   UNL     1       4.070   4.466  17.129  0.00  0.00    +0.000 A 
ATOM      2  C   UNL     1       2.974   5.237  17.632  0.00  0.00    +0.000 A 
ATOM      3  C   UNL     1       3.159   6.597  17.904  0.00  0.00    +0.000 A 
ATOM      4  C   UNL     1       4.366   7.219  17.629  0.00  0.00    +0.000 A 
ATOM      5  C   UNL     1       5.402   6.495  17.043  0.00  0.00    +0.000 A 
ATOM      6  C   UNL     1       5.283   5.113  16.777  0.00  0.00    +0.000 A 
ENDROOT
BRANCH   6   7
ATOM      7  C   UNL     1       6.395   4.467  16.016  0.00  0.00    +0.000 C 
ATOM      8  C   UNL     1       6.166   3.841  14.657  0.00  0.00    +0.000 C 
ATOM      9  O   UNL     1       7.513   4.382  16.521  0.00  0.00    +0.000 OA
ENDBRANCH   6   7
BRANCH   1  11
ATOM     10  C   UNL     1       4.290   2.228  18.119  0.00  0.00    +0.000 C 
ATOM     11  O   UNL     1       3.767   3.130  17.166  0.00  0.00    +0.000 OA
ENDBRANCH   1  11
BRANCH   3  12
ATOM     12  O   UNL     1       2.186   7.397  18.428  0.00  0.00    +0.000 OA
ATOM     13  H   UNL     1       1.617   7.712  17.706  0.00  0.00    +0.000 HD
ENDBRANCH   3  12
BRANCH   5  14
ATOM     14  O   UNL     1       6.532   7.191  16.696  0.00  0.00    +0.000 OA
ATOM     15  H   UNL     1       6.374   8.144  16.812  0.00  0.00    +0.000 HD
ENDBRANCH   5  14
BRANCH   2  16
ATOM     16  C   UNL     1       1.594   4.606  17.785  0.00  0.00    +0.000 C 
BRANCH  16  17
ATOM     17  C   UNL     1       1.484   3.661  18.951  0.00  0.00    +0.000 C 
ATOM     18  C   UNL     1       1.478   3.944  20.269  0.00  0.00    +0.000 C 
ATOM     19  C   UNL     1       1.620   5.312  20.883  0.00  0.00    +0.000 C 
ATOM     20  C   UNL     1       1.294   2.842  21.281  0.00  0.00    +0.000 C 
ENDBRANCH  16  17
ENDBRANCH   2  16
TORSDOF 6
ENDMDL
MODEL 6
REMARK VINA RESULT:      -5.9      1.873      5.785
REMARK  Name = 
REMARK  10 active torsions:
REMARK  status: ('A' for Active; 'I' for Inactive)
REMARK    1  A    between atoms: C_1  and  O_2
REMARK    2  A    between atoms: O_2  and  C_3
REMARK    3  A    between atoms: C_4  and  C_5
REMARK    4  A    between atoms: C_5  and  C_6
REMARK    5  A    between atoms: C_7  and  C_8
REMARK    6  A    between atoms: C_7  and  C_9
REMARK    7  A    between atoms: C_10  and  O_11
REMARK    8  A    between atoms: C_13  and  O_14
REMARK    9  A    between atoms: C_15  and  C_16
REMARK   10  A    between atoms: C_16  and  C_17
REMARK                            x       y       z     vdW  Elec       q    Type
REMARK                         _______ _______ _______ _____ _____    ______ ____
ROOT
ATOM      1  C   UNL     1       3.200   5.033  18.314  0.00  0.00    +0.000 A 
ATOM      2  C   UNL     1       4.556   5.013  17.858  0.00  0.00    +0.000 A 
ATOM      3  C   UNL     1       5.486   4.192  18.505  0.00  0.00    +0.000 A 
ATOM      4  C   UNL     1       5.096   3.349  19.534  0.00  0.00    +0.000 A 
ATOM      5  C   UNL     1       3.756   3.289  19.911  0.00  0.00    +0.000 A 
ATOM      6  C   UNL     1       2.780   4.119  19.317  0.00  0.00    +0.000 A 
ENDROOT
BRANCH   6   7
ATOM      7  C   UNL     1       1.354   3.872  19.691  0.00  0.00    +0.000 C 
ATOM      8  C   UNL     1       0.528   2.808  19.003  0.00  0.00    +0.000 C 
ATOM      9  O   UNL     1       0.813   4.585  20.533  0.00  0.00    +0.000 OA
ENDBRANCH   6   7
BRANCH   1  11
ATOM     10  C   UNL     1       2.334   7.331  18.328  0.00  0.00    +0.000 C 
ATOM     11  O   UNL     1       2.517   6.066  17.728  0.00  0.00    +0.000 OA
ENDBRANCH   1  11
BRANCH   3  12
ATOM     12  O   UNL     1       6.807   4.143  18.169  0.00  0.00    +0.000 OA
ATOM     13  H   UNL     1       7.086   3.214  18.127  0.00  0.00    +0.000 HD
ENDBRANCH   3  12
BRANCH   5  14
ATOM     14  O   UNL     1       3.415   2.360  20.861  0.00  0.00    +0.000 OA
ATOM     15  H   UNL     1       2.451   2.373  20.994  0.00  0.00    +0.000 HD
ENDBRANCH   5  14
BRANCH   2  16
ATOM     16  C   UNL     1       4.966   5.809  16.623  0.00  0.00    +0.000 C 
BRANCH  16  17
ATOM     17  C   UNL     1       4.979   4.999  15.355  0.00  0.00    +0.000 C 
ATOM     18  C   UNL     1       6.033   4.630  14.600  0.00  0.00    +0.000 C 
ATOM     19  C   UNL     1       7.473   4.989  14.852  0.00  0.00    +0.000 C 
ATOM     20  C   UNL     1       5.829   3.756  13.389  0.00  0.00    +0.000 C 
ENDBRANCH  16  17
ENDBRANCH   2  16
TORSDOF 6
ENDMDL
MODEL 7
REMARK VINA RESULT:      -5.8      0.880      1.081
REMARK  Name = 
REMARK  10 active torsions:
REMARK  status: ('A' for Active; 'I' for Inactive)
REMARK    1  A    between atoms: C_1  and  O_2
REMARK    2  A    between atoms: O_2  and  C_3
REMARK    3  A    between atoms: C_4  and  C_5
REMARK    4  A    between atoms: C_5  and  C_6
REMARK    5  A    between atoms: C_7  and  C_8
REMARK    6  A    between atoms: C_7  and  C_9
REMARK    7  A    between atoms: C_10  and  O_11
REMARK    8  A    between atoms: C_13  and  O_14
REMARK    9  A    between atoms: C_15  and  C_16
REMARK   10  A    between atoms: C_16  and  C_17
REMARK                            x       y       z     vdW  Elec       q    Type
REMARK                         _______ _______ _______ _____ _____    ______ ____
ROOT
ATOM      1  C   UNL     1       4.297   4.726  17.714  0.00  0.00    +0.000 A 
ATOM      2  C   UNL     1       3.092   5.472  17.909  0.00  0.00    +0.000 A 
ATOM      3  C   UNL     1       3.120   6.866  17.789  0.00  0.00    +0.000 A 
ATOM      4  C   UNL     1       4.281   7.524  17.418  0.00  0.00    +0.000 A 
ATOM      5  C   UNL     1       5.431   6.793  17.126  0.00  0.00    +0.000 A 
ATOM      6  C   UNL     1       5.470   5.387  17.263  0.00  0.00    +0.000 A 
ENDROOT
BRANCH   6   7
ATOM      7  C   UNL     1       6.702   4.689  16.785  0.00  0.00    +0.000 C 
ATOM      8  C   UNL     1       7.863   4.406  17.714  0.00  0.00    +0.000 C 
ATOM      9  O   UNL     1       6.811   4.387  15.599  0.00  0.00    +0.000 OA
ENDBRANCH   6   7
BRANCH   1  11
ATOM     10  C   UNL     1       4.736   2.865  19.256  0.00  0.00    +0.000 C 
ATOM     11  O   UNL     1       4.122   3.427  18.116  0.00  0.00    +0.000 OA
ENDBRANCH   1  11
BRANCH   3  12
ATOM     12  O   UNL     1       2.032   7.660  18.003  0.00  0.00    +0.000 OA
ATOM     13  H   UNL     1       2.052   8.397  17.370  0.00  0.00    +0.000 HD
ENDBRANCH   3  12
BRANCH   5  14
ATOM     14  O   UNL     1       6.515   7.491  16.661  0.00  0.00    +0.000 OA
ATOM     15  H   UNL     1       7.330   7.000  16.868  0.00  0.00    +0.000 HD
ENDBRANCH   5  14
BRANCH   2  16
ATOM     16  C   UNL     1       1.770   4.751  18.156  0.00  0.00    +0.000 C 
BRANCH  16  17
ATOM     17  C   UNL     1       1.567   4.329  19.586  0.00  0.00    +0.000 C 
ATOM     18  C   UNL     1       1.312   3.100  20.075  0.00  0.00    +0.000 C 
ATOM     19  C   UNL     1       1.132   1.844  19.266  0.00  0.00    +0.000 C 
ATOM     20  C   UNL     1       1.204   2.883  21.563  0.00  0.00    +0.000 C 
ENDBRANCH  16  17
ENDBRANCH   2  16
TORSDOF 6
ENDMDL
MODEL 8
REMARK VINA RESULT:      -5.8      2.650      4.267
REMARK  Name = 
REMARK  10 active torsions:
REMARK  status: ('A' for Active; 'I' for Inactive)
REMARK    1  A    between atoms: C_1  and  O_2
REMARK    2  A    between atoms: O_2  and  C_3
REMARK    3  A    between atoms: C_4  and  C_5
REMARK    4  A    between atoms: C_5  and  C_6
REMARK    5  A    between atoms: C_7  and  C_8
REMARK    6  A    between atoms: C_7  and  C_9
REMARK    7  A    between atoms: C_10  and  O_11
REMARK    8  A    between atoms: C_13  and  O_14
REMARK    9  A    between atoms: C_15  and  C_16
REMARK   10  A    between atoms: C_16  and  C_17
REMARK                            x       y       z     vdW  Elec       q    Type
REMARK                         _______ _______ _______ _____ _____    ______ ____
ROOT
ATOM      1  C   UNL     1       4.416   5.873  18.204  0.00  0.00    +0.000 A 
ATOM      2  C   UNL     1       2.998   5.816  18.391  0.00  0.00    +0.000 A 
ATOM      3  C   UNL     1       2.424   4.666  18.943  0.00  0.00    +0.000 A 
ATOM      4  C   UNL     1       3.215   3.613  19.373  0.00  0.00    +0.000 A 
ATOM      5  C   UNL     1       4.602   3.707  19.288  0.00  0.00    +0.000 A 
ATOM      6  C   UNL     1       5.235   4.829  18.709  0.00  0.00    +0.000 A 
ENDROOT
BRANCH   6   7
ATOM      7  C   UNL     1       6.725   4.895  18.801  0.00  0.00    +0.000 C 
ATOM      8  C   UNL     1       7.607   4.565  17.616  0.00  0.00    +0.000 C 
ATOM      9  O   UNL     1       7.259   5.165  19.875  0.00  0.00    +0.000 OA
ENDBRANCH   6   7
BRANCH   1  11
ATOM     10  C   UNL     1       5.110   6.873  16.070  0.00  0.00    +0.000 C 
ATOM     11  O   UNL     1       4.750   6.956  17.433  0.00  0.00    +0.000 OA
ENDBRANCH   1  11
BRANCH   3  12
ATOM     12  O   UNL     1       1.080   4.506  19.114  0.00  0.00    +0.000 OA
ATOM     13  H   UNL     1       0.618   5.243  18.681  0.00  0.00    +0.000 HD
ENDBRANCH   3  12
BRANCH   5  14
ATOM     14  O   UNL     1       5.333   2.679  19.828  0.00  0.00    +0.000 OA
ATOM     15  H   UNL     1       5.008   2.488  20.725  0.00  0.00    +0.000 HD
ENDBRANCH   5  14
BRANCH   2  16
ATOM     16  C   UNL     1       2.130   7.030  18.075  0.00  0.00    +0.000 C 
BRANCH  16  17
ATOM     17  C   UNL     1       1.893   7.931  19.257  0.00  0.00    +0.000 C 
ATOM     18  C   UNL     1       1.218   9.097  19.309  0.00  0.00    +0.000 C 
ATOM     19  C   UNL     1       0.563   9.793  18.146  0.00  0.00    +0.000 C 
ATOM     20  C   UNL     1       1.045   9.815  20.622  0.00  0.00    +0.000 C 
ENDBRANCH  16  17
ENDBRANCH   2  16
TORSDOF 6
ENDMDL
MODEL 9
REMARK VINA RESULT:      -5.7      1.898      5.843
REMARK  Name = 
REMARK  10 active torsions:
REMARK  status: ('A' for Active; 'I' for Inactive)
REMARK    1  A    between atoms: C_1  and  O_2
REMARK    2  A    between atoms: O_2  and  C_3
REMARK    3  A    between atoms: C_4  and  C_5
REMARK    4  A    between atoms: C_5  and  C_6
REMARK    5  A    between atoms: C_7  and  C_8
REMARK    6  A    between atoms: C_7  and  C_9
REMARK    7  A    between atoms: C_10  and  O_11
REMARK    8  A    between atoms: C_13  and  O_14
REMARK    9  A    between atoms: C_15  and  C_16
REMARK   10  A    between atoms: C_16  and  C_17
REMARK                            x       y       z     vdW  Elec       q    Type
REMARK                         _______ _______ _______ _____ _____    ______ ____
ROOT
ATOM      1  C   UNL     1       3.213   5.029  18.828  0.00  0.00    +0.000 A 
ATOM      2  C   UNL     1       3.913   5.123  17.583  0.00  0.00    +0.000 A 
ATOM      3  C   UNL     1       4.148   3.961  16.838  0.00  0.00    +0.000 A 
ATOM      4  C   UNL     1       3.652   2.737  17.256  0.00  0.00    +0.000 A 
ATOM      5  C   UNL     1       2.881   2.659  18.414  0.00  0.00    +0.000 A 
ATOM      6  C   UNL     1       2.641   3.792  19.222  0.00  0.00    +0.000 A 
ENDROOT
BRANCH   6   7
ATOM      7  C   UNL     1       1.684   3.628  20.359  0.00  0.00    +0.000 C 
ATOM      8  C   UNL     1       2.166   3.410  21.776  0.00  0.00    +0.000 C 
ATOM      9  O   UNL     1       0.474   3.609  20.139  0.00  0.00    +0.000 OA
ENDBRANCH   6   7
BRANCH   1  11
ATOM     10  C   UNL     1       2.203   7.054  19.784  0.00  0.00    +0.000 C 
ATOM     11  O   UNL     1       3.304   6.212  19.513  0.00  0.00    +0.000 OA
ENDBRANCH   1  11
BRANCH   3  12
ATOM     12  O   UNL     1       4.845   3.949  15.666  0.00  0.00    +0.000 OA
ATOM     13  H   UNL     1       5.573   3.309  15.740  0.00  0.00    +0.000 HD
ENDBRANCH   3  12
BRANCH   5  14
ATOM     14  O   UNL     1       2.331   1.440  18.717  0.00  0.00    +0.000 OA
ATOM     15  H   UNL     1       2.389   1.288  19.677  0.00  0.00    +0.000 HD
ENDBRANCH   5  14
BRANCH   2  16
ATOM     16  C   UNL     1       4.321   6.484  17.028  0.00  0.00    +0.000 C 
BRANCH  16  17
ATOM     17  C   UNL     1       5.573   7.042  17.649  0.00  0.00    +0.000 C 
ATOM     18  C   UNL     1       6.858   6.743  17.373  0.00  0.00    +0.000 C 
ATOM     19  C   UNL     1       7.335   5.724  16.373  0.00  0.00    +0.000 C 
ATOM     20  C   UNL     1       7.974   7.472  18.076  0.00  0.00    +0.000 C 
ENDBRANCH  16  17
ENDBRANCH   2  16
TORSDOF 6
ENDMDL
