MODEL 1
REMARK VINA RESULT:      -7.7      0.000      0.000
REMARK  Name = 
REMARK  8 active torsions:
REMARK  status: ('A' for Active; 'I' for Inactive)
REMARK    1  A    between atoms: C_1  and  N_2
REMARK    2  A    between atoms: N_2  and  C_3
REMARK    3  A    between atoms: N_2  and  S_4
REMARK    4  A    between atoms: S_4  and  N_7
REMARK    5  A    between atoms: N_7  and  C_8
REMARK    6  A    between atoms: N_7  and  C_24
REMARK    7  A    between atoms: C_8  and  C_9
REMARK    8  A    between atoms: N_14  and  C_15
REMARK                            x       y       z     vdW  Elec       q    Type
REMARK                         _______ _______ _______ _____ _____    ______ ____
ROOT
ATOM      1  C   UNL     1       1.896   6.918  19.955  0.00  0.00    +0.000 C 
ATOM      2  O   UNL     1       1.940   6.024  20.807  0.00  0.00    +0.000 OA
ATOM      3  N   UNL     1       1.311   8.152  20.231  0.00  0.00    +0.000 N 
ATOM      4  C   UNL     1       1.156   9.236  19.246  0.00  0.00    +0.000 C 
ATOM      5  C   UNL     1       0.030  10.224  19.604  0.00  0.00    +0.000 C 
ATOM      6  N   UNL     1       0.131  10.648  21.006  0.00  0.00    +0.000 N 
ATOM      7  C   UNL     1       0.182   9.556  21.988  0.00  0.00    +0.000 C 
ATOM      8  C   UNL     1       1.314   8.580  21.633  0.00  0.00    +0.000 C 
ENDROOT
BRANCH   6   9
ATOM      9  C   UNL     1       0.211  11.974  21.387  0.00  0.00    +0.000 A 
ATOM     10  C   UNL     1       1.235  12.800  20.888  0.00  0.00    +0.000 A 
ATOM     11  C   UNL     1       1.324  14.158  21.220  0.00  0.00    +0.000 A 
ATOM     12  C   UNL     1       0.391  14.730  22.075  0.00  0.00    +0.000 A 
ATOM     13  C   UNL     1      -0.621  13.936  22.602  0.00  0.00    +0.000 A 
ATOM     14  C   UNL     1      -0.704  12.587  22.265  0.00  0.00    +0.000 A 
ATOM     15  F   UNL     1      -1.740  11.890  22.762  0.00  0.00    +0.000 F 
ENDBRANCH   6   9
BRANCH   1  16
ATOM     16  C   UNL     1       2.595   6.736  18.618  0.00  0.00    +0.000 C 
BRANCH  16  17
ATOM     17  N   UNL     1       3.494   5.563  18.552  0.00  0.00    +0.000 N 
BRANCH  17  18
ATOM     18  C   UNL     1       4.901   5.808  18.348  0.00  0.00    +0.000 A 
ATOM     19  C   UNL     1       5.860   5.273  19.218  0.00  0.00    +0.000 A 
ATOM     20  C   UNL     1       7.203   5.613  19.098  0.00  0.00    +0.000 A 
ATOM     21  C   UNL     1       7.611   6.478  18.087  0.00  0.00    +0.000 A 
ATOM     22  C   UNL     1       6.668   7.010  17.204  0.00  0.00    +0.000 A 
ATOM     23  C   UNL     1       5.315   6.687  17.342  0.00  0.00    +0.000 A 
ENDBRANCH  17  18
BRANCH  17  24
ATOM     24  S   UNL     1       2.841   4.168  17.841  0.00  0.00    +0.000 S 
ATOM     25  O   UNL     1       3.814   3.673  16.891  0.00  0.00    +0.000 OA
ATOM     26  O   UNL     1       1.485   4.431  17.413  0.00  0.00    +0.000 OA
BRANCH  24  28
ATOM     27  C   UNL     1       1.496   2.602  19.629  0.00  0.00    +0.000 C 
ATOM     28  N   UNL     1       2.784   3.061  19.110  0.00  0.00    +0.000 NA
ATOM     29  C   UNL     1       3.895   2.113  19.279  0.00  0.00    +0.000 C 
ENDBRANCH  24  28
ENDBRANCH  17  24
ENDBRANCH  16  17
ENDBRANCH   1  16
TORSDOF 6
ENDMDL
MODEL 2
REMARK VINA RESULT:      -7.6      0.909      1.270
REMARK  Name = 
REMARK  8 active torsions:
REMARK  status: ('A' for Active; 'I' for Inactive)
REMARK    1  A    between atoms: C_1  and  N_2
REMARK    2  A    between atoms: N_2  and  C_3
REMARK    3  A    between atoms: N_2  and  S_4
REMARK    4  A    between atoms: S_4  and  N_7
REMARK    5  A    between atoms: N_7  and  C_8
REMARK    6  A    between atoms: N_7  and  C_24
REMARK    7  A    between atoms: C_8  and  C_9
REMARK    8  A    between atoms: N_14  and  C_15
REMARK                            x       y       z     vdW  Elec       q    Type
REMARK                         _______ _______ _______ _____ _____    ______ ____
ROOT
ATOM      1  C   UNL     1       1.925   6.917  19.966  0.00  0.00    +0.000 C 
ATOM      2  O   UNL     1       2.018   6.043  20.836  0.00  0.00    +0.000 OA
ATOM      3  N   UNL     1       1.324   8.144  20.235  0.00  0.00    +0.000 N 
ATOM      4  C   UNL     1       1.112   9.203  19.233  0.00  0.00    +0.000 C 
ATOM      5  C   UNL     1      -0.022  10.175  19.608  0.00  0.00    +0.000 C 
ATOM      6  N   UNL     1       0.117  10.632  20.996  0.00  0.00    +0.000 N 
ATOM      7  C   UNL     1       0.226   9.565  21.999  0.00  0.00    +0.000 C 
ATOM      8  C   UNL     1       1.365   8.604  21.627  0.00  0.00    +0.000 C 
ENDROOT
BRANCH   6   9
ATOM      9  C   UNL     1       0.183  11.969  21.345  0.00  0.00    +0.000 A 
ATOM     10  C   UNL     1      -0.727  12.510  22.270  0.00  0.00    +0.000 A 
ATOM     11  C   UNL     1      -0.666  13.850  22.678  0.00  0.00    +0.000 A 
ATOM     12  C   UNL     1       0.309  14.692  22.160  0.00  0.00    +0.000 A 
ATOM     13  C   UNL     1       1.210  14.194  21.227  0.00  0.00    +0.000 A 
ATOM     14  C   UNL     1       1.144  12.860  20.829  0.00  0.00    +0.000 A 
ATOM     15  F   UNL     1       2.081  12.426  19.969  0.00  0.00    +0.000 F 
ENDBRANCH   6   9
BRANCH   1  16
ATOM     16  C   UNL     1       2.582   6.720  18.611  0.00  0.00    +0.000 C 
BRANCH  16  17
ATOM     17  N   UNL     1       3.464   5.536  18.525  0.00  0.00    +0.000 N 
BRANCH  17  18
ATOM     18  C   UNL     1       4.880   5.764  18.370  0.00  0.00    +0.000 A 
ATOM     19  C   UNL     1       5.803   5.214  19.269  0.00  0.00    +0.000 A 
ATOM     20  C   UNL     1       7.154   5.539  19.196  0.00  0.00    +0.000 A 
ATOM     21  C   UNL     1       7.606   6.405  18.205  0.00  0.00    +0.000 A 
ATOM     22  C   UNL     1       6.700   6.951  17.293  0.00  0.00    +0.000 A 
ATOM     23  C   UNL     1       5.339   6.643  17.383  0.00  0.00    +0.000 A 
ENDBRANCH  17  18
BRANCH  17  24
ATOM     24  S   UNL     1       2.811   4.179  17.742  0.00  0.00    +0.000 S 
ATOM     25  O   UNL     1       3.737   3.797  16.698  0.00  0.00    +0.000 OA
ATOM     26  O   UNL     1       1.424   4.428  17.419  0.00  0.00    +0.000 OA
BRANCH  24  28
ATOM     27  C   UNL     1       1.808   2.873  19.920  0.00  0.00    +0.000 C 
ATOM     28  N   UNL     1       2.868   2.974  18.917  0.00  0.00    +0.000 NA
ATOM     29  C   UNL     1       3.552   1.709  18.608  0.00  0.00    +0.000 C 
ENDBRANCH  24  28
ENDBRANCH  17  24
ENDBRANCH  16  17
ENDBRANCH   1  16
TORSDOF 6
ENDMDL
MODEL 3
REMARK VINA RESULT:      -7.6      1.969      2.407
REMARK  Name = 
REMARK  8 active torsions:
REMARK  status: ('A' for Active; 'I' for Inactive)
REMARK    1  A    between atoms: C_1  and  N_2
REMARK    2  A    between atoms: N_2  and  C_3
REMARK    3  A    between atoms: N_2  and  S_4
REMARK    4  A    between atoms: S_4  and  N_7
REMARK    5  A    between atoms: N_7  and  C_8
REMARK    6  A    between atoms: N_7  and  C_24
REMARK    7  A    between atoms: C_8  and  C_9
REMARK    8  A    between atoms: N_14  and  C_15
REMARK                            x       y       z     vdW  Elec       q    Type
REMARK                         _______ _______ _______ _____ _____    ______ ____
ROOT
ATOM      1  C   UNL     1       2.169   6.438  19.618  0.00  0.00    +0.000 C 
ATOM      2  O   UNL     1       2.052   5.884  20.717  0.00  0.00    +0.000 OA
ATOM      3  N   UNL     1       1.761   7.756  19.426  0.00  0.00    +0.000 N 
ATOM      4  C   UNL     1       1.800   8.457  18.131  0.00  0.00    +0.000 C 
ATOM      5  C   UNL     1       0.819   9.640  18.052  0.00  0.00    +0.000 C 
ATOM      6  N   UNL     1       0.931  10.495  19.240  0.00  0.00    +0.000 N 
ATOM      7  C   UNL     1       0.788   9.800  20.526  0.00  0.00    +0.000 C 
ATOM      8  C   UNL     1       1.777   8.627  20.605  0.00  0.00    +0.000 C 
ENDROOT
BRANCH   6   9
ATOM      9  C   UNL     1       1.191  11.851  19.170  0.00  0.00    +0.000 A 
ATOM     10  C   UNL     1       0.421  12.765  19.912  0.00  0.00    +0.000 A 
ATOM     11  C   UNL     1       0.681  14.142  19.897  0.00  0.00    +0.000 A 
ATOM     12  C   UNL     1       1.721  14.646  19.127  0.00  0.00    +0.000 A 
ATOM     13  C   UNL     1       2.488  13.772  18.366  0.00  0.00    +0.000 A 
ATOM     14  C   UNL     1       2.224  12.404  18.388  0.00  0.00    +0.000 A 
ATOM     15  F   UNL     1       3.039  11.608  17.676  0.00  0.00    +0.000 F 
ENDBRANCH   6   9
BRANCH   1  16
ATOM     16  C   UNL     1       2.880   5.732  18.477  0.00  0.00    +0.000 C 
BRANCH  16  17
ATOM     17  N   UNL     1       4.105   5.004  18.877  0.00  0.00    +0.000 N 
BRANCH  17  18
ATOM     18  C   UNL     1       5.376   5.596  18.541  0.00  0.00    +0.000 A 
ATOM     19  C   UNL     1       6.513   5.356  19.324  0.00  0.00    +0.000 A 
ATOM     20  C   UNL     1       7.706   6.028  19.077  0.00  0.00    +0.000 A 
ATOM     21  C   UNL     1       7.786   6.935  18.024  0.00  0.00    +0.000 A 
ATOM     22  C   UNL     1       6.664   7.175  17.227  0.00  0.00    +0.000 A 
ATOM     23  C   UNL     1       5.459   6.518  17.493  0.00  0.00    +0.000 A 
ENDBRANCH  17  18
BRANCH  17  24
ATOM     24  S   UNL     1       4.007   3.310  18.837  0.00  0.00    +0.000 S 
ATOM     25  O   UNL     1       4.938   2.802  19.820  0.00  0.00    +0.000 OA
ATOM     26  O   UNL     1       4.085   2.852  17.467  0.00  0.00    +0.000 OA
BRANCH  24  28
ATOM     27  C   UNL     1       1.434   2.455  18.509  0.00  0.00    +0.000 C 
ATOM     28  N   UNL     1       2.457   2.985  19.411  0.00  0.00    +0.000 NA
ATOM     29  C   UNL     1       2.282   2.628  20.826  0.00  0.00    +0.000 C 
ENDBRANCH  24  28
ENDBRANCH  17  24
ENDBRANCH  16  17
ENDBRANCH   1  16
TORSDOF 6
ENDMDL
MODEL 4
REMARK VINA RESULT:      -7.5      1.434      1.441
REMARK  Name = 
REMARK  8 active torsions:
REMARK  status: ('A' for Active; 'I' for Inactive)
REMARK    1  A    between atoms: C_1  and  N_2
REMARK    2  A    between atoms: N_2  and  C_3
REMARK    3  A    between atoms: N_2  and  S_4
REMARK    4  A    between atoms: S_4  and  N_7
REMARK    5  A    between atoms: N_7  and  C_8
REMARK    6  A    between atoms: N_7  and  C_24
REMARK    7  A    between atoms: C_8  and  C_9
REMARK    8  A    between atoms: N_14  and  C_15
REMARK                            x       y       z     vdW  Elec       q    Type
REMARK                         _______ _______ _______ _____ _____    ______ ____
ROOT
ATOM      1  C   UNL     1       2.088   6.930  19.376  0.00  0.00    +0.000 C 
ATOM      2  O   UNL     1       2.076   6.242  20.403  0.00  0.00    +0.000 OA
ATOM      3  N   UNL     1       1.540   8.210  19.357  0.00  0.00    +0.000 N 
ATOM      4  C   UNL     1       1.452   9.058  18.155  0.00  0.00    +0.000 C 
ATOM      5  C   UNL     1       0.351  10.130  18.250  0.00  0.00    +0.000 C 
ATOM      6  N   UNL     1       0.425  10.846  19.528  0.00  0.00    +0.000 N 
ATOM      7  C   UNL     1       0.409   9.994  20.725  0.00  0.00    +0.000 C 
ATOM      8  C   UNL     1       1.515   8.933  20.632  0.00  0.00    +0.000 C 
ENDROOT
BRANCH   6   9
ATOM      9  C   UNL     1       0.541  12.222  19.616  0.00  0.00    +0.000 A 
ATOM     10  C   UNL     1       1.766  12.814  19.969  0.00  0.00    +0.000 A 
ATOM     11  C   UNL     1       1.931  14.204  20.029  0.00  0.00    +0.000 A 
ATOM     12  C   UNL     1       0.864  15.046  19.742  0.00  0.00    +0.000 A 
ATOM     13  C   UNL     1      -0.366  14.492  19.409  0.00  0.00    +0.000 A 
ATOM     14  C   UNL     1      -0.521  13.108  19.351  0.00  0.00    +0.000 A 
ATOM     15  F   UNL     1      -1.720  12.639  18.966  0.00  0.00    +0.000 F 
ENDBRANCH   6   9
BRANCH   1  16
ATOM     16  C   UNL     1       2.820   6.442  18.138  0.00  0.00    +0.000 C 
BRANCH  16  17
ATOM     17  N   UNL     1       3.804   5.367  18.391  0.00  0.00    +0.000 N 
BRANCH  17  18
ATOM     18  C   UNL     1       5.203   5.706  18.315  0.00  0.00    +0.000 A 
ATOM     19  C   UNL     1       6.103   5.288  19.304  0.00  0.00    +0.000 A 
ATOM     20  C   UNL     1       7.424   5.723  19.299  0.00  0.00    +0.000 A 
ATOM     21  C   UNL     1       7.873   6.567  18.288  0.00  0.00    +0.000 A 
ATOM     22  C   UNL     1       6.991   6.982  17.287  0.00  0.00    +0.000 A 
ATOM     23  C   UNL     1       5.656   6.565  17.308  0.00  0.00    +0.000 A 
ENDBRANCH  17  18
BRANCH  17  24
ATOM     24  S   UNL     1       3.356   3.815  17.871  0.00  0.00    +0.000 S 
ATOM     25  O   UNL     1       4.493   3.247  17.179  0.00  0.00    +0.000 OA
ATOM     26  O   UNL     1       2.070   3.876  17.213  0.00  0.00    +0.000 OA
BRANCH  24  28
ATOM     27  C   UNL     1       1.865   2.397  19.667  0.00  0.00    +0.000 C 
ATOM     28  N   UNL     1       3.170   2.951  19.306  0.00  0.00    +0.000 NA
ATOM     29  C   UNL     1       4.325   2.226  19.856  0.00  0.00    +0.000 C 
ENDBRANCH  24  28
ENDBRANCH  17  24
ENDBRANCH  16  17
ENDBRANCH   1  16
TORSDOF 6
ENDMDL
MODEL 5
REMARK VINA RESULT:      -7.5      1.866      2.573
REMARK  Name = 
REMARK  8 active torsions:
REMARK  status: ('A' for Active; 'I' for Inactive)
REMARK    1  A    between atoms: C_1  and  N_2
REMARK    2  A    between atoms: N_2  and  C_3
REMARK    3  A    between atoms: N_2  and  S_4
REMARK    4  A    between atoms: S_4  and  N_7
REMARK    5  A    between atoms: N_7  and  C_8
REMARK    6  A    between atoms: N_7  and  C_24
REMARK    7  A    between atoms: C_8  and  C_9
REMARK    8  A    between atoms: N_14  and  C_15
REMARK                            x       y       z     vdW  Elec       q    Type
REMARK                         _______ _______ _______ _____ _____    ______ ____
ROOT
ATOM      1  C   UNL     1       2.498   7.658  18.090  0.00  0.00    +0.000 C 
ATOM      2  O   UNL     1       3.041   8.124  17.081  0.00  0.00    +0.000 OA
ATOM      3  N   UNL     1       1.919   8.487  19.048  0.00  0.00    +0.000 N 
ATOM      4  C   UNL     1       1.321   8.009  20.307  0.00  0.00    +0.000 C 
ATOM      5  C   UNL     1       1.269   9.091  21.401  0.00  0.00    +0.000 C 
ATOM      6  N   UNL     1       0.720  10.345  20.873  0.00  0.00    +0.000 N 
ATOM      7  C   UNL     1       1.391  10.866  19.674  0.00  0.00    +0.000 C 
ATOM      8  C   UNL     1       1.431   9.788  18.581  0.00  0.00    +0.000 C 
ENDROOT
BRANCH   6   9
ATOM      9  C   UNL     1      -0.373  10.982  21.430  0.00  0.00    +0.000 A 
ATOM     10  C   UNL     1      -1.152  11.867  20.663  0.00  0.00    +0.000 A 
ATOM     11  C   UNL     1      -2.290  12.499  21.182  0.00  0.00    +0.000 A 
ATOM     12  C   UNL     1      -2.677  12.268  22.495  0.00  0.00    +0.000 A 
ATOM     13  C   UNL     1      -1.918  11.415  23.287  0.00  0.00    +0.000 A 
ATOM     14  C   UNL     1      -0.789  10.789  22.762  0.00  0.00    +0.000 A 
ATOM     15  F   UNL     1      -0.133   9.931  23.562  0.00  0.00    +0.000 F 
ENDBRANCH   6   9
BRANCH   1  16
ATOM     16  C   UNL     1       2.338   6.156  18.246  0.00  0.00    +0.000 C 
BRANCH  16  17
ATOM     17  N   UNL     1       3.552   5.456  18.720  0.00  0.00    +0.000 N 
BRANCH  17  18
ATOM     18  C   UNL     1       4.680   5.388  17.823  0.00  0.00    +0.000 A 
ATOM     19  C   UNL     1       5.893   6.012  18.140  0.00  0.00    +0.000 A 
ATOM     20  C   UNL     1       6.937   6.056  17.221  0.00  0.00    +0.000 A 
ATOM     21  C   UNL     1       6.789   5.455  15.975  0.00  0.00    +0.000 A 
ATOM     22  C   UNL     1       5.589   4.818  15.649  0.00  0.00    +0.000 A 
ATOM     23  C   UNL     1       4.532   4.796  16.565  0.00  0.00    +0.000 A 
ENDBRANCH  17  18
BRANCH  17  24
ATOM     24  S   UNL     1       3.291   4.122  19.735  0.00  0.00    +0.000 S 
ATOM     25  O   UNL     1       2.706   4.621  20.961  0.00  0.00    +0.000 OA
ATOM     26  O   UNL     1       4.488   3.311  19.787  0.00  0.00    +0.000 OA
BRANCH  24  28
ATOM     27  C   UNL     1       2.462   2.219  17.961  0.00  0.00    +0.000 C 
ATOM     28  N   UNL     1       2.095   3.242  18.940  0.00  0.00    +0.000 NA
ATOM     29  C   UNL     1       0.806   3.024  19.613  0.00  0.00    +0.000 C 
ENDBRANCH  24  28
ENDBRANCH  17  24
ENDBRANCH  16  17
ENDBRANCH   1  16
TORSDOF 6
ENDMDL
MODEL 6
REMARK VINA RESULT:      -7.4      1.763      2.199
REMARK  Name = 
REMARK  8 active torsions:
REMARK  status: ('A' for Active; 'I' for Inactive)
REMARK    1  A    between atoms: C_1  and  N_2
REMARK    2  A    between atoms: N_2  and  C_3
REMARK    3  A    between atoms: N_2  and  S_4
REMARK    4  A    between atoms: S_4  and  N_7
REMARK    5  A    between atoms: N_7  and  C_8
REMARK    6  A    between atoms: N_7  and  C_24
REMARK    7  A    between atoms: C_8  and  C_9
REMARK    8  A    between atoms: N_14  and  C_15
REMARK                            x       y       z     vdW  Elec       q    Type
REMARK                         _______ _______ _______ _____ _____    ______ ____
ROOT
ATOM      1  C   UNL     1       2.043   6.685  19.395  0.00  0.00    +0.000 C 
ATOM      2  O   UNL     1       2.054   6.067  20.466  0.00  0.00    +0.000 OA
ATOM      3  N   UNL     1       1.628   8.013  19.330  0.00  0.00    +0.000 N 
ATOM      4  C   UNL     1       1.519   8.789  18.083  0.00  0.00    +0.000 C 
ATOM      5  C   UNL     1       0.547   9.978  18.193  0.00  0.00    +0.000 C 
ATOM      6  N   UNL     1       0.809  10.760  19.407  0.00  0.00    +0.000 N 
ATOM      7  C   UNL     1       0.815   9.990  20.658  0.00  0.00    +0.000 C 
ATOM      8  C   UNL     1       1.794   8.812  20.549  0.00  0.00    +0.000 C 
ENDROOT
BRANCH   6   9
ATOM      9  C   UNL     1       1.072  12.117  19.386  0.00  0.00    +0.000 A 
ATOM     10  C   UNL     1       0.307  13.005  20.163  0.00  0.00    +0.000 A 
ATOM     11  C   UNL     1       0.570  14.381  20.198  0.00  0.00    +0.000 A 
ATOM     12  C   UNL     1       1.609  14.911  19.443  0.00  0.00    +0.000 A 
ATOM     13  C   UNL     1       2.371  14.064  18.647  0.00  0.00    +0.000 A 
ATOM     14  C   UNL     1       2.103  12.696  18.620  0.00  0.00    +0.000 A 
ATOM     15  F   UNL     1       2.914  11.925  17.877  0.00  0.00    +0.000 F 
ENDBRANCH   6   9
BRANCH   1  16
ATOM     16  C   UNL     1       2.606   6.045  18.137  0.00  0.00    +0.000 C 
BRANCH  16  17
ATOM     17  N   UNL     1       3.577   4.957  18.385  0.00  0.00    +0.000 N 
BRANCH  17  18
ATOM     18  C   UNL     1       4.979   5.265  18.248  0.00  0.00    +0.000 A 
ATOM     19  C   UNL     1       5.845   5.192  19.346  0.00  0.00    +0.000 A 
ATOM     20  C   UNL     1       7.168   5.612  19.243  0.00  0.00    +0.000 A 
ATOM     21  C   UNL     1       7.650   6.092  18.030  0.00  0.00    +0.000 A 
ATOM     22  C   UNL     1       6.801   6.160  16.922  0.00  0.00    +0.000 A 
ATOM     23  C   UNL     1       5.466   5.760  17.034  0.00  0.00    +0.000 A 
ENDBRANCH  17  18
BRANCH  17  24
ATOM     24  S   UNL     1       3.079   3.401  17.928  0.00  0.00    +0.000 S 
ATOM     25  O   UNL     1       4.268   2.653  17.581  0.00  0.00    +0.000 OA
ATOM     26  O   UNL     1       1.990   3.499  16.982  0.00  0.00    +0.000 OA
BRANCH  24  28
ATOM     27  C   UNL     1       3.317   2.680  20.551  0.00  0.00    +0.000 C 
ATOM     28  N   UNL     1       2.478   2.737  19.354  0.00  0.00    +0.000 NA
ATOM     29  C   UNL     1       1.031   2.796  19.613  0.00  0.00    +0.000 C 
ENDBRANCH  24  28
ENDBRANCH  17  24
ENDBRANCH  16  17
ENDBRANCH   1  16
TORSDOF 6
ENDMDL
MODEL 7
REMARK VINA RESULT:      -7.3      2.084      2.958
REMARK  Name = 
REMARK  8 active torsions:
REMARK  status: ('A' for Active; 'I' for Inactive)
REMARK    1  A    between atoms: C_1  and  N_2
REMARK    2  A    between atoms: N_2  and  C_3
REMARK    3  A    between atoms: N_2  and  S_4
REMARK    4  A    between atoms: S_4  and  N_7
REMARK    5  A    between atoms: N_7  and  C_8
REMARK    6  A    between atoms: N_7  and  C_24
REMARK    7  A    between atoms: C_8  and  C_9
REMARK    8  A    between atoms: N_14  and  C_15
REMARK                            x       y       z     vdW  Elec       q    Type
REMARK                         _______ _______ _______ _____ _____    ______ ____
ROOT
ATOM      1  C   UNL     1       3.000   7.152  18.072  0.00  0.00    +0.000 C 
ATOM      2  O   UNL     1       3.831   7.443  17.204  0.00  0.00    +0.000 OA
ATOM      3  N   UNL     1       2.228   8.132  18.690  0.00  0.00    +0.000 N 
ATOM      4  C   UNL     1       1.273   7.872  19.781  0.00  0.00    +0.000 C 
ATOM      5  C   UNL     1       0.982   9.115  20.641  0.00  0.00    +0.000 C 
ATOM      6  N   UNL     1       0.681  10.278  19.798  0.00  0.00    +0.000 N 
ATOM      7  C   UNL     1       1.691  10.590  18.778  0.00  0.00    +0.000 C 
ATOM      8  C   UNL     1       1.970   9.350  17.915  0.00  0.00    +0.000 C 
ENDROOT
BRANCH   6   9
ATOM      9  C   UNL     1      -0.484  11.013  19.918  0.00  0.00    +0.000 A 
ATOM     10  C   UNL     1      -0.692  11.845  21.032  0.00  0.00    +0.000 A 
ATOM     11  C   UNL     1      -1.842  12.635  21.167  0.00  0.00    +0.000 A 
ATOM     12  C   UNL     1      -2.826  12.606  20.188  0.00  0.00    +0.000 A 
ATOM     13  C   UNL     1      -2.661  11.778  19.084  0.00  0.00    +0.000 A 
ATOM     14  C   UNL     1      -1.514  10.998  18.956  0.00  0.00    +0.000 A 
ATOM     15  F   UNL     1      -1.389  10.264  17.838  0.00  0.00    +0.000 F 
ENDBRANCH   6   9
BRANCH   1  16
ATOM     16  C   UNL     1       2.711   5.697  18.397  0.00  0.00    +0.000 C 
BRANCH  16  17
ATOM     17  N   UNL     1       3.836   4.976  19.032  0.00  0.00    +0.000 N 
BRANCH  17  18
ATOM     18  C   UNL     1       5.099   4.958  18.336  0.00  0.00    +0.000 A 
ATOM     19  C   UNL     1       5.219   4.361  17.074  0.00  0.00    +0.000 A 
ATOM     20  C   UNL     1       6.461   4.228  16.461  0.00  0.00    +0.000 A 
ATOM     21  C   UNL     1       7.602   4.714  17.093  0.00  0.00    +0.000 A 
ATOM     22  C   UNL     1       7.496   5.323  18.345  0.00  0.00    +0.000 A 
ATOM     23  C   UNL     1       6.250   5.432  18.972  0.00  0.00    +0.000 A 
ENDBRANCH  17  18
BRANCH  17  24
ATOM     24  S   UNL     1       3.423   3.589  19.918  0.00  0.00    +0.000 S 
ATOM     25  O   UNL     1       2.622   4.020  21.043  0.00  0.00    +0.000 OA
ATOM     26  O   UNL     1       4.605   2.786  20.141  0.00  0.00    +0.000 OA
BRANCH  24  28
ATOM     27  C   UNL     1       2.949   1.746  17.959  0.00  0.00    +0.000 C 
ATOM     28  N   UNL     1       2.401   2.742  18.881  0.00  0.00    +0.000 NA
ATOM     29  C   UNL     1       1.006   2.511  19.286  0.00  0.00    +0.000 C 
ENDBRANCH  24  28
ENDBRANCH  17  24
ENDBRANCH  16  17
ENDBRANCH   1  16
TORSDOF 6
ENDMDL
MODEL 8
REMARK VINA RESULT:      -7.3      1.684      1.933
REMARK  Name = 
REMARK  8 active torsions:
REMARK  status: ('A' for Active; 'I' for Inactive)
REMARK    1  A    between atoms: C_1  and  N_2
REMARK    2  A    between atoms: N_2  and  C_3
REMARK    3  A    between atoms: N_2  and  S_4
REMARK    4  A    between atoms: S_4  and  N_7
REMARK    5  A    between atoms: N_7  and  C_8
REMARK    6  A    between atoms: N_7  and  C_24
REMARK    7  A    between atoms: C_8  and  C_9
REMARK    8  A    between atoms: N_14  and  C_15
REMARK                            x       y       z     vdW  Elec       q    Type
REMARK                         _______ _______ _______ _____ _____    ______ ____
ROOT
ATOM      1  C   UNL     1       1.947   7.321  19.463  0.00  0.00    +0.000 C 
ATOM      2  O   UNL     1       2.002   6.710  20.536  0.00  0.00    +0.000 OA
ATOM      3  N   UNL     1       1.344   8.573  19.374  0.00  0.00    +0.000 N 
ATOM      4  C   UNL     1       1.176   9.328  18.120  0.00  0.00    +0.000 C 
ATOM      5  C   UNL     1       0.035  10.359  18.181  0.00  0.00    +0.000 C 
ATOM      6  N   UNL     1       0.125  11.169  19.402  0.00  0.00    +0.000 N 
ATOM      7  C   UNL     1       0.190  10.406  20.656  0.00  0.00    +0.000 C 
ATOM      8  C   UNL     1       1.336   9.386  20.595  0.00  0.00    +0.000 C 
ENDROOT
BRANCH   6   9
ATOM      9  C   UNL     1       0.186  12.551  19.386  0.00  0.00    +0.000 A 
ATOM     10  C   UNL     1      -0.896  13.318  19.854  0.00  0.00    +0.000 A 
ATOM     11  C   UNL     1      -0.854  14.718  19.891  0.00  0.00    +0.000 A 
ATOM     12  C   UNL     1       0.275  15.394  19.448  0.00  0.00    +0.000 A 
ATOM     13  C   UNL     1       1.354  14.666  18.960  0.00  0.00    +0.000 A 
ATOM     14  C   UNL     1       1.305  13.274  18.929  0.00  0.00    +0.000 A 
ATOM     15  F   UNL     1       2.403  12.628  18.500  0.00  0.00    +0.000 F 
ENDBRANCH   6   9
BRANCH   1  16
ATOM     16  C   UNL     1       2.653   6.774  18.234  0.00  0.00    +0.000 C 
BRANCH  16  17
ATOM     17  N   UNL     1       3.513   5.599  18.494  0.00  0.00    +0.000 N 
BRANCH  17  18
ATOM     18  C   UNL     1       4.937   5.762  18.337  0.00  0.00    +0.000 A 
ATOM     19  C   UNL     1       5.829   5.307  19.317  0.00  0.00    +0.000 A 
ATOM     20  C   UNL     1       7.190   5.579  19.227  0.00  0.00    +0.000 A 
ATOM     21  C   UNL     1       7.684   6.293  18.139  0.00  0.00    +0.000 A 
ATOM     22  C   UNL     1       6.809   6.742  17.147  0.00  0.00    +0.000 A 
ATOM     23  C   UNL     1       5.438   6.490  17.252  0.00  0.00    +0.000 A 
ENDBRANCH  17  18
BRANCH  17  24
ATOM     24  S   UNL     1       2.857   4.092  18.073  0.00  0.00    +0.000 S 
ATOM     25  O   UNL     1       3.901   3.337  17.414  0.00  0.00    +0.000 OA
ATOM     26  O   UNL     1       1.584   4.284  17.415  0.00  0.00    +0.000 OA
BRANCH  24  28
ATOM     27  C   UNL     1       1.205   3.041  19.977  0.00  0.00    +0.000 C 
ATOM     28  N   UNL     1       2.573   3.349  19.558  0.00  0.00    +0.000 NA
ATOM     29  C   UNL     1       3.608   2.474  20.126  0.00  0.00    +0.000 C 
ENDBRANCH  24  28
ENDBRANCH  17  24
ENDBRANCH  16  17
ENDBRANCH   1  16
TORSDOF 6
ENDMDL
MODEL 9
REMARK VINA RESULT:      -7.3      1.952      2.670
REMARK  Name = 
REMARK  8 active torsions:
REMARK  status: ('A' for Active; 'I' for Inactive)
REMARK    1  A    between atoms: C_1  and  N_2
REMARK    2  A    between atoms: N_2  and  C_3
REMARK    3  A    between atoms: N_2  and  S_4
REMARK    4  A    between atoms: S_4  and  N_7
REMARK    5  A    between atoms: N_7  and  C_8
REMARK    6  A    between atoms: N_7  and  C_24
REMARK    7  A    between atoms: C_8  and  C_9
REMARK    8  A    between atoms: N_14  and  C_15
REMARK                            x       y       z     vdW  Elec       q    Type
REMARK                         _______ _______ _______ _____ _____    ______ ____
ROOT
ATOM      1  C   UNL     1       2.536   7.670  18.057  0.00  0.00    +0.000 C 
ATOM      2  O   UNL     1       3.118   8.131  17.069  0.00  0.00    +0.000 OA
ATOM      3  N   UNL     1       1.922   8.503  18.989  0.00  0.00    +0.000 N 
ATOM      4  C   UNL     1       1.275   8.032  20.226  0.00  0.00    +0.000 C 
ATOM      5  C   UNL     1       1.183   9.118  21.313  0.00  0.00    +0.000 C 
ATOM      6  N   UNL     1       0.657  10.371  20.759  0.00  0.00    +0.000 N 
ATOM      7  C   UNL     1       1.374  10.886  19.585  0.00  0.00    +0.000 C 
ATOM      8  C   UNL     1       1.454   9.804  18.499  0.00  0.00    +0.000 C 
ENDROOT
BRANCH   6   9
ATOM      9  C   UNL     1      -0.456  11.013  21.271  0.00  0.00    +0.000 A 
ATOM     10  C   UNL     1      -0.732  10.972  22.650  0.00  0.00    +0.000 A 
ATOM     11  C   UNL     1      -1.828  11.643  23.209  0.00  0.00    +0.000 A 
ATOM     12  C   UNL     1      -2.689  12.370  22.397  0.00  0.00    +0.000 A 
ATOM     13  C   UNL     1      -2.456  12.413  21.028  0.00  0.00    +0.000 A 
ATOM     14  C   UNL     1      -1.363  11.745  20.480  0.00  0.00    +0.000 A 
ATOM     15  F   UNL     1      -1.161  11.874  19.158  0.00  0.00    +0.000 F 
ENDBRANCH   6   9
BRANCH   1  16
ATOM     16  C   UNL     1       2.367   6.169  18.213  0.00  0.00    +0.000 C 
BRANCH  16  17
ATOM     17  N   UNL     1       3.572   5.464  18.702  0.00  0.00    +0.000 N 
BRANCH  17  18
ATOM     18  C   UNL     1       4.706   5.380  17.815  0.00  0.00    +0.000 A 
ATOM     19  C   UNL     1       5.928   5.979  18.146  0.00  0.00    +0.000 A 
ATOM     20  C   UNL     1       6.980   6.010  17.236  0.00  0.00    +0.000 A 
ATOM     21  C   UNL     1       6.832   5.419  15.985  0.00  0.00    +0.000 A 
ATOM     22  C   UNL     1       5.623   4.807  15.645  0.00  0.00    +0.000 A 
ATOM     23  C   UNL     1       4.558   4.799  16.551  0.00  0.00    +0.000 A 
ENDBRANCH  17  18
BRANCH  17  24
ATOM     24  S   UNL     1       3.294   4.140  19.726  0.00  0.00    +0.000 S 
ATOM     25  O   UNL     1       2.719   4.656  20.950  0.00  0.00    +0.000 OA
ATOM     26  O   UNL     1       4.478   3.312  19.780  0.00  0.00    +0.000 OA
BRANCH  24  28
ATOM     27  C   UNL     1       2.431   2.260  17.943  0.00  0.00    +0.000 C 
ATOM     28  N   UNL     1       2.082   3.274  18.940  0.00  0.00    +0.000 NA
ATOM     29  C   UNL     1       0.803   3.052  19.629  0.00  0.00    +0.000 C 
ENDBRANCH  24  28
ENDBRANCH  17  24
ENDBRANCH  16  17
ENDBRANCH   1  16
TORSDOF 6
ENDMDL
