MODEL 1
REMARK VINA RESULT:      -9.0      0.000      0.000
REMARK  Name = 
REMARK  8 active torsions:
REMARK  status: ('A' for Active; 'I' for Inactive)
REMARK    1  A    between atoms: C_1  and  C_2
REMARK    2  A    between atoms: C_2  and  O_3
REMARK    3  A    between atoms: O_3  and  C_4
REMARK    4  A    between atoms: C_4  and  C_6
REMARK    5  A    between atoms: C_11  and  C_12
REMARK    6  A    between atoms: C_14  and  N_15
REMARK    7  A    between atoms: N_15  and  C_16
REMARK    8  A    between atoms: C_19  and  N_20
REMARK                            x       y       z     vdW  Elec       q    Type
REMARK                         _______ _______ _______ _____ _____    ______ ____
ROOT
ATOM      1  C   UNL     1       4.869   5.456  16.903  0.00  0.00    +0.000 A 
ATOM      2  C   UNL     1       4.662   4.090  16.647  0.00  0.00    +0.000 A 
ATOM      3  C   UNL     1       3.867   3.323  17.494  0.00  0.00    +0.000 A 
ATOM      4  C   UNL     1       3.253   3.906  18.604  0.00  0.00    +0.000 A 
ATOM      5  N   UNL     1       2.491   3.133  19.419  0.00  0.00    +0.000 NA
ATOM      6  C   UNL     1       1.856   3.641  20.505  0.00  0.00    +0.000 A 
ATOM      7  C   UNL     1       1.049   2.744  21.390  0.00  0.00    +0.000 C 
ATOM      8  C   UNL     1       1.950   5.002  20.786  0.00  0.00    +0.000 A 
ATOM      9  C   UNL     1       2.715   5.854  19.963  0.00  0.00    +0.000 A 
ATOM     10  C   UNL     1       3.414   5.291  18.866  0.00  0.00    +0.000 A 
ATOM     11  C   UNL     1       4.235   6.051  18.005  0.00  0.00    +0.000 A 
ENDROOT
BRANCH   1  12
ATOM     12  C   UNL     1       5.747   6.258  16.014  0.00  0.00    +0.000 C 
ATOM     13  O   UNL     1       5.291   6.743  14.989  0.00  0.00    +0.000 OA
BRANCH  12  14
ATOM     14  O   UNL     1       7.053   6.460  16.346  0.00  0.00    +0.000 OA
BRANCH  14  16
ATOM     15  C   UNL     1       7.863   6.419  18.613  0.00  0.00    +0.000 C 
ATOM     16  C   UNL     1       7.471   7.257  17.397  0.00  0.00    +0.000 C 
ENDBRANCH  14  16
ENDBRANCH  12  14
ENDBRANCH   1  12
BRANCH   9  17
ATOM     17  N   UNL     1       2.769   7.254  20.260  0.00  0.00    +0.000 N 
ATOM     18  H   UNL     1       3.586   7.654  20.742  0.00  0.00    +0.000 HD
BRANCH  17  19
ATOM     19  C   UNL     1       1.790   8.188  19.810  0.00  0.00    +0.000 A 
ATOM     20  C   UNL     1       1.771   8.578  18.468  0.00  0.00    +0.000 A 
ATOM     21  C   UNL     1       0.792   9.453  18.002  0.00  0.00    +0.000 A 
ATOM     22  C   UNL     1      -0.211   9.954  18.869  0.00  0.00    +0.000 A 
ATOM     23  C   UNL     1      -0.180   9.552  20.214  0.00  0.00    +0.000 A 
ATOM     24  C   UNL     1       0.797   8.683  20.677  0.00  0.00    +0.000 A 
BRANCH  22  25
ATOM     25  N   UNL     1      -1.238  10.819  18.379  0.00  0.00    +0.000 N 
ATOM     26  C   UNL     1      -1.543  12.094  19.030  0.00  0.00    +0.000 C 
ATOM     27  C   UNL     1      -2.998  12.089  19.492  0.00  0.00    +0.000 C 
ATOM     28  C   UNL     1      -3.915  11.786  18.297  0.00  0.00    +0.000 C 
ATOM     29  C   UNL     1      -3.523  10.446  17.654  0.00  0.00    +0.000 C 
ATOM     30  C   UNL     1      -2.054  10.480  17.220  0.00  0.00    +0.000 C 
ENDBRANCH  22  25
ENDBRANCH  17  19
ENDBRANCH   9  17
TORSDOF 6
ENDMDL
MODEL 2
REMARK VINA RESULT:      -8.8      1.247      1.679
REMARK  Name = 
REMARK  8 active torsions:
REMARK  status: ('A' for Active; 'I' for Inactive)
REMARK    1  A    between atoms: C_1  and  C_2
REMARK    2  A    between atoms: C_2  and  O_3
REMARK    3  A    between atoms: O_3  and  C_4
REMARK    4  A    between atoms: C_4  and  C_6
REMARK    5  A    between atoms: C_11  and  C_12
REMARK    6  A    between atoms: C_14  and  N_15
REMARK    7  A    between atoms: N_15  and  C_16
REMARK    8  A    between atoms: C_19  and  N_20
REMARK                            x       y       z     vdW  Elec       q    Type
REMARK                         _______ _______ _______ _____ _____    ______ ____
ROOT
ATOM      1  C   UNL     1       5.603   5.457  16.698  0.00  0.00    +0.000 A 
ATOM      2  C   UNL     1       5.314   4.322  15.922  0.00  0.00    +0.000 A 
ATOM      3  C   UNL     1       4.243   3.495  16.249  0.00  0.00    +0.000 A 
ATOM      4  C   UNL     1       3.433   3.790  17.347  0.00  0.00    +0.000 A 
ATOM      5  N   UNL     1       2.402   2.960  17.648  0.00  0.00    +0.000 NA
ATOM      6  C   UNL     1       1.569   3.198  18.693  0.00  0.00    +0.000 A 
ATOM      7  C   UNL     1       0.463   2.240  19.004  0.00  0.00    +0.000 C 
ATOM      8  C   UNL     1       1.744   4.343  19.467  0.00  0.00    +0.000 A 
ATOM      9  C   UNL     1       2.788   5.247  19.188  0.00  0.00    +0.000 A 
ATOM     10  C   UNL     1       3.679   4.949  18.126  0.00  0.00    +0.000 A 
ATOM     11  C   UNL     1       4.777   5.770  17.790  0.00  0.00    +0.000 A 
ENDROOT
BRANCH   1  12
ATOM     12  C   UNL     1       6.768   6.315  16.363  0.00  0.00    +0.000 C 
ATOM     13  O   UNL     1       7.624   5.902  15.595  0.00  0.00    +0.000 OA
BRANCH  12  14
ATOM     14  O   UNL     1       6.874   7.561  16.903  0.00  0.00    +0.000 OA
BRANCH  14  16
ATOM     15  C   UNL     1       8.177   6.902  18.817  0.00  0.00    +0.000 C 
ATOM     16  C   UNL     1       7.898   7.956  17.746  0.00  0.00    +0.000 C 
ENDBRANCH  14  16
ENDBRANCH  12  14
ENDBRANCH   1  12
BRANCH   9  17
ATOM     17  N   UNL     1       2.924   6.430  19.983  0.00  0.00    +0.000 N 
ATOM     18  H   UNL     1       3.711   6.530  20.639  0.00  0.00    +0.000 HD
BRANCH  17  19
ATOM     19  C   UNL     1       2.084   7.573  19.836  0.00  0.00    +0.000 A 
ATOM     20  C   UNL     1       1.319   8.014  20.919  0.00  0.00    +0.000 A 
ATOM     21  C   UNL     1       0.530   9.157  20.807  0.00  0.00    +0.000 A 
ATOM     22  C   UNL     1       0.496   9.903  19.602  0.00  0.00    +0.000 A 
ATOM     23  C   UNL     1       1.272   9.449  18.523  0.00  0.00    +0.000 A 
ATOM     24  C   UNL     1       2.055   8.310  18.636  0.00  0.00    +0.000 A 
BRANCH  22  25
ATOM     25  N   UNL     1      -0.283  11.097  19.502  0.00  0.00    +0.000 N 
ATOM     26  C   UNL     1      -0.322  12.083  20.582  0.00  0.00    +0.000 C 
ATOM     27  C   UNL     1      -1.760  12.244  21.068  0.00  0.00    +0.000 C 
ATOM     28  C   UNL     1      -2.664  12.612  19.882  0.00  0.00    +0.000 C 
ATOM     29  C   UNL     1      -2.557  11.545  18.781  0.00  0.00    +0.000 C 
ATOM     30  C   UNL     1      -1.100  11.397  18.331  0.00  0.00    +0.000 C 
ENDBRANCH  22  25
ENDBRANCH  17  19
ENDBRANCH   9  17
TORSDOF 6
ENDMDL
MODEL 3
REMARK VINA RESULT:      -8.7      1.482      2.110
REMARK  Name = 
REMARK  8 active torsions:
REMARK  status: ('A' for Active; 'I' for Inactive)
REMARK    1  A    between atoms: C_1  and  C_2
REMARK    2  A    between atoms: C_2  and  O_3
REMARK    3  A    between atoms: O_3  and  C_4
REMARK    4  A    between atoms: C_4  and  C_6
REMARK    5  A    between atoms: C_11  and  C_12
REMARK    6  A    between atoms: C_14  and  N_15
REMARK    7  A    between atoms: N_15  and  C_16
REMARK    8  A    between atoms: C_19  and  N_20
REMARK                            x       y       z     vdW  Elec       q    Type
REMARK                         _______ _______ _______ _____ _____    ______ ____
ROOT
ATOM      1  C   UNL     1       5.559   5.484  16.706  0.00  0.00    +0.000 A 
ATOM      2  C   UNL     1       5.262   4.340  15.946  0.00  0.00    +0.000 A 
ATOM      3  C   UNL     1       4.191   3.519  16.290  0.00  0.00    +0.000 A 
ATOM      4  C   UNL     1       3.389   3.831  17.388  0.00  0.00    +0.000 A 
ATOM      5  N   UNL     1       2.357   3.006  17.707  0.00  0.00    +0.000 NA
ATOM      6  C   UNL     1       1.532   3.260  18.753  0.00  0.00    +0.000 A 
ATOM      7  C   UNL     1       0.425   2.309  19.083  0.00  0.00    +0.000 C 
ATOM      8  C   UNL     1       1.713   4.414  19.512  0.00  0.00    +0.000 A 
ATOM      9  C   UNL     1       2.758   5.312  19.215  0.00  0.00    +0.000 A 
ATOM     10  C   UNL     1       3.642   4.998  18.152  0.00  0.00    +0.000 A 
ATOM     11  C   UNL     1       4.740   5.813  17.798  0.00  0.00    +0.000 A 
ENDROOT
BRANCH   1  12
ATOM     12  C   UNL     1       6.723   6.335  16.353  0.00  0.00    +0.000 C 
ATOM     13  O   UNL     1       7.563   5.919  15.568  0.00  0.00    +0.000 OA
BRANCH  12  14
ATOM     14  O   UNL     1       6.849   7.578  16.896  0.00  0.00    +0.000 OA
BRANCH  14  16
ATOM     15  C   UNL     1       8.181   6.904  18.784  0.00  0.00    +0.000 C 
ATOM     16  C   UNL     1       7.890   7.963  17.721  0.00  0.00    +0.000 C 
ENDBRANCH  14  16
ENDBRANCH  12  14
ENDBRANCH   1  12
BRANCH   9  17
ATOM     17  N   UNL     1       2.902   6.505  19.995  0.00  0.00    +0.000 N 
ATOM     18  H   UNL     1       3.721   6.635  20.603  0.00  0.00    +0.000 HD
BRANCH  17  19
ATOM     19  C   UNL     1       2.019   7.619  19.889  0.00  0.00    +0.000 A 
ATOM     20  C   UNL     1       1.243   7.994  20.990  0.00  0.00    +0.000 A 
ATOM     21  C   UNL     1       0.411   9.110  20.919  0.00  0.00    +0.000 A 
ATOM     22  C   UNL     1       0.342   9.895  19.741  0.00  0.00    +0.000 A 
ATOM     23  C   UNL     1       1.129   9.507  18.644  0.00  0.00    +0.000 A 
ATOM     24  C   UNL     1       1.955   8.395  18.716  0.00  0.00    +0.000 A 
BRANCH  22  25
ATOM     25  N   UNL     1      -0.482  11.061  19.684  0.00  0.00    +0.000 N 
ATOM     26  C   UNL     1      -0.817  11.704  18.414  0.00  0.00    +0.000 C 
ATOM     27  C   UNL     1      -0.313  13.144  18.428  0.00  0.00    +0.000 C 
ATOM     28  C   UNL     1      -0.890  13.879  19.646  0.00  0.00    +0.000 C 
ATOM     29  C   UNL     1      -0.515  13.138  20.940  0.00  0.00    +0.000 C 
ATOM     30  C   UNL     1      -1.020  11.692  20.884  0.00  0.00    +0.000 C 
ENDBRANCH  22  25
ENDBRANCH  17  19
ENDBRANCH   9  17
TORSDOF 6
ENDMDL
MODEL 4
REMARK VINA RESULT:      -8.6      0.908      1.258
REMARK  Name = 
REMARK  8 active torsions:
REMARK  status: ('A' for Active; 'I' for Inactive)
REMARK    1  A    between atoms: C_1  and  C_2
REMARK    2  A    between atoms: C_2  and  O_3
REMARK    3  A    between atoms: O_3  and  C_4
REMARK    4  A    between atoms: C_4  and  C_6
REMARK    5  A    between atoms: C_11  and  C_12
REMARK    6  A    between atoms: C_14  and  N_15
REMARK    7  A    between atoms: N_15  and  C_16
REMARK    8  A    between atoms: C_19  and  N_20
REMARK                            x       y       z     vdW  Elec       q    Type
REMARK                         _______ _______ _______ _____ _____    ______ ____
ROOT
ATOM      1  C   UNL     1       4.703   5.295  16.745  0.00  0.00    +0.000 A 
ATOM      2  C   UNL     1       4.479   3.920  16.561  0.00  0.00    +0.000 A 
ATOM      3  C   UNL     1       3.754   3.189  17.498  0.00  0.00    +0.000 A 
ATOM      4  C   UNL     1       3.227   3.817  18.628  0.00  0.00    +0.000 A 
ATOM      5  N   UNL     1       2.533   3.077  19.531  0.00  0.00    +0.000 NA
ATOM      6  C   UNL     1       1.984   3.629  20.642  0.00  0.00    +0.000 A 
ATOM      7  C   UNL     1       1.251   2.770  21.623  0.00  0.00    +0.000 C 
ATOM      8  C   UNL     1       2.097   5.001  20.859  0.00  0.00    +0.000 A 
ATOM      9  C   UNL     1       2.793   5.818  19.946  0.00  0.00    +0.000 A 
ATOM     10  C   UNL     1       3.406   5.210  18.821  0.00  0.00    +0.000 A 
ATOM     11  C   UNL     1       4.156   5.934  17.868  0.00  0.00    +0.000 A 
ENDROOT
BRANCH   1  12
ATOM     12  C   UNL     1       5.507   6.059  15.758  0.00  0.00    +0.000 C 
ATOM     13  O   UNL     1       4.985   6.960  15.119  0.00  0.00    +0.000 OA
BRANCH  12  14
ATOM     14  O   UNL     1       6.824   5.763  15.576  0.00  0.00    +0.000 OA
BRANCH  14  16
ATOM     15  C   UNL     1       6.460   4.351  13.661  0.00  0.00    +0.000 C 
ATOM     16  C   UNL     1       7.281   4.636  14.917  0.00  0.00    +0.000 C 
ENDBRANCH  14  16
ENDBRANCH  12  14
ENDBRANCH   1  12
BRANCH   9  17
ATOM     17  N   UNL     1       2.868   7.229  20.181  0.00  0.00    +0.000 N 
ATOM     18  H   UNL     1       3.703   7.641  20.618  0.00  0.00    +0.000 HD
BRANCH  17  19
ATOM     19  C   UNL     1       1.881   8.151  19.725  0.00  0.00    +0.000 A 
ATOM     20  C   UNL     1       1.849   8.520  18.378  0.00  0.00    +0.000 A 
ATOM     21  C   UNL     1       0.861   9.383  17.906  0.00  0.00    +0.000 A 
ATOM     22  C   UNL     1      -0.136   9.894  18.774  0.00  0.00    +0.000 A 
ATOM     23  C   UNL     1      -0.091   9.514  20.125  0.00  0.00    +0.000 A 
ATOM     24  C   UNL     1       0.894   8.656  20.593  0.00  0.00    +0.000 A 
BRANCH  22  25
ATOM     25  N   UNL     1      -1.170  10.747  18.280  0.00  0.00    +0.000 N 
ATOM     26  C   UNL     1      -1.448  12.049  18.888  0.00  0.00    +0.000 C 
ATOM     27  C   UNL     1      -2.890  12.073  19.390  0.00  0.00    +0.000 C 
ATOM     28  C   UNL     1      -3.842  11.730  18.236  0.00  0.00    +0.000 C 
ATOM     29  C   UNL     1      -3.478  10.364  17.635  0.00  0.00    +0.000 C 
ATOM     30  C   UNL     1      -2.022  10.368  17.158  0.00  0.00    +0.000 C 
ENDBRANCH  22  25
ENDBRANCH  17  19
ENDBRANCH   9  17
TORSDOF 6
ENDMDL
MODEL 5
REMARK VINA RESULT:      -8.6      1.438      1.780
REMARK  Name = 
REMARK  8 active torsions:
REMARK  status: ('A' for Active; 'I' for Inactive)
REMARK    1  A    between atoms: C_1  and  C_2
REMARK    2  A    between atoms: C_2  and  O_3
REMARK    3  A    between atoms: O_3  and  C_4
REMARK    4  A    between atoms: C_4  and  C_6
REMARK    5  A    between atoms: C_11  and  C_12
REMARK    6  A    between atoms: C_14  and  N_15
REMARK    7  A    between atoms: N_15  and  C_16
REMARK    8  A    between atoms: C_19  and  N_20
REMARK                            x       y       z     vdW  Elec       q    Type
REMARK                         _______ _______ _______ _____ _____    ______ ____
ROOT
ATOM      1  C   UNL     1       5.909   5.236  16.892  0.00  0.00    +0.000 A 
ATOM      2  C   UNL     1       5.641   4.116  16.087  0.00  0.00    +0.000 A 
ATOM      3  C   UNL     1       4.523   3.321  16.328  0.00  0.00    +0.000 A 
ATOM      4  C   UNL     1       3.646   3.636  17.367  0.00  0.00    +0.000 A 
ATOM      5  N   UNL     1       2.570   2.837  17.587  0.00  0.00    +0.000 NA
ATOM      6  C   UNL     1       1.672   3.095  18.571  0.00  0.00    +0.000 A 
ATOM      7  C   UNL     1       0.516   2.172  18.793  0.00  0.00    +0.000 C 
ATOM      8  C   UNL     1       1.826   4.230  19.365  0.00  0.00    +0.000 A 
ATOM      9  C   UNL     1       2.916   5.101  19.170  0.00  0.00    +0.000 A 
ATOM     10  C   UNL     1       3.871   4.781  18.173  0.00  0.00    +0.000 A 
ATOM     11  C   UNL     1       5.016   5.569  17.923  0.00  0.00    +0.000 A 
ENDROOT
BRANCH   1  12
ATOM     12  C   UNL     1       7.121   6.058  16.649  0.00  0.00    +0.000 C 
ATOM     13  O   UNL     1       7.716   5.962  15.585  0.00  0.00    +0.000 OA
BRANCH  12  14
ATOM     14  O   UNL     1       7.561   6.923  17.605  0.00  0.00    +0.000 OA
BRANCH  14  16
ATOM     15  C   UNL     1       8.512   9.049  18.213  0.00  0.00    +0.000 C 
ATOM     16  C   UNL     1       7.354   8.291  17.567  0.00  0.00    +0.000 C 
ENDBRANCH  14  16
ENDBRANCH  12  14
ENDBRANCH   1  12
BRANCH   9  17
ATOM     17  N   UNL     1       3.031   6.275  19.983  0.00  0.00    +0.000 N 
ATOM     18  H   UNL     1       3.723   6.316  20.744  0.00  0.00    +0.000 HD
BRANCH  17  19
ATOM     19  C   UNL     1       2.314   7.479  19.725  0.00  0.00    +0.000 A 
ATOM     20  C   UNL     1       2.334   8.037  18.444  0.00  0.00    +0.000 A 
ATOM     21  C   UNL     1       1.599   9.187  18.162  0.00  0.00    +0.000 A 
ATOM     22  C   UNL     1       0.807   9.808  19.160  0.00  0.00    +0.000 A 
ATOM     23  C   UNL     1       0.795   9.235  20.443  0.00  0.00    +0.000 A 
ATOM     24  C   UNL     1       1.529   8.092  20.721  0.00  0.00    +0.000 A 
BRANCH  22  25
ATOM     25  N   UNL     1       0.023  10.964  18.859  0.00  0.00    +0.000 N 
ATOM     26  C   UNL     1       0.636  12.278  18.664  0.00  0.00    +0.000 C 
ATOM     27  C   UNL     1       0.072  13.256  19.692  0.00  0.00    +0.000 C 
ATOM     28  C   UNL     1      -1.460  13.283  19.589  0.00  0.00    +0.000 C 
ATOM     29  C   UNL     1      -2.031  11.869  19.783  0.00  0.00    +0.000 C 
ATOM     30  C   UNL     1      -1.430  10.912  18.749  0.00  0.00    +0.000 C 
ENDBRANCH  22  25
ENDBRANCH  17  19
ENDBRANCH   9  17
TORSDOF 6
ENDMDL
MODEL 6
REMARK VINA RESULT:      -8.5      1.132      1.884
REMARK  Name = 
REMARK  8 active torsions:
REMARK  status: ('A' for Active; 'I' for Inactive)
REMARK    1  A    between atoms: C_1  and  C_2
REMARK    2  A    between atoms: C_2  and  O_3
REMARK    3  A    between atoms: O_3  and  C_4
REMARK    4  A    between atoms: C_4  and  C_6
REMARK    5  A    between atoms: C_11  and  C_12
REMARK    6  A    between atoms: C_14  and  N_15
REMARK    7  A    between atoms: N_15  and  C_16
REMARK    8  A    between atoms: C_19  and  N_20
REMARK                            x       y       z     vdW  Elec       q    Type
REMARK                         _______ _______ _______ _____ _____    ______ ____
ROOT
ATOM      1  C   UNL     1       4.706   4.872  16.727  0.00  0.00    +0.000 A 
ATOM      2  C   UNL     1       4.439   3.498  16.609  0.00  0.00    +0.000 A 
ATOM      3  C   UNL     1       3.717   2.830  17.594  0.00  0.00    +0.000 A 
ATOM      4  C   UNL     1       3.236   3.521  18.707  0.00  0.00    +0.000 A 
ATOM      5  N   UNL     1       2.544   2.842  19.658  0.00  0.00    +0.000 NA
ATOM      6  C   UNL     1       2.039   3.457  20.756  0.00  0.00    +0.000 A 
ATOM      7  C   UNL     1       1.306   2.663  21.791  0.00  0.00    +0.000 C 
ATOM      8  C   UNL     1       2.197   4.833  20.911  0.00  0.00    +0.000 A 
ATOM      9  C   UNL     1       2.893   5.589  19.946  0.00  0.00    +0.000 A 
ATOM     10  C   UNL     1       3.460   4.916  18.835  0.00  0.00    +0.000 A 
ATOM     11  C   UNL     1       4.206   5.576  17.834  0.00  0.00    +0.000 A 
ENDROOT
BRANCH   1  12
ATOM     12  C   UNL     1       5.507   5.570  15.689  0.00  0.00    +0.000 C 
ATOM     13  O   UNL     1       6.069   6.621  15.961  0.00  0.00    +0.000 OA
BRANCH  12  14
ATOM     14  O   UNL     1       5.622   5.033  14.442  0.00  0.00    +0.000 OA
BRANCH  14  16
ATOM     15  C   UNL     1       6.553   3.750  12.631  0.00  0.00    +0.000 C 
ATOM     16  C   UNL     1       6.801   4.531  13.920  0.00  0.00    +0.000 C 
ENDBRANCH  14  16
ENDBRANCH  12  14
ENDBRANCH   1  12
BRANCH   9  17
ATOM     17  N   UNL     1       3.013   7.006  20.118  0.00  0.00    +0.000 N 
ATOM     18  H   UNL     1       3.892   7.417  20.460  0.00  0.00    +0.000 HD
BRANCH  17  19
ATOM     19  C   UNL     1       2.006   7.931  19.716  0.00  0.00    +0.000 A 
ATOM     20  C   UNL     1       1.139   8.468  20.672  0.00  0.00    +0.000 A 
ATOM     21  C   UNL     1       0.180   9.411  20.304  0.00  0.00    +0.000 A 
ATOM     22  C   UNL     1       0.071   9.854  18.963  0.00  0.00    +0.000 A 
ATOM     23  C   UNL     1       0.950   9.307  18.014  0.00  0.00    +0.000 A 
ATOM     24  C   UNL     1       1.902   8.368  18.382  0.00  0.00    +0.000 A 
BRANCH  22  25
ATOM     25  N   UNL     1      -0.887  10.850  18.596  0.00  0.00    +0.000 N 
ATOM     26  C   UNL     1      -1.009  12.107  19.333  0.00  0.00    +0.000 C 
ATOM     27  C   UNL     1      -2.422  12.226  19.898  0.00  0.00    +0.000 C 
ATOM     28  C   UNL     1      -3.443  12.092  18.760  0.00  0.00    +0.000 C 
ATOM     29  C   UNL     1      -3.243  10.760  18.020  0.00  0.00    +0.000 C 
ATOM     30  C   UNL     1      -1.811  10.666  17.482  0.00  0.00    +0.000 C 
ENDBRANCH  22  25
ENDBRANCH  17  19
ENDBRANCH   9  17
TORSDOF 6
ENDMDL
MODEL 7
REMARK VINA RESULT:      -8.3      0.561      1.058
REMARK  Name = 
REMARK  8 active torsions:
REMARK  status: ('A' for Active; 'I' for Inactive)
REMARK    1  A    between atoms: C_1  and  C_2
REMARK    2  A    between atoms: C_2  and  O_3
REMARK    3  A    between atoms: O_3  and  C_4
REMARK    4  A    between atoms: C_4  and  C_6
REMARK    5  A    between atoms: C_11  and  C_12
REMARK    6  A    between atoms: C_14  and  N_15
REMARK    7  A    between atoms: N_15  and  C_16
REMARK    8  A    between atoms: C_19  and  N_20
REMARK                            x       y       z     vdW  Elec       q    Type
REMARK                         _______ _______ _______ _____ _____    ______ ____
ROOT
ATOM      1  C   UNL     1       4.688   5.578  16.915  0.00  0.00    +0.000 A 
ATOM      2  C   UNL     1       4.480   4.218  16.631  0.00  0.00    +0.000 A 
ATOM      3  C   UNL     1       3.699   3.430  17.473  0.00  0.00    +0.000 A 
ATOM      4  C   UNL     1       3.102   3.986  18.606  0.00  0.00    +0.000 A 
ATOM      5  N   UNL     1       2.355   3.192  19.415  0.00  0.00    +0.000 NA
ATOM      6  C   UNL     1       1.736   3.674  20.523  0.00  0.00    +0.000 A 
ATOM      7  C   UNL     1       0.946   2.755  21.400  0.00  0.00    +0.000 C 
ATOM      8  C   UNL     1       1.833   5.029  20.833  0.00  0.00    +0.000 A 
ATOM      9  C   UNL     1       2.583   5.900  20.018  0.00  0.00    +0.000 A 
ATOM     10  C   UNL     1       3.265   5.364  18.897  0.00  0.00    +0.000 A 
ATOM     11  C   UNL     1       4.071   6.146  18.040  0.00  0.00    +0.000 A 
ENDROOT
BRANCH   1  12
ATOM     12  C   UNL     1       5.550   6.402  16.031  0.00  0.00    +0.000 C 
ATOM     13  O   UNL     1       5.097   6.849  14.987  0.00  0.00    +0.000 OA
BRANCH  12  14
ATOM     14  O   UNL     1       6.838   6.666  16.388  0.00  0.00    +0.000 OA
BRANCH  14  16
ATOM     15  C   UNL     1       7.691   4.829  17.688  0.00  0.00    +0.000 C 
ATOM     16  C   UNL     1       7.390   6.325  17.609  0.00  0.00    +0.000 C 
ENDBRANCH  14  16
ENDBRANCH  12  14
ENDBRANCH   1  12
BRANCH   9  17
ATOM     17  N   UNL     1       2.639   7.294  20.346  0.00  0.00    +0.000 N 
ATOM     18  H   UNL     1       3.473   7.689  20.802  0.00  0.00    +0.000 HD
BRANCH  17  19
ATOM     19  C   UNL     1       1.635   8.230  19.961  0.00  0.00    +0.000 A 
ATOM     20  C   UNL     1       0.723   8.697  20.912  0.00  0.00    +0.000 A 
ATOM     21  C   UNL     1      -0.233   9.648  20.564  0.00  0.00    +0.000 A 
ATOM     22  C   UNL     1      -0.296  10.172  19.248  0.00  0.00    +0.000 A 
ATOM     23  C   UNL     1       0.628   9.694  18.304  0.00  0.00    +0.000 A 
ATOM     24  C   UNL     1       1.578   8.746  18.652  0.00  0.00    +0.000 A 
BRANCH  22  25
ATOM     25  N   UNL     1      -1.253  11.176  18.904  0.00  0.00    +0.000 N 
ATOM     26  C   UNL     1      -1.484  12.342  19.757  0.00  0.00    +0.000 C 
ATOM     27  C   UNL     1      -2.944  12.362  20.201  0.00  0.00    +0.000 C 
ATOM     28  C   UNL     1      -3.857  12.326  18.966  0.00  0.00    +0.000 C 
ATOM     29  C   UNL     1      -3.545  11.089  18.110  0.00  0.00    +0.000 C 
ATOM     30  C   UNL     1      -2.069  11.092  17.698  0.00  0.00    +0.000 C 
ENDBRANCH  22  25
ENDBRANCH  17  19
ENDBRANCH   9  17
TORSDOF 6
ENDMDL
MODEL 8
REMARK VINA RESULT:      -7.9      3.111      8.901
REMARK  Name = 
REMARK  8 active torsions:
REMARK  status: ('A' for Active; 'I' for Inactive)
REMARK    1  A    between atoms: C_1  and  C_2
REMARK    2  A    between atoms: C_2  and  O_3
REMARK    3  A    between atoms: O_3  and  C_4
REMARK    4  A    between atoms: C_4  and  C_6
REMARK    5  A    between atoms: C_11  and  C_12
REMARK    6  A    between atoms: C_14  and  N_15
REMARK    7  A    between atoms: N_15  and  C_16
REMARK    8  A    between atoms: C_19  and  N_20
REMARK                            x       y       z     vdW  Elec       q    Type
REMARK                         _______ _______ _______ _____ _____    ______ ____
ROOT
ATOM      1  C   UNL     1      -3.224  10.729  15.916  0.00  0.00    +0.000 A 
ATOM      2  C   UNL     1      -4.448  11.206  16.411  0.00  0.00    +0.000 A 
ATOM      3  C   UNL     1      -4.533  11.744  17.693  0.00  0.00    +0.000 A 
ATOM      4  C   UNL     1      -3.397  11.828  18.498  0.00  0.00    +0.000 A 
ATOM      5  N   UNL     1      -3.510  12.348  19.748  0.00  0.00    +0.000 NA
ATOM      6  C   UNL     1      -2.442  12.471  20.575  0.00  0.00    +0.000 A 
ATOM      7  C   UNL     1      -2.620  13.024  21.954  0.00  0.00    +0.000 C 
ATOM      8  C   UNL     1      -1.178  12.089  20.131  0.00  0.00    +0.000 A 
ATOM      9  C   UNL     1      -1.001  11.558  18.838  0.00  0.00    +0.000 A 
ATOM     10  C   UNL     1      -2.140  11.388  18.011  0.00  0.00    +0.000 A 
ATOM     11  C   UNL     1      -2.074  10.832  16.715  0.00  0.00    +0.000 A 
ENDROOT
BRANCH   1  12
ATOM     12  C   UNL     1      -3.149  10.125  14.562  0.00  0.00    +0.000 C 
ATOM     13  O   UNL     1      -2.276   9.308  14.309  0.00  0.00    +0.000 OA
BRANCH  12  14
ATOM     14  O   UNL     1      -4.058  10.474  13.609  0.00  0.00    +0.000 OA
BRANCH  14  16
ATOM     15  C   UNL     1      -5.558   9.379  12.077  0.00  0.00    +0.000 C 
ATOM     16  C   UNL     1      -4.143   9.879  12.363  0.00  0.00    +0.000 C 
ENDBRANCH  14  16
ENDBRANCH  12  14
ENDBRANCH   1  12
BRANCH   9  17
ATOM     17  N   UNL     1       0.316  11.202  18.399  0.00  0.00    +0.000 N 
ATOM     18  H   UNL     1       0.897  11.881  17.889  0.00  0.00    +0.000 HD
BRANCH  17  19
ATOM     19  C   UNL     1       0.947   9.970  18.738  0.00  0.00    +0.000 A 
ATOM     20  C   UNL     1       0.824   9.462  20.034  0.00  0.00    +0.000 A 
ATOM     21  C   UNL     1       1.393   8.235  20.368  0.00  0.00    +0.000 A 
ATOM     22  C   UNL     1       2.097   7.471  19.404  0.00  0.00    +0.000 A 
ATOM     23  C   UNL     1       2.213   7.994  18.105  0.00  0.00    +0.000 A 
ATOM     24  C   UNL     1       1.646   9.216  17.775  0.00  0.00    +0.000 A 
BRANCH  22  25
ATOM     25  N   UNL     1       2.648   6.196  19.739  0.00  0.00    +0.000 N 
ATOM     26  C   UNL     1       3.907   5.727  19.161  0.00  0.00    +0.000 C 
ATOM     27  C   UNL     1       3.660   4.428  18.397  0.00  0.00    +0.000 C 
ATOM     28  C   UNL     1       3.003   3.400  19.329  0.00  0.00    +0.000 C 
ATOM     29  C   UNL     1       1.700   3.968  19.913  0.00  0.00    +0.000 C 
ATOM     30  C   UNL     1       1.982   5.278  20.656  0.00  0.00    +0.000 C 
ENDBRANCH  22  25
ENDBRANCH  17  19
ENDBRANCH   9  17
TORSDOF 6
ENDMDL
MODEL 9
REMARK VINA RESULT:      -7.8      1.325      1.713
REMARK  Name = 
REMARK  8 active torsions:
REMARK  status: ('A' for Active; 'I' for Inactive)
REMARK    1  A    between atoms: C_1  and  C_2
REMARK    2  A    between atoms: C_2  and  O_3
REMARK    3  A    between atoms: O_3  and  C_4
REMARK    4  A    between atoms: C_4  and  C_6
REMARK    5  A    between atoms: C_11  and  C_12
REMARK    6  A    between atoms: C_14  and  N_15
REMARK    7  A    between atoms: N_15  and  C_16
REMARK    8  A    between atoms: C_19  and  N_20
REMARK                            x       y       z     vdW  Elec       q    Type
REMARK                         _______ _______ _______ _____ _____    ______ ____
ROOT
ATOM      1  C   UNL     1       5.497   5.722  17.227  0.00  0.00    +0.000 A 
ATOM      2  C   UNL     1       5.308   4.647  16.344  0.00  0.00    +0.000 A 
ATOM      3  C   UNL     1       4.258   3.753  16.531  0.00  0.00    +0.000 A 
ATOM      4  C   UNL     1       3.369   3.922  17.593  0.00  0.00    +0.000 A 
ATOM      5  N   UNL     1       2.359   3.029  17.758  0.00  0.00    +0.000 NA
ATOM      6  C   UNL     1       1.454   3.144  18.762  0.00  0.00    +0.000 A 
ATOM      7  C   UNL     1       0.374   2.121  18.921  0.00  0.00    +0.000 C 
ATOM      8  C   UNL     1       1.528   4.226  19.637  0.00  0.00    +0.000 A 
ATOM      9  C   UNL     1       2.546   5.191  19.501  0.00  0.00    +0.000 A 
ATOM     10  C   UNL     1       3.513   5.019  18.480  0.00  0.00    +0.000 A 
ATOM     11  C   UNL     1       4.592   5.909  18.284  0.00  0.00    +0.000 A 
ENDROOT
BRANCH   1  12
ATOM     12  C   UNL     1       6.641   6.651  17.041  0.00  0.00    +0.000 C 
ATOM     13  O   UNL     1       6.485   7.685  16.408  0.00  0.00    +0.000 OA
BRANCH  12  14
ATOM     14  O   UNL     1       7.856   6.355  17.582  0.00  0.00    +0.000 OA
BRANCH  14  16
ATOM     15  C   UNL     1       8.024   5.520  19.833  0.00  0.00    +0.000 C 
ATOM     16  C   UNL     1       8.232   6.688  18.871  0.00  0.00    +0.000 C 
ENDBRANCH  14  16
ENDBRANCH  12  14
ENDBRANCH   1  12
BRANCH   9  17
ATOM     17  N   UNL     1       2.579   6.308  20.398  0.00  0.00    +0.000 N 
ATOM     18  H   UNL     1       3.147   6.272  21.255  0.00  0.00    +0.000 HD
BRANCH  17  19
ATOM     19  C   UNL     1       1.954   7.558  20.115  0.00  0.00    +0.000 A 
ATOM     20  C   UNL     1       2.047   8.103  18.832  0.00  0.00    +0.000 A 
ATOM     21  C   UNL     1       1.401   9.299  18.525  0.00  0.00    +0.000 A 
ATOM     22  C   UNL     1       0.629   9.981  19.499  0.00  0.00    +0.000 A 
ATOM     23  C   UNL     1       0.543   9.420  20.784  0.00  0.00    +0.000 A 
ATOM     24  C   UNL     1       1.188   8.230  21.087  0.00  0.00    +0.000 A 
BRANCH  22  25
ATOM     25  N   UNL     1      -0.065  11.187  19.171  0.00  0.00    +0.000 N 
ATOM     26  C   UNL     1       0.643  12.455  18.989  0.00  0.00    +0.000 C 
ATOM     27  C   UNL     1       0.119  13.475  19.996  0.00  0.00    +0.000 C 
ATOM     28  C   UNL     1      -1.404  13.607  19.849  0.00  0.00    +0.000 C 
ATOM     29  C   UNL     1      -2.076  12.237  20.032  0.00  0.00    +0.000 C 
ATOM     30  C   UNL     1      -1.514  11.235  19.019  0.00  0.00    +0.000 C 
ENDBRANCH  22  25
ENDBRANCH  17  19
ENDBRANCH   9  17
TORSDOF 6
ENDMDL
