MODEL 1
REMARK VINA RESULT:      -7.8      0.000      0.000
REMARK  Name = 
REMARK  6 active torsions:
REMARK  status: ('A' for Active; 'I' for Inactive)
REMARK    1  A    between atoms: C_1  and  C_2
REMARK    2  A    between atoms: C_2  and  C_3
REMARK    3  A    between atoms: C_3  and  S_4
REMARK    4  A    between atoms: S_4  and  C_5
REMARK    5  A    between atoms: C_6  and  C_7
REMARK    6  A    between atoms: N_8  and  O_9
REMARK                            x       y       z     vdW  Elec       q    Type
REMARK                         _______ _______ _______ _____ _____    ______ ____
ROOT
ATOM      1  C   UNL     1       4.090   4.688  18.268  0.00  0.00    +0.000 C 
ATOM      2  C   UNL     1       4.545   5.043  17.037  0.00  0.00    +0.000 C 
ATOM      3  C   UNL     1       4.397   6.428  16.432  0.00  0.00    +0.000 C 
ATOM      4  C   UNL     1       3.624   7.469  17.225  0.00  0.00    +0.000 C 
ATOM      5  C   UNL     1       3.053   6.957  18.501  0.00  0.00    +0.000 A 
ATOM      6  C   UNL     1       3.288   5.674  18.969  0.00  0.00    +0.000 A 
ATOM      7  S   UNL     1       2.426   5.454  20.462  0.00  0.00    +0.000 S 
ATOM      8  C   UNL     1       1.784   7.049  20.467  0.00  0.00    +0.000 A 
ATOM      9  N   UNL     1       0.970   7.546  21.442  0.00  0.00    +0.000 NA
ATOM     10  C   UNL     1       0.585   8.797  21.317  0.00  0.00    +0.000 A 
ATOM     11  N   UNL     1       1.001   9.603  20.210  0.00  0.00    +0.000 N 
ATOM     12  C   UNL     1       1.805   9.093  19.192  0.00  0.00    +0.000 A 
ATOM     13  O   UNL     1       2.161   9.765  18.227  0.00  0.00    +0.000 OA
ATOM     14  C   UNL     1       2.218   7.733  19.362  0.00  0.00    +0.000 A 
ATOM     15  C   UNL     1       0.674  11.051  19.966  0.00  0.00    +0.000 C 
ATOM     16  C   UNL     1      -0.158  11.336  21.109  0.00  0.00    +0.000 C 
ATOM     17  C   UNL     1      -0.998  11.977  22.103  0.00  0.00    +0.000 C 
ATOM     18  C   UNL     1      -1.196  10.690  22.994  0.00  0.00    +0.000 C 
ATOM     19  C   UNL     1      -0.397   9.297  22.609  0.00  0.00    +0.000 C 
ENDROOT
BRANCH   2  20
ATOM     20  C   UNL     1       5.227   4.103  16.086  0.00  0.00    +0.000 C 
ATOM     21  N   UNL     1       5.779   4.507  14.984  0.00  0.00    +0.000 NA
BRANCH  21  22
ATOM     22  O   UNL     1       6.306   3.409  14.295  0.00  0.00    +0.000 OA
ATOM     23  H   UNL     1       7.011   3.819  13.760  0.00  0.00    +0.000 HD
ENDBRANCH  21  22
ENDBRANCH   2  20
BRANCH   1  24
ATOM     24  S   UNL     1       4.393   3.120  18.981  0.00  0.00    +0.000 S 
BRANCH  24  25
ATOM     25  C   UNL     1       3.047   2.126  18.235  0.00  0.00    +0.000 C 
BRANCH  25  27
ATOM     26  C   UNL     1       0.633   2.623  18.760  0.00  0.00    +0.000 C 
ATOM     27  C   UNL     1       1.905   1.928  19.232  0.00  0.00    +0.000 C 
ENDBRANCH  25  27
ENDBRANCH  24  25
ENDBRANCH   1  24
TORSDOF 5
ENDMDL
MODEL 2
REMARK VINA RESULT:      -7.6      2.577      3.965
REMARK  Name = 
REMARK  6 active torsions:
REMARK  status: ('A' for Active; 'I' for Inactive)
REMARK    1  A    between atoms: C_1  and  C_2
REMARK    2  A    between atoms: C_2  and  C_3
REMARK    3  A    between atoms: C_3  and  S_4
REMARK    4  A    between atoms: S_4  and  C_5
REMARK    5  A    between atoms: C_6  and  C_7
REMARK    6  A    between atoms: N_8  and  O_9
REMARK                            x       y       z     vdW  Elec       q    Type
REMARK                         _______ _______ _______ _____ _____    ______ ____
ROOT
ATOM      1  C   UNL     1       3.646   4.834  18.270  0.00  0.00    +0.000 C 
ATOM      2  C   UNL     1       3.442   3.963  19.293  0.00  0.00    +0.000 C 
ATOM      3  C   UNL     1       2.565   4.244  20.501  0.00  0.00    +0.000 C 
ATOM      4  C   UNL     1       1.929   5.620  20.610  0.00  0.00    +0.000 C 
ATOM      5  C   UNL     1       2.309   6.551  19.513  0.00  0.00    +0.000 A 
ATOM      6  C   UNL     1       3.094   6.166  18.437  0.00  0.00    +0.000 A 
ATOM      7  S   UNL     1       3.336   7.540  17.399  0.00  0.00    +0.000 S 
ATOM      8  C   UNL     1       2.392   8.595  18.373  0.00  0.00    +0.000 A 
ATOM      9  N   UNL     1       2.168   9.910  18.086  0.00  0.00    +0.000 NA
ATOM     10  C   UNL     1       1.399  10.579  18.916  0.00  0.00    +0.000 A 
ATOM     11  N   UNL     1       0.820   9.958  20.068  0.00  0.00    +0.000 N 
ATOM     12  C   UNL     1       1.071   8.625  20.388  0.00  0.00    +0.000 A 
ATOM     13  O   UNL     1       0.596   8.078  21.380  0.00  0.00    +0.000 OA
ATOM     14  C   UNL     1       1.902   7.920  19.459  0.00  0.00    +0.000 A 
ATOM     15  C   UNL     1      -0.107  10.588  21.072  0.00  0.00    +0.000 C 
ATOM     16  C   UNL     1      -0.195  11.930  20.552  0.00  0.00    +0.000 C 
ATOM     17  C   UNL     1      -0.526  13.325  20.327  0.00  0.00    +0.000 C 
ATOM     18  C   UNL     1       0.380  13.497  19.048  0.00  0.00    +0.000 C 
ATOM     19  C   UNL     1       1.178  12.191  18.428  0.00  0.00    +0.000 C 
ENDROOT
BRANCH   2  20
ATOM     20  C   UNL     1       4.086   2.611  19.389  0.00  0.00    +0.000 C 
ATOM     21  N   UNL     1       4.905   2.296  20.346  0.00  0.00    +0.000 NA
BRANCH  21  22
ATOM     22  O   UNL     1       5.365   0.989  20.157  0.00  0.00    +0.000 OA
ATOM     23  H   UNL     1       6.191   1.130  19.658  0.00  0.00    +0.000 HD
ENDBRANCH  21  22
ENDBRANCH   2  20
BRANCH   1  24
ATOM     24  S   UNL     1       4.559   4.425  16.836  0.00  0.00    +0.000 S 
BRANCH  24  25
ATOM     25  C   UNL     1       6.274   4.692  17.421  0.00  0.00    +0.000 C 
BRANCH  25  27
ATOM     26  C   UNL     1       7.366   6.958  17.571  0.00  0.00    +0.000 C 
ATOM     27  C   UNL     1       6.941   5.826  16.642  0.00  0.00    +0.000 C 
ENDBRANCH  25  27
ENDBRANCH  24  25
ENDBRANCH   1  24
TORSDOF 5
ENDMDL
MODEL 3
REMARK VINA RESULT:      -7.4      1.006      1.102
REMARK  Name = 
REMARK  6 active torsions:
REMARK  status: ('A' for Active; 'I' for Inactive)
REMARK    1  A    between atoms: C_1  and  C_2
REMARK    2  A    between atoms: C_2  and  C_3
REMARK    3  A    between atoms: C_3  and  S_4
REMARK    4  A    between atoms: S_4  and  C_5
REMARK    5  A    between atoms: C_6  and  C_7
REMARK    6  A    between atoms: N_8  and  O_9
REMARK                            x       y       z     vdW  Elec       q    Type
REMARK                         _______ _______ _______ _____ _____    ______ ____
ROOT
ATOM      1  C   UNL     1       3.501   5.122  18.733  0.00  0.00    +0.000 C 
ATOM      2  C   UNL     1       3.984   5.354  17.484  0.00  0.00    +0.000 C 
ATOM      3  C   UNL     1       3.926   6.696  16.775  0.00  0.00    +0.000 C 
ATOM      4  C   UNL     1       3.215   7.840  17.479  0.00  0.00    +0.000 C 
ATOM      5  C   UNL     1       2.605   7.462  18.784  0.00  0.00    +0.000 A 
ATOM      6  C   UNL     1       2.757   6.205  19.349  0.00  0.00    +0.000 A 
ATOM      7  S   UNL     1       1.873   6.153  20.845  0.00  0.00    +0.000 S 
ATOM      8  C   UNL     1       1.332   7.780  20.723  0.00  0.00    +0.000 A 
ATOM      9  N   UNL     1       0.544   8.398  21.650  0.00  0.00    +0.000 NA
ATOM     10  C   UNL     1       0.239   9.657  21.427  0.00  0.00    +0.000 A 
ATOM     11  N   UNL     1       0.711  10.350  20.267  0.00  0.00    +0.000 N 
ATOM     12  C   UNL     1       1.488   9.717  19.298  0.00  0.00    +0.000 A 
ATOM     13  O   UNL     1       1.891  10.290  18.290  0.00  0.00    +0.000 OA
ATOM     14  C   UNL     1       1.815   8.350  19.575  0.00  0.00    +0.000 A 
ATOM     15  C   UNL     1       0.476  11.793  19.911  0.00  0.00    +0.000 C 
ATOM     16  C   UNL     1      -0.344  12.215  21.020  0.00  0.00    +0.000 C 
ATOM     17  C   UNL     1      -1.149  12.980  21.954  0.00  0.00    +0.000 C 
ATOM     18  C   UNL     1      -1.432  11.778  22.937  0.00  0.00    +0.000 C 
ATOM     19  C   UNL     1      -0.718  10.314  22.667  0.00  0.00    +0.000 C 
ENDROOT
BRANCH   2  20
ATOM     20  C   UNL     1       4.613   4.304  16.614  0.00  0.00    +0.000 C 
ATOM     21  N   UNL     1       5.898   4.178  16.495  0.00  0.00    +0.000 NA
BRANCH  21  22
ATOM     22  O   UNL     1       6.185   3.141  15.602  0.00  0.00    +0.000 OA
ATOM     23  H   UNL     1       7.034   2.802  15.943  0.00  0.00    +0.000 HD
ENDBRANCH  21  22
ENDBRANCH   2  20
BRANCH   1  24
ATOM     24  S   UNL     1       3.701   3.597  19.565  0.00  0.00    +0.000 S 
BRANCH  24  25
ATOM     25  C   UNL     1       2.231   2.676  18.974  0.00  0.00    +0.000 C 
BRANCH  25  27
ATOM     26  C   UNL     1       1.765   2.563  21.448  0.00  0.00    +0.000 C 
ATOM     27  C   UNL     1       1.150   2.632  20.055  0.00  0.00    +0.000 C 
ENDBRANCH  25  27
ENDBRANCH  24  25
ENDBRANCH   1  24
TORSDOF 5
ENDMDL
MODEL 4
REMARK VINA RESULT:      -7.2      2.610      3.917
REMARK  Name = 
REMARK  6 active torsions:
REMARK  status: ('A' for Active; 'I' for Inactive)
REMARK    1  A    between atoms: C_1  and  C_2
REMARK    2  A    between atoms: C_2  and  C_3
REMARK    3  A    between atoms: C_3  and  S_4
REMARK    4  A    between atoms: S_4  and  C_5
REMARK    5  A    between atoms: C_6  and  C_7
REMARK    6  A    between atoms: N_8  and  O_9
REMARK                            x       y       z     vdW  Elec       q    Type
REMARK                         _______ _______ _______ _____ _____    ______ ____
ROOT
ATOM      1  C   UNL     1       3.616   5.539  18.327  0.00  0.00    +0.000 C 
ATOM      2  C   UNL     1       3.549   4.620  19.326  0.00  0.00    +0.000 C 
ATOM      3  C   UNL     1       2.685   4.761  20.567  0.00  0.00    +0.000 C 
ATOM      4  C   UNL     1       1.896   6.048  20.740  0.00  0.00    +0.000 C 
ATOM      5  C   UNL     1       2.129   7.049  19.664  0.00  0.00    +0.000 A 
ATOM      6  C   UNL     1       2.918   6.792  18.554  0.00  0.00    +0.000 A 
ATOM      7  S   UNL     1       2.964   8.214  17.555  0.00  0.00    +0.000 S 
ATOM      8  C   UNL     1       1.936   9.122  18.590  0.00  0.00    +0.000 A 
ATOM      9  N   UNL     1       1.550  10.409  18.353  0.00  0.00    +0.000 NA
ATOM     10  C   UNL     1       0.735  10.957  19.227  0.00  0.00    +0.000 A 
ATOM     11  N   UNL     1       0.271  10.239  20.374  0.00  0.00    +0.000 N 
ATOM     12  C   UNL     1       0.686   8.936  20.643  0.00  0.00    +0.000 A 
ATOM     13  O   UNL     1       0.310   8.309  21.629  0.00  0.00    +0.000 OA
ATOM     14  C   UNL     1       1.563   8.361  19.667  0.00  0.00    +0.000 A 
ATOM     15  C   UNL     1      -0.691  10.726  21.424  0.00  0.00    +0.000 C 
ATOM     16  C   UNL     1      -0.952  12.063  20.952  0.00  0.00    +0.000 C 
ATOM     17  C   UNL     1      -1.450  13.415  20.783  0.00  0.00    +0.000 C 
ATOM     18  C   UNL     1      -0.612  13.731  19.484  0.00  0.00    +0.000 C 
ATOM     19  C   UNL     1       0.312  12.546  18.799  0.00  0.00    +0.000 C 
ENDROOT
BRANCH   2  20
ATOM     20  C   UNL     1       4.350   3.351  19.359  0.00  0.00    +0.000 C 
ATOM     21  N   UNL     1       4.174   2.441  20.267  0.00  0.00    +0.000 NA
BRANCH  21  22
ATOM     22  O   UNL     1       5.077   1.394  20.060  0.00  0.00    +0.000 OA
ATOM     23  H   UNL     1       5.841   1.669  20.602  0.00  0.00    +0.000 HD
ENDBRANCH  21  22
ENDBRANCH   2  20
BRANCH   1  24
ATOM     24  S   UNL     1       4.524   5.283  16.854  0.00  0.00    +0.000 S 
BRANCH  24  25
ATOM     25  C   UNL     1       6.199   5.808  17.376  0.00  0.00    +0.000 C 
BRANCH  25  27
ATOM     26  C   UNL     1       7.038   4.457  15.421  0.00  0.00    +0.000 C 
ATOM     27  C   UNL     1       7.254   4.814  16.887  0.00  0.00    +0.000 C 
ENDBRANCH  25  27
ENDBRANCH  24  25
ENDBRANCH   1  24
TORSDOF 5
ENDMDL
MODEL 5
REMARK VINA RESULT:      -6.9      3.200      8.387
REMARK  Name = 
REMARK  6 active torsions:
REMARK  status: ('A' for Active; 'I' for Inactive)
REMARK    1  A    between atoms: C_1  and  C_2
REMARK    2  A    between atoms: C_2  and  C_3
REMARK    3  A    between atoms: C_3  and  S_4
REMARK    4  A    between atoms: S_4  and  C_5
REMARK    5  A    between atoms: C_6  and  C_7
REMARK    6  A    between atoms: N_8  and  O_9
REMARK                            x       y       z     vdW  Elec       q    Type
REMARK                         _______ _______ _______ _____ _____    ______ ____
ROOT
ATOM      1  C   UNL     1       0.209  10.888  20.281  0.00  0.00    +0.000 C 
ATOM      2  C   UNL     1      -0.454  10.418  21.371  0.00  0.00    +0.000 C 
ATOM      3  C   UNL     1      -0.237   9.045  21.983  0.00  0.00    +0.000 C 
ATOM      4  C   UNL     1       0.734   8.104  21.288  0.00  0.00    +0.000 C 
ATOM      5  C   UNL     1       1.316   8.654  20.033  0.00  0.00    +0.000 A 
ATOM      6  C   UNL     1       1.069   9.944  19.591  0.00  0.00    +0.000 A 
ATOM      7  S   UNL     1       1.898  10.189  18.083  0.00  0.00    +0.000 S 
ATOM      8  C   UNL     1       2.574   8.609  18.058  0.00  0.00    +0.000 A 
ATOM      9  N   UNL     1       3.388   8.137  17.070  0.00  0.00    +0.000 NA
ATOM     10  C   UNL     1       3.848   6.914  17.211  0.00  0.00    +0.000 A 
ATOM     11  N   UNL     1       3.515   6.113  18.349  0.00  0.00    +0.000 N 
ATOM     12  C   UNL     1       2.657   6.574  19.346  0.00  0.00    +0.000 A 
ATOM     13  O   UNL     1       2.348   5.896  20.322  0.00  0.00    +0.000 OA
ATOM     14  C   UNL     1       2.182   7.913  19.171  0.00  0.00    +0.000 A 
ATOM     15  C   UNL     1       4.002   4.723  18.657  0.00  0.00    +0.000 C 
ATOM     16  C   UNL     1       4.831   4.466  17.505  0.00  0.00    +0.000 C 
ATOM     17  C   UNL     1       5.729   3.874  16.531  0.00  0.00    +0.000 C 
ATOM     18  C   UNL     1       5.695   5.091  15.527  0.00  0.00    +0.000 C 
ATOM     19  C   UNL     1       4.869   6.462  15.930  0.00  0.00    +0.000 C 
ENDROOT
BRANCH   2  20
ATOM     20  C   UNL     1      -1.522  11.179  22.101  0.00  0.00    +0.000 C 
ATOM     21  N   UNL     1      -1.452  11.429  23.372  0.00  0.00    +0.000 NA
BRANCH  21  22
ATOM     22  O   UNL     1      -2.597  12.124  23.776  0.00  0.00    +0.000 OA
ATOM     23  H   UNL     1      -3.254  11.407  23.862  0.00  0.00    +0.000 HD
ENDBRANCH  21  22
ENDBRANCH   2  20
BRANCH   1  24
ATOM     24  S   UNL     1       0.024  12.521  19.683  0.00  0.00    +0.000 S 
BRANCH  24  25
ATOM     25  C   UNL     1      -0.994  12.237  18.187  0.00  0.00    +0.000 C 
BRANCH  25  27
ATOM     26  C   UNL     1      -2.216  10.093  17.676  0.00  0.00    +0.000 C 
ATOM     27  C   UNL     1      -2.207  11.366  18.515  0.00  0.00    +0.000 C 
ENDBRANCH  25  27
ENDBRANCH  24  25
ENDBRANCH   1  24
TORSDOF 5
ENDMDL
MODEL 6
REMARK VINA RESULT:      -6.7      1.641      2.424
REMARK  Name = 
REMARK  6 active torsions:
REMARK  status: ('A' for Active; 'I' for Inactive)
REMARK    1  A    between atoms: C_1  and  C_2
REMARK    2  A    between atoms: C_2  and  C_3
REMARK    3  A    between atoms: C_3  and  S_4
REMARK    4  A    between atoms: S_4  and  C_5
REMARK    5  A    between atoms: C_6  and  C_7
REMARK    6  A    between atoms: N_8  and  O_9
REMARK                            x       y       z     vdW  Elec       q    Type
REMARK                         _______ _______ _______ _____ _____    ______ ____
ROOT
ATOM      1  C   UNL     1       2.580   6.138  19.491  0.00  0.00    +0.000 C 
ATOM      2  C   UNL     1       3.113   6.207  18.242  0.00  0.00    +0.000 C 
ATOM      3  C   UNL     1       3.165   7.468  17.397  0.00  0.00    +0.000 C 
ATOM      4  C   UNL     1       2.512   8.722  17.955  0.00  0.00    +0.000 C 
ATOM      5  C   UNL     1       1.842   8.522  19.269  0.00  0.00    +0.000 A 
ATOM      6  C   UNL     1       1.893   7.325  19.966  0.00  0.00    +0.000 A 
ATOM      7  S   UNL     1       0.966   7.486  21.427  0.00  0.00    +0.000 S 
ATOM      8  C   UNL     1       0.538   9.122  21.120  0.00  0.00    +0.000 A 
ATOM      9  N   UNL     1      -0.232   9.883  21.949  0.00  0.00    +0.000 NA
ATOM     10  C   UNL     1      -0.446  11.129  21.587  0.00  0.00    +0.000 A 
ATOM     11  N   UNL     1       0.104  11.665  20.380  0.00  0.00    +0.000 N 
ATOM     12  C   UNL     1       0.864  10.885  19.509  0.00  0.00    +0.000 A 
ATOM     13  O   UNL     1       1.332  11.323  18.462  0.00  0.00    +0.000 OA
ATOM     14  C   UNL     1       1.090   9.538  19.937  0.00  0.00    +0.000 A 
ATOM     15  C   UNL     1      -0.024  13.074  19.869  0.00  0.00    +0.000 C 
ATOM     16  C   UNL     1      -0.845  13.661  20.899  0.00  0.00    +0.000 C 
ATOM     17  C   UNL     1      -1.623  14.569  21.721  0.00  0.00    +0.000 C 
ATOM     18  C   UNL     1      -2.014  13.498  22.812  0.00  0.00    +0.000 C 
ATOM     19  C   UNL     1      -1.392  11.971  22.719  0.00  0.00    +0.000 C 
ENDROOT
BRANCH   2  20
ATOM     20  C   UNL     1       3.695   5.034  17.508  0.00  0.00    +0.000 C 
ATOM     21  N   UNL     1       4.881   4.573  17.760  0.00  0.00    +0.000 NA
BRANCH  21  22
ATOM     22  O   UNL     1       5.159   3.503  16.904  0.00  0.00    +0.000 OA
ATOM     23  H   UNL     1       5.064   3.912  16.023  0.00  0.00    +0.000 HD
ENDBRANCH  21  22
ENDBRANCH   2  20
BRANCH   1  24
ATOM     24  S   UNL     1       2.655   4.699  20.482  0.00  0.00    +0.000 S 
BRANCH  24  25
ATOM     25  C   UNL     1       0.990   3.989  20.199  0.00  0.00    +0.000 C 
BRANCH  25  27
ATOM     26  C   UNL     1       2.090   2.025  19.066  0.00  0.00    +0.000 C 
ATOM     27  C   UNL     1       0.992   3.078  18.971  0.00  0.00    +0.000 C 
ENDBRANCH  25  27
ENDBRANCH  24  25
ENDBRANCH   1  24
TORSDOF 5
ENDMDL
MODEL 7
REMARK VINA RESULT:      -6.6      1.912      2.646
REMARK  Name = 
REMARK  6 active torsions:
REMARK  status: ('A' for Active; 'I' for Inactive)
REMARK    1  A    between atoms: C_1  and  C_2
REMARK    2  A    between atoms: C_2  and  C_3
REMARK    3  A    between atoms: C_3  and  S_4
REMARK    4  A    between atoms: S_4  and  C_5
REMARK    5  A    between atoms: C_6  and  C_7
REMARK    6  A    between atoms: N_8  and  O_9
REMARK                            x       y       z     vdW  Elec       q    Type
REMARK                         _______ _______ _______ _____ _____    ______ ____
ROOT
ATOM      1  C   UNL     1       2.692   5.907  19.836  0.00  0.00    +0.000 C 
ATOM      2  C   UNL     1       3.402   5.666  18.702  0.00  0.00    +0.000 C 
ATOM      3  C   UNL     1       3.693   6.706  17.633  0.00  0.00    +0.000 C 
ATOM      4  C   UNL     1       3.089   8.090  17.806  0.00  0.00    +0.000 C 
ATOM      5  C   UNL     1       2.224   8.226  19.009  0.00  0.00    +0.000 A 
ATOM      6  C   UNL     1       2.061   7.211  19.938  0.00  0.00    +0.000 A 
ATOM      7  S   UNL     1       0.955   7.746  21.168  0.00  0.00    +0.000 S 
ATOM      8  C   UNL     1       0.733   9.298  20.463  0.00  0.00    +0.000 A 
ATOM      9  N   UNL     1      -0.072  10.270  20.982  0.00  0.00    +0.000 NA
ATOM     10  C   UNL     1      -0.112  11.416  20.340  0.00  0.00    +0.000 A 
ATOM     11  N   UNL     1       0.652  11.638  19.151  0.00  0.00    +0.000 N 
ATOM     12  C   UNL     1       1.451  10.640  18.594  0.00  0.00    +0.000 A 
ATOM     13  O   UNL     1       2.103  10.807  17.568  0.00  0.00    +0.000 OA
ATOM     14  C   UNL     1       1.485   9.408  19.323  0.00  0.00    +0.000 A 
ATOM     15  C   UNL     1       0.734  12.906  18.345  0.00  0.00    +0.000 C 
ATOM     16  C   UNL     1      -0.166  13.755  19.087  0.00  0.00    +0.000 C 
ATOM     17  C   UNL     1      -0.963  14.868  19.567  0.00  0.00    +0.000 C 
ATOM     18  C   UNL     1      -1.605  14.090  20.779  0.00  0.00    +0.000 C 
ATOM     19  C   UNL     1      -1.125  12.544  21.106  0.00  0.00    +0.000 C 
ENDROOT
BRANCH   2  20
ATOM     20  C   UNL     1       3.967   4.327  18.329  0.00  0.00    +0.000 C 
ATOM     21  N   UNL     1       3.549   3.657  17.300  0.00  0.00    +0.000 NA
BRANCH  21  22
ATOM     22  O   UNL     1       4.236   2.441  17.223  0.00  0.00    +0.000 OA
ATOM     23  H   UNL     1       5.049   2.692  16.745  0.00  0.00    +0.000 HD
ENDBRANCH  21  22
ENDBRANCH   2  20
BRANCH   1  24
ATOM     24  S   UNL     1       2.487   4.720  21.103  0.00  0.00    +0.000 S 
BRANCH  24  25
ATOM     25  C   UNL     1       0.972   3.859  20.539  0.00  0.00    +0.000 C 
BRANCH  25  27
ATOM     26  C   UNL     1       0.681   2.211  18.655  0.00  0.00    +0.000 C 
ATOM     27  C   UNL     1       1.306   2.458  20.024  0.00  0.00    +0.000 C 
ENDBRANCH  25  27
ENDBRANCH  24  25
ENDBRANCH   1  24
TORSDOF 5
ENDMDL
MODEL 8
REMARK VINA RESULT:      -6.5      3.200      8.686
REMARK  Name = 
REMARK  6 active torsions:
REMARK  status: ('A' for Active; 'I' for Inactive)
REMARK    1  A    between atoms: C_1  and  C_2
REMARK    2  A    between atoms: C_2  and  C_3
REMARK    3  A    between atoms: C_3  and  S_4
REMARK    4  A    between atoms: S_4  and  C_5
REMARK    5  A    between atoms: C_6  and  C_7
REMARK    6  A    between atoms: N_8  and  O_9
REMARK                            x       y       z     vdW  Elec       q    Type
REMARK                         _______ _______ _______ _____ _____    ______ ____
ROOT
ATOM      1  C   UNL     1       0.313  10.819  20.286  0.00  0.00    +0.000 C 
ATOM      2  C   UNL     1      -0.343  10.357  21.384  0.00  0.00    +0.000 C 
ATOM      3  C   UNL     1      -0.132   8.982  21.995  0.00  0.00    +0.000 C 
ATOM      4  C   UNL     1       0.822   8.032  21.291  0.00  0.00    +0.000 C 
ATOM      5  C   UNL     1       1.396   8.574  20.030  0.00  0.00    +0.000 A 
ATOM      6  C   UNL     1       1.157   9.866  19.589  0.00  0.00    +0.000 A 
ATOM      7  S   UNL     1       1.973  10.101  18.072  0.00  0.00    +0.000 S 
ATOM      8  C   UNL     1       2.633   8.515  18.042  0.00  0.00    +0.000 A 
ATOM      9  N   UNL     1       3.432   8.034  17.046  0.00  0.00    +0.000 NA
ATOM     10  C   UNL     1       3.882   6.807  17.184  0.00  0.00    +0.000 A 
ATOM     11  N   UNL     1       3.553   6.010  18.326  0.00  0.00    +0.000 N 
ATOM     12  C   UNL     1       2.710   6.480  19.331  0.00  0.00    +0.000 A 
ATOM     13  O   UNL     1       2.405   5.807  20.311  0.00  0.00    +0.000 OA
ATOM     14  C   UNL     1       2.246   7.824  19.160  0.00  0.00    +0.000 A 
ATOM     15  C   UNL     1       4.030   4.616  18.630  0.00  0.00    +0.000 C 
ATOM     16  C   UNL     1       4.844   4.350  17.470  0.00  0.00    +0.000 C 
ATOM     17  C   UNL     1       5.726   3.748  16.487  0.00  0.00    +0.000 C 
ATOM     18  C   UNL     1       5.693   4.964  15.482  0.00  0.00    +0.000 C 
ATOM     19  C   UNL     1       4.885   6.344  15.893  0.00  0.00    +0.000 C 
ENDROOT
BRANCH   2  20
ATOM     20  C   UNL     1      -1.395  11.128  22.125  0.00  0.00    +0.000 C 
ATOM     21  N   UNL     1      -1.115  11.895  23.133  0.00  0.00    +0.000 NA
BRANCH  21  22
ATOM     22  O   UNL     1      -2.294  12.456  23.635  0.00  0.00    +0.000 OA
ATOM     23  H   UNL     1      -2.024  13.376  23.817  0.00  0.00    +0.000 HD
ENDBRANCH  21  22
ENDBRANCH   2  20
BRANCH   1  24
ATOM     24  S   UNL     1       0.138  12.453  19.689  0.00  0.00    +0.000 S 
BRANCH  24  25
ATOM     25  C   UNL     1       1.688  13.220  20.294  0.00  0.00    +0.000 C 
BRANCH  25  27
ATOM     26  C   UNL     1       3.597  14.720  19.623  0.00  0.00    +0.000 C 
ATOM     27  C   UNL     1       2.507  13.777  19.130  0.00  0.00    +0.000 C 
ENDBRANCH  25  27
ENDBRANCH  24  25
ENDBRANCH   1  24
TORSDOF 5
ENDMDL
MODEL 9
REMARK VINA RESULT:      -6.4      3.156      8.697
REMARK  Name = 
REMARK  6 active torsions:
REMARK  status: ('A' for Active; 'I' for Inactive)
REMARK    1  A    between atoms: C_1  and  C_2
REMARK    2  A    between atoms: C_2  and  C_3
REMARK    3  A    between atoms: C_3  and  S_4
REMARK    4  A    between atoms: S_4  and  C_5
REMARK    5  A    between atoms: C_6  and  C_7
REMARK    6  A    between atoms: N_8  and  O_9
REMARK                            x       y       z     vdW  Elec       q    Type
REMARK                         _______ _______ _______ _____ _____    ______ ____
ROOT
ATOM      1  C   UNL     1       0.364  10.651  20.266  0.00  0.00    +0.000 C 
ATOM      2  C   UNL     1      -0.271  10.165  21.366  0.00  0.00    +0.000 C 
ATOM      3  C   UNL     1      -0.028   8.789  21.960  0.00  0.00    +0.000 C 
ATOM      4  C   UNL     1       0.937   7.864  21.236  0.00  0.00    +0.000 C 
ATOM      5  C   UNL     1       1.486   8.430  19.975  0.00  0.00    +0.000 A 
ATOM      6  C   UNL     1       1.217   9.721  19.549  0.00  0.00    +0.000 A 
ATOM      7  S   UNL     1       2.012   9.988  18.026  0.00  0.00    +0.000 S 
ATOM      8  C   UNL     1       2.701   8.414  17.973  0.00  0.00    +0.000 A 
ATOM      9  N   UNL     1       3.498   7.959  16.963  0.00  0.00    +0.000 NA
ATOM     10  C   UNL     1       3.973   6.739  17.083  0.00  0.00    +0.000 A 
ATOM     11  N   UNL     1       3.671   5.924  18.220  0.00  0.00    +0.000 N 
ATOM     12  C   UNL     1       2.832   6.369  19.240  0.00  0.00    +0.000 A 
ATOM     13  O   UNL     1       2.550   5.680  20.216  0.00  0.00    +0.000 OA
ATOM     14  C   UNL     1       2.340   7.705  19.087  0.00  0.00    +0.000 A 
ATOM     15  C   UNL     1       4.178   4.537  18.505  0.00  0.00    +0.000 C 
ATOM     16  C   UNL     1       4.984   4.298  17.333  0.00  0.00    +0.000 C 
ATOM     17  C   UNL     1       5.867   3.723  16.335  0.00  0.00    +0.000 C 
ATOM     18  C   UNL     1       5.800   4.948  15.343  0.00  0.00    +0.000 C 
ATOM     19  C   UNL     1       4.970   6.308  15.776  0.00  0.00    +0.000 C 
ENDROOT
BRANCH   2  20
ATOM     20  C   UNL     1      -1.330  10.909  22.126  0.00  0.00    +0.000 C 
ATOM     21  N   UNL     1      -1.079  11.537  23.233  0.00  0.00    +0.000 NA
BRANCH  21  22
ATOM     22  O   UNL     1      -2.258  12.107  23.724  0.00  0.00    +0.000 OA
ATOM     23  H   UNL     1      -1.930  12.912  24.168  0.00  0.00    +0.000 HD
ENDBRANCH  21  22
ENDBRANCH   2  20
BRANCH   1  24
ATOM     24  S   UNL     1       0.151  12.288  19.687  0.00  0.00    +0.000 S 
BRANCH  24  25
ATOM     25  C   UNL     1       1.450  13.169  20.632  0.00  0.00    +0.000 C 
BRANCH  25  27
ATOM     26  C   UNL     1      -0.608  14.530  21.147  0.00  0.00    +0.000 C 
ATOM     27  C   UNL     1       0.829  14.221  21.552  0.00  0.00    +0.000 C 
ENDBRANCH  25  27
ENDBRANCH  24  25
ENDBRANCH   1  24
TORSDOF 5
ENDMDL
