MODEL 1
REMARK VINA RESULT:      -7.7      0.000      0.000
REMARK  Name = 
REMARK  4 active torsions:
REMARK  status: ('A' for Active; 'I' for Inactive)
REMARK    1  A    between atoms: C_1  and  N_2
REMARK    2  A    between atoms: C_8  and  C_10
REMARK    3  A    between atoms: C_13  and  C_14
REMARK    4  A    between atoms: N_21  and  C_22
REMARK                            x       y       z     vdW  Elec       q    Type
REMARK                         _______ _______ _______ _____ _____    ______ ____
ROOT
ATOM      1  C   UNL     1       2.711   6.117  19.181  0.00  0.00    +0.000 A 
ATOM      2  C   UNL     1       2.271   5.443  20.311  0.00  0.00    +0.000 A 
ATOM      3  C   UNL     1       1.520   6.339  21.100  0.00  0.00    +0.000 A 
ATOM      4  C   UNL     1       1.487   7.576  20.470  0.00  0.00    +0.000 A 
ATOM      5  N   UNL     1       2.187   7.413  19.276  0.00  0.00    +0.000 N 
ATOM      6  C   UNL     1       2.341   8.396  18.218  0.00  0.00    +0.000 C 
ENDROOT
BRANCH   1  14
ATOM      7  C   UNL     1       7.565   7.350  17.438  0.00  0.00    +0.000 C 
ATOM      8  N   UNL     1       6.917   6.246  16.781  0.00  0.00    +0.000 N 
ATOM      9  N   UNL     1       7.570   5.595  15.796  0.00  0.00    +0.000 NA
ATOM     10  C   UNL     1       6.668   4.681  15.446  0.00  0.00    +0.000 A 
ATOM     11  N   UNL     1       5.503   4.725  16.145  0.00  0.00    +0.000 NA
ATOM     12  C   UNL     1       5.663   5.718  16.988  0.00  0.00    +0.000 A 
ATOM     13  N   UNL     1       4.770   6.169  17.942  0.00  0.00    +0.000 N 
ATOM     14  C   UNL     1       3.499   5.622  18.045  0.00  0.00    +0.000 C 
ATOM     15  O   UNL     1       3.032   4.809  17.256  0.00  0.00    +0.000 OA
ATOM     16  H   UNL     1       5.031   6.922  18.556  0.00  0.00    +0.000 HD
ENDBRANCH   1  14
BRANCH   4  17
ATOM     17  C   UNL     1       0.766   8.787  20.921  0.00  0.00    +0.000 A 
ATOM     18  C   UNL     1       0.620   9.041  22.297  0.00  0.00    +0.000 A 
ATOM     19  C   UNL     1      -0.103  10.146  22.761  0.00  0.00    +0.000 A 
ATOM     20  C   UNL     1      -0.709  11.011  21.855  0.00  0.00    +0.000 A 
ATOM     21  C   UNL     1      -0.544  10.791  20.490  0.00  0.00    +0.000 A 
ATOM     22 BR   UNL     1      -1.394  11.941  19.250  0.00  0.00    +0.000 Br
ATOM     23  C   UNL     1       0.219   9.714  20.025  0.00  0.00    +0.000 A 
ENDBRANCH   4  17
TORSDOF 2
ENDMDL
MODEL 2
REMARK VINA RESULT:      -7.6      1.029      1.165
REMARK  Name = 
REMARK  4 active torsions:
REMARK  status: ('A' for Active; 'I' for Inactive)
REMARK    1  A    between atoms: C_1  and  N_2
REMARK    2  A    between atoms: C_8  and  C_10
REMARK    3  A    between atoms: C_13  and  C_14
REMARK    4  A    between atoms: N_21  and  C_22
REMARK                            x       y       z     vdW  Elec       q    Type
REMARK                         _______ _______ _______ _____ _____    ______ ____
ROOT
ATOM      1  C   UNL     1       2.515   6.802  19.192  0.00  0.00    +0.000 A 
ATOM      2  C   UNL     1       2.068   6.462  20.460  0.00  0.00    +0.000 A 
ATOM      3  C   UNL     1       1.306   7.537  20.967  0.00  0.00    +0.000 A 
ATOM      4  C   UNL     1       1.275   8.552  20.021  0.00  0.00    +0.000 A 
ATOM      5  N   UNL     1       1.985   8.071  18.923  0.00  0.00    +0.000 N 
ATOM      6  C   UNL     1       2.145   8.726  17.636  0.00  0.00    +0.000 C 
ENDROOT
BRANCH   1  14
ATOM      7  C   UNL     1       7.538   7.275  17.561  0.00  0.00    +0.000 C 
ATOM      8  N   UNL     1       6.833   6.106  17.109  0.00  0.00    +0.000 N 
ATOM      9  N   UNL     1       7.477   5.212  16.330  0.00  0.00    +0.000 NA
ATOM     10  C   UNL     1       6.520   4.312  16.121  0.00  0.00    +0.000 A 
ATOM     11  N   UNL     1       5.328   4.590  16.714  0.00  0.00    +0.000 NA
ATOM     12  C   UNL     1       5.529   5.727  17.337  0.00  0.00    +0.000 A 
ATOM     13  N   UNL     1       4.631   6.436  18.113  0.00  0.00    +0.000 N 
ATOM     14  C   UNL     1       3.314   6.017  18.242  0.00  0.00    +0.000 C 
ATOM     15  O   UNL     1       2.821   5.090  17.612  0.00  0.00    +0.000 OA
ATOM     16  H   UNL     1       4.924   7.283  18.569  0.00  0.00    +0.000 HD
ENDBRANCH   1  14
BRANCH   4  17
ATOM     17  C   UNL     1       0.546   9.836  20.116  0.00  0.00    +0.000 A 
ATOM     18  C   UNL     1       0.963  10.809  21.042  0.00  0.00    +0.000 A 
ATOM     19  C   UNL     1       0.265  12.012  21.199  0.00  0.00    +0.000 A 
ATOM     20  C   UNL     1      -0.876  12.258  20.442  0.00  0.00    +0.000 A 
ATOM     21  C   UNL     1      -1.281  11.319  19.496  0.00  0.00    +0.000 A 
ATOM     22 BR   UNL     1      -2.851  11.628  18.487  0.00  0.00    +0.000 Br
ATOM     23  C   UNL     1      -0.556  10.138  19.305  0.00  0.00    +0.000 A 
ENDBRANCH   4  17
TORSDOF 2
ENDMDL
MODEL 3
REMARK VINA RESULT:      -7.6      2.734      3.925
REMARK  Name = 
REMARK  4 active torsions:
REMARK  status: ('A' for Active; 'I' for Inactive)
REMARK    1  A    between atoms: C_1  and  N_2
REMARK    2  A    between atoms: C_8  and  C_10
REMARK    3  A    between atoms: C_13  and  C_14
REMARK    4  A    between atoms: N_21  and  C_22
REMARK                            x       y       z     vdW  Elec       q    Type
REMARK                         _______ _______ _______ _____ _____    ______ ____
ROOT
ATOM      1  C   UNL     1       2.035   7.420  19.878  0.00  0.00    +0.000 A 
ATOM      2  C   UNL     1       1.375   7.618  21.082  0.00  0.00    +0.000 A 
ATOM      3  C   UNL     1       0.740   8.878  21.039  0.00  0.00    +0.000 A 
ATOM      4  C   UNL     1       0.999   9.472  19.812  0.00  0.00    +0.000 A 
ATOM      5  N   UNL     1       1.759   8.550  19.096  0.00  0.00    +0.000 N 
ATOM      6  C   UNL     1       2.191   8.665  17.713  0.00  0.00    +0.000 C 
ENDROOT
BRANCH   1  14
ATOM      7  C   UNL     1       0.632   2.422  18.798  0.00  0.00    +0.000 C 
ATOM      8  N   UNL     1       1.987   2.783  18.477  0.00  0.00    +0.000 N 
ATOM      9  N   UNL     1       2.797   1.859  17.921  0.00  0.00    +0.000 NA
ATOM     10  C   UNL     1       3.928   2.549  17.790  0.00  0.00    +0.000 A 
ATOM     11  N   UNL     1       3.872   3.834  18.231  0.00  0.00    +0.000 NA
ATOM     12  C   UNL     1       2.643   3.978  18.667  0.00  0.00    +0.000 A 
ATOM     13  N   UNL     1       2.064   5.114  19.202  0.00  0.00    +0.000 N 
ATOM     14  C   UNL     1       2.813   6.262  19.418  0.00  0.00    +0.000 C 
ATOM     15  O   UNL     1       4.027   6.331  19.271  0.00  0.00    +0.000 OA
ATOM     16  H   UNL     1       1.093   5.103  19.467  0.00  0.00    +0.000 HD
ENDBRANCH   1  14
BRANCH   4  17
ATOM     17  C   UNL     1       0.483  10.770  19.324  0.00  0.00    +0.000 A 
ATOM     18  C   UNL     1      -0.813  10.848  18.783  0.00  0.00    +0.000 A 
ATOM     19  C   UNL     1      -1.314  12.046  18.261  0.00  0.00    +0.000 A 
ATOM     20  C   UNL     1      -0.518  13.188  18.255  0.00  0.00    +0.000 A 
ATOM     21  C   UNL     1       0.754  13.134  18.818  0.00  0.00    +0.000 A 
ATOM     22 BR   UNL     1       1.856  14.672  18.782  0.00  0.00    +0.000 Br
ATOM     23  C   UNL     1       1.237  11.950  19.383  0.00  0.00    +0.000 A 
ENDBRANCH   4  17
TORSDOF 2
ENDMDL
MODEL 4
REMARK VINA RESULT:      -7.6      4.157      8.195
REMARK  Name = 
REMARK  4 active torsions:
REMARK  status: ('A' for Active; 'I' for Inactive)
REMARK    1  A    between atoms: C_1  and  N_2
REMARK    2  A    between atoms: C_8  and  C_10
REMARK    3  A    between atoms: C_13  and  C_14
REMARK    4  A    between atoms: N_21  and  C_22
REMARK                            x       y       z     vdW  Elec       q    Type
REMARK                         _______ _______ _______ _____ _____    ______ ____
ROOT
ATOM      1  C   UNL     1       1.397   9.485  19.120  0.00  0.00    +0.000 A 
ATOM      2  C   UNL     1       1.900   9.475  17.827  0.00  0.00    +0.000 A 
ATOM      3  C   UNL     1       2.543   8.238  17.610  0.00  0.00    +0.000 A 
ATOM      4  C   UNL     1       2.446   7.471  18.762  0.00  0.00    +0.000 A 
ATOM      5  N   UNL     1       1.706   8.231  19.664  0.00  0.00    +0.000 N 
ATOM      6  C   UNL     1       1.246   7.818  20.979  0.00  0.00    +0.000 C 
ENDROOT
BRANCH   1  14
ATOM      7  C   UNL     1      -3.399  11.542  18.183  0.00  0.00    +0.000 C 
ATOM      8  N   UNL     1      -2.757  11.962  19.399  0.00  0.00    +0.000 N 
ATOM      9  N   UNL     1      -3.400  12.820  20.218  0.00  0.00    +0.000 NA
ATOM     10  C   UNL     1      -2.506  12.969  21.193  0.00  0.00    +0.000 A 
ATOM     11  N   UNL     1      -1.355  12.265  21.031  0.00  0.00    +0.000 NA
ATOM     12  C   UNL     1      -1.515  11.630  19.893  0.00  0.00    +0.000 A 
ATOM     13  N   UNL     1      -0.635  10.758  19.280  0.00  0.00    +0.000 N 
ATOM     14  C   UNL     1       0.624  10.524  19.813  0.00  0.00    +0.000 C 
ATOM     15  O   UNL     1       1.094  11.133  20.767  0.00  0.00    +0.000 OA
ATOM     16  H   UNL     1      -0.896  10.306  18.420  0.00  0.00    +0.000 HD
ENDBRANCH   1  14
BRANCH   4  17
ATOM     17  C   UNL     1       2.935   6.087  18.956  0.00  0.00    +0.000 A 
ATOM     18  C   UNL     1       4.308   5.852  19.147  0.00  0.00    +0.000 A 
ATOM     19  C   UNL     1       4.814   4.553  19.279  0.00  0.00    +0.000 A 
ATOM     20  C   UNL     1       3.954   3.462  19.202  0.00  0.00    +0.000 A 
ATOM     21  C   UNL     1       2.588   3.681  19.047  0.00  0.00    +0.000 A 
ATOM     22 BR   UNL     1       1.415   2.203  18.907  0.00  0.00    +0.000 Br
ATOM     23  C   UNL     1       2.076   4.980  18.965  0.00  0.00    +0.000 A 
ENDBRANCH   4  17
TORSDOF 2
ENDMDL
MODEL 5
REMARK VINA RESULT:      -7.5      4.151      8.438
REMARK  Name = 
REMARK  4 active torsions:
REMARK  status: ('A' for Active; 'I' for Inactive)
REMARK    1  A    between atoms: C_1  and  N_2
REMARK    2  A    between atoms: C_8  and  C_10
REMARK    3  A    between atoms: C_13  and  C_14
REMARK    4  A    between atoms: N_21  and  C_22
REMARK                            x       y       z     vdW  Elec       q    Type
REMARK                         _______ _______ _______ _____ _____    ______ ____
ROOT
ATOM      1  C   UNL     1       1.305   9.502  19.633  0.00  0.00    +0.000 A 
ATOM      2  C   UNL     1       1.492   9.928  18.326  0.00  0.00    +0.000 A 
ATOM      3  C   UNL     1       2.104   8.883  17.601  0.00  0.00    +0.000 A 
ATOM      4  C   UNL     1       2.304   7.803  18.449  0.00  0.00    +0.000 A 
ATOM      5  N   UNL     1       1.772   8.181  19.680  0.00  0.00    +0.000 N 
ATOM      6  C   UNL     1       1.645   7.351  20.865  0.00  0.00    +0.000 C 
ENDROOT
BRANCH   1  14
ATOM      7  C   UNL     1      -3.020  12.552  19.958  0.00  0.00    +0.000 C 
ATOM      8  N   UNL     1      -2.380  12.226  21.204  0.00  0.00    +0.000 N 
ATOM      9  N   UNL     1      -2.910  12.689  22.355  0.00  0.00    +0.000 NA
ATOM     10  C   UNL     1      -2.056  12.201  23.251  0.00  0.00    +0.000 A 
ATOM     11  N   UNL     1      -1.033  11.471  22.732  0.00  0.00    +0.000 NA
ATOM     12  C   UNL     1      -1.240  11.490  21.437  0.00  0.00    +0.000 A 
ATOM     13  N   UNL     1      -0.489  10.876  20.452  0.00  0.00    +0.000 N 
ATOM     14  C   UNL     1       0.684  10.203  20.764  0.00  0.00    +0.000 C 
ATOM     15  O   UNL     1       1.199  10.196  21.876  0.00  0.00    +0.000 OA
ATOM     16  H   UNL     1      -0.778  10.939  19.490  0.00  0.00    +0.000 HD
ENDBRANCH   1  14
BRANCH   4  17
ATOM     17  C   UNL     1       2.867   6.481  18.092  0.00  0.00    +0.000 A 
ATOM     18  C   UNL     1       2.016   5.367  17.982  0.00  0.00    +0.000 A 
ATOM     19  C   UNL     1       2.519   4.091  17.700  0.00  0.00    +0.000 A 
ATOM     20  C   UNL     1       3.888   3.904  17.540  0.00  0.00    +0.000 A 
ATOM     21  C   UNL     1       4.739   5.004  17.611  0.00  0.00    +0.000 A 
ATOM     22 BR   UNL     1       6.606   4.754  17.430  0.00  0.00    +0.000 Br
ATOM     23  C   UNL     1       4.232   6.287  17.845  0.00  0.00    +0.000 A 
ENDBRANCH   4  17
TORSDOF 2
ENDMDL
MODEL 6
REMARK VINA RESULT:      -7.5      1.394      1.760
REMARK  Name = 
REMARK  4 active torsions:
REMARK  status: ('A' for Active; 'I' for Inactive)
REMARK    1  A    between atoms: C_1  and  N_2
REMARK    2  A    between atoms: C_8  and  C_10
REMARK    3  A    between atoms: C_13  and  C_14
REMARK    4  A    between atoms: N_21  and  C_22
REMARK                            x       y       z     vdW  Elec       q    Type
REMARK                         _______ _______ _______ _____ _____    ______ ____
ROOT
ATOM      1  C   UNL     1       2.448   7.007  19.225  0.00  0.00    +0.000 A 
ATOM      2  C   UNL     1       2.015   6.726  20.512  0.00  0.00    +0.000 A 
ATOM      3  C   UNL     1       1.277   7.831  20.985  0.00  0.00    +0.000 A 
ATOM      4  C   UNL     1       1.247   8.808  19.999  0.00  0.00    +0.000 A 
ATOM      5  N   UNL     1       1.933   8.273  18.912  0.00  0.00    +0.000 N 
ATOM      6  C   UNL     1       2.084   8.872  17.597  0.00  0.00    +0.000 C 
ENDROOT
BRANCH   1  14
ATOM      7  C   UNL     1       7.471   7.301  17.551  0.00  0.00    +0.000 C 
ATOM      8  N   UNL     1       6.734   6.136  17.141  0.00  0.00    +0.000 N 
ATOM      9  N   UNL     1       7.350   5.202  16.388  0.00  0.00    +0.000 NA
ATOM     10  C   UNL     1       6.369   4.320  16.212  0.00  0.00    +0.000 A 
ATOM     11  N   UNL     1       5.189   4.646  16.803  0.00  0.00    +0.000 NA
ATOM     12  C   UNL     1       5.422   5.797  17.388  0.00  0.00    +0.000 A 
ATOM     13  N   UNL     1       4.547   6.553  18.146  0.00  0.00    +0.000 N 
ATOM     14  C   UNL     1       3.222   6.173  18.296  0.00  0.00    +0.000 C 
ATOM     15  O   UNL     1       2.701   5.238  17.699  0.00  0.00    +0.000 OA
ATOM     16  H   UNL     1       4.864   7.407  18.573  0.00  0.00    +0.000 HD
ENDBRANCH   1  14
BRANCH   4  17
ATOM     17  C   UNL     1       0.538  10.106  20.053  0.00  0.00    +0.000 A 
ATOM     18  C   UNL     1      -0.761  10.215  19.525  0.00  0.00    +0.000 A 
ATOM     19  C   UNL     1      -1.441  11.438  19.508  0.00  0.00    +0.000 A 
ATOM     20  C   UNL     1      -0.824  12.583  20.004  0.00  0.00    +0.000 A 
ATOM     21  C   UNL     1       0.448  12.484  20.560  0.00  0.00    +0.000 A 
ATOM     22 BR   UNL     1       1.310  14.041  21.204  0.00  0.00    +0.000 Br
ATOM     23  C   UNL     1       1.109  11.252  20.622  0.00  0.00    +0.000 A 
ENDBRANCH   4  17
TORSDOF 2
ENDMDL
MODEL 7
REMARK VINA RESULT:      -7.5      4.142      8.517
REMARK  Name = 
REMARK  4 active torsions:
REMARK  status: ('A' for Active; 'I' for Inactive)
REMARK    1  A    between atoms: C_1  and  N_2
REMARK    2  A    between atoms: C_8  and  C_10
REMARK    3  A    between atoms: C_13  and  C_14
REMARK    4  A    between atoms: N_21  and  C_22
REMARK                            x       y       z     vdW  Elec       q    Type
REMARK                         _______ _______ _______ _____ _____    ______ ____
ROOT
ATOM      1  C   UNL     1       1.126   9.775  19.743  0.00  0.00    +0.000 A 
ATOM      2  C   UNL     1       1.313  10.253  18.454  0.00  0.00    +0.000 A 
ATOM      3  C   UNL     1       1.975   9.260  17.702  0.00  0.00    +0.000 A 
ATOM      4  C   UNL     1       2.206   8.159  18.514  0.00  0.00    +0.000 A 
ATOM      5  N   UNL     1       1.645   8.473  19.750  0.00  0.00    +0.000 N 
ATOM      6  C   UNL     1       1.536   7.597  20.904  0.00  0.00    +0.000 C 
ENDROOT
BRANCH   1  14
ATOM      7  C   UNL     1      -3.292  12.682  20.106  0.00  0.00    +0.000 C 
ATOM      8  N   UNL     1      -2.665  12.325  21.351  0.00  0.00    +0.000 N 
ATOM      9  N   UNL     1      -3.230  12.726  22.508  0.00  0.00    +0.000 NA
ATOM     10  C   UNL     1      -2.378  12.226  23.400  0.00  0.00    +0.000 A 
ATOM     11  N   UNL     1      -1.325  11.548  22.873  0.00  0.00    +0.000 NA
ATOM     12  C   UNL     1      -1.508  11.614  21.575  0.00  0.00    +0.000 A 
ATOM     13  N   UNL     1      -0.722  11.062  20.581  0.00  0.00    +0.000 N 
ATOM     14  C   UNL     1       0.465  10.412  20.889  0.00  0.00    +0.000 C 
ATOM     15  O   UNL     1       0.960  10.374  22.009  0.00  0.00    +0.000 OA
ATOM     16  H   UNL     1      -0.995  11.155  19.617  0.00  0.00    +0.000 HD
ENDBRANCH   1  14
BRANCH   4  17
ATOM     17  C   UNL     1       2.825   6.874  18.119  0.00  0.00    +0.000 A 
ATOM     18  C   UNL     1       4.063   6.871  17.451  0.00  0.00    +0.000 A 
ATOM     19  C   UNL     1       4.652   5.679  17.013  0.00  0.00    +0.000 A 
ATOM     20  C   UNL     1       4.003   4.466  17.221  0.00  0.00    +0.000 A 
ATOM     21  C   UNL     1       2.794   4.450  17.911  0.00  0.00    +0.000 A 
ATOM     22 BR   UNL     1       1.887   2.809  18.167  0.00  0.00    +0.000 Br
ATOM     23  C   UNL     1       2.228   5.636  18.392  0.00  0.00    +0.000 A 
ENDBRANCH   4  17
TORSDOF 2
ENDMDL
MODEL 8
REMARK VINA RESULT:      -7.4      4.037      8.183
REMARK  Name = 
REMARK  4 active torsions:
REMARK  status: ('A' for Active; 'I' for Inactive)
REMARK    1  A    between atoms: C_1  and  N_2
REMARK    2  A    between atoms: C_8  and  C_10
REMARK    3  A    between atoms: C_13  and  C_14
REMARK    4  A    between atoms: N_21  and  C_22
REMARK                            x       y       z     vdW  Elec       q    Type
REMARK                         _______ _______ _______ _____ _____    ______ ____
ROOT
ATOM      1  C   UNL     1       1.306   8.968  19.554  0.00  0.00    +0.000 A 
ATOM      2  C   UNL     1       1.577   9.481  18.294  0.00  0.00    +0.000 A 
ATOM      3  C   UNL     1       2.356   8.540  17.588  0.00  0.00    +0.000 A 
ATOM      4  C   UNL     1       2.577   7.437  18.401  0.00  0.00    +0.000 A 
ATOM      5  N   UNL     1       1.894   7.696  19.587  0.00  0.00    +0.000 N 
ATOM      6  C   UNL     1       1.735   6.793  20.715  0.00  0.00    +0.000 C 
ENDROOT
BRANCH   1  14
ATOM      7  C   UNL     1       0.857  13.934  21.355  0.00  0.00    +0.000 C 
ATOM      8  N   UNL     1      -0.037  12.967  21.934  0.00  0.00    +0.000 N 
ATOM      9  N   UNL     1      -0.925  13.371  22.866  0.00  0.00    +0.000 NA
ATOM     10  C   UNL     1      -1.539  12.226  23.154  0.00  0.00    +0.000 A 
ATOM     11  N   UNL     1      -1.089  11.142  22.467  0.00  0.00    +0.000 NA
ATOM     12  C   UNL     1      -0.137  11.615  21.697  0.00  0.00    +0.000 A 
ATOM     13  N   UNL     1       0.633  10.921  20.782  0.00  0.00    +0.000 N 
ATOM     14  C   UNL     1       0.513   9.545  20.647  0.00  0.00    +0.000 C 
ATOM     15  O   UNL     1      -0.170   8.837  21.378  0.00  0.00    +0.000 OA
ATOM     16  H   UNL     1       1.311  11.412  20.224  0.00  0.00    +0.000 HD
ENDBRANCH   1  14
BRANCH   4  17
ATOM     17  C   UNL     1       3.299   6.195  18.043  0.00  0.00    +0.000 A 
ATOM     18  C   UNL     1       2.576   5.013  17.801  0.00  0.00    +0.000 A 
ATOM     19  C   UNL     1       3.227   3.808  17.514  0.00  0.00    +0.000 A 
ATOM     20  C   UNL     1       4.617   3.759  17.481  0.00  0.00    +0.000 A 
ATOM     21  C   UNL     1       5.344   4.928  17.684  0.00  0.00    +0.000 A 
ATOM     22 BR   UNL     1       7.235   4.865  17.676  0.00  0.00    +0.000 Br
ATOM     23  C   UNL     1       4.693   6.144  17.923  0.00  0.00    +0.000 A 
ENDBRANCH   4  17
TORSDOF 2
ENDMDL
MODEL 9
REMARK VINA RESULT:      -7.3      2.803      3.836
REMARK  Name = 
REMARK  4 active torsions:
REMARK  status: ('A' for Active; 'I' for Inactive)
REMARK    1  A    between atoms: C_1  and  N_2
REMARK    2  A    between atoms: C_8  and  C_10
REMARK    3  A    between atoms: C_13  and  C_14
REMARK    4  A    between atoms: N_21  and  C_22
REMARK                            x       y       z     vdW  Elec       q    Type
REMARK                         _______ _______ _______ _____ _____    ______ ____
ROOT
ATOM      1  C   UNL     1       2.521   7.450  18.771  0.00  0.00    +0.000 A 
ATOM      2  C   UNL     1       2.651   8.229  17.631  0.00  0.00    +0.000 A 
ATOM      3  C   UNL     1       1.873   9.394  17.796  0.00  0.00    +0.000 A 
ATOM      4  C   UNL     1       1.253   9.349  19.037  0.00  0.00    +0.000 A 
ATOM      5  N   UNL     1       1.692   8.172  19.640  0.00  0.00    +0.000 N 
ATOM      6  C   UNL     1       1.405   7.729  20.993  0.00  0.00    +0.000 C 
ENDROOT
BRANCH   1  14
ATOM      7  C   UNL     1       0.666   2.483  18.707  0.00  0.00    +0.000 C 
ATOM      8  N   UNL     1       2.073   2.631  18.971  0.00  0.00    +0.000 N 
ATOM      9  N   UNL     1       2.822   1.526  19.166  0.00  0.00    +0.000 NA
ATOM     10  C   UNL     1       4.022   2.061  19.384  0.00  0.00    +0.000 A 
ATOM     11  N   UNL     1       4.063   3.419  19.340  0.00  0.00    +0.000 NA
ATOM     12  C   UNL     1       2.827   3.777  19.080  0.00  0.00    +0.000 A 
ATOM     13  N   UNL     1       2.336   5.058  18.913  0.00  0.00    +0.000 N 
ATOM     14  C   UNL     1       3.151   6.165  19.102  0.00  0.00    +0.000 C 
ATOM     15  O   UNL     1       4.298   6.112  19.531  0.00  0.00    +0.000 OA
ATOM     16  H   UNL     1       1.367   5.196  18.679  0.00  0.00    +0.000 HD
ENDBRANCH   1  14
BRANCH   4  17
ATOM     17  C   UNL     1       0.390  10.390  19.641  0.00  0.00    +0.000 A 
ATOM     18  C   UNL     1       0.824  11.077  20.789  0.00  0.00    +0.000 A 
ATOM     19  C   UNL     1       0.012  12.027  21.419  0.00  0.00    +0.000 A 
ATOM     20  C   UNL     1      -1.259  12.296  20.920  0.00  0.00    +0.000 A 
ATOM     21  C   UNL     1      -1.688  11.649  19.765  0.00  0.00    +0.000 A 
ATOM     22 BR   UNL     1      -3.428  11.980  19.100  0.00  0.00    +0.000 Br
ATOM     23  C   UNL     1      -0.858  10.734  19.107  0.00  0.00    +0.000 A 
ENDBRANCH   4  17
TORSDOF 2
ENDMDL
