MODEL 1
REMARK VINA RESULT:      -7.9      0.000      0.000
REMARK  Name = 
REMARK  4 active torsions:
REMARK  status: ('A' for Active; 'I' for Inactive)
REMARK    1  A    between atoms: C_1  and  N_2
REMARK    2  A    between atoms: C_4  and  C_5
REMARK    3  A    between atoms: C_5  and  N_6
REMARK    4  A    between atoms: C_16  and  C_18
REMARK                            x       y       z     vdW  Elec       q    Type
REMARK                         _______ _______ _______ _____ _____    ______ ____
ROOT
ATOM      1  C   UNL     1       7.440   6.066  18.989  0.00  0.00    +0.000 C 
ATOM      2  N   UNL     1       6.617   5.107  18.290  0.00  0.00    +0.000 N 
ATOM      3  N   UNL     1       5.582   4.497  18.932  0.00  0.00    +0.000 NA
ATOM      4  C   UNL     1       5.016   3.710  17.991  0.00  0.00    +0.000 A 
ATOM      5  C   UNL     1       5.709   3.825  16.789  0.00  0.00    +0.000 A 
ATOM      6  C   UNL     1       6.715   4.719  17.007  0.00  0.00    +0.000 A 
ATOM      7  C   UNL     1       7.522   5.008  15.821  0.00  0.00    +0.000 C 
ATOM      8  N   UNL     1       6.749   4.217  14.813  0.00  0.00    +0.000 N 
ATOM      9  C   UNL     1       6.860   4.512  13.463  0.00  0.00    +0.000 C 
ATOM     10  O   UNL     1       7.555   5.429  13.033  0.00  0.00    +0.000 OA
ATOM     11  C   UNL     1       5.697   3.342  15.422  0.00  0.00    +0.000 C 
ENDROOT
BRANCH   9  12
ATOM     12  C   UNL     1       6.075   3.698  12.493  0.00  0.00    +0.000 A 
ATOM     13  C   UNL     1       4.882   4.209  11.966  0.00  0.00    +0.000 A 
ATOM     14  C   UNL     1       4.092   3.419  11.124  0.00  0.00    +0.000 A 
ATOM     15  C   UNL     1       4.485   2.114  10.821  0.00  0.00    +0.000 A 
ATOM     16  C   UNL     1       5.692   1.625  11.313  0.00  0.00    +0.000 A 
ATOM     17 CL   UNL     1       6.172   0.008  10.974  0.00  0.00    +0.000 Cl
ATOM     18  C   UNL     1       6.508   2.426  12.105  0.00  0.00    +0.000 A 
ENDBRANCH   9  12
BRANCH   4  19
ATOM     19  C   UNL     1       3.783   2.890  18.260  0.00  0.00    +0.000 C 
BRANCH  19  20
ATOM     20  N   UNL     1       3.038   3.365  19.453  0.00  0.00    +0.000 NA
ATOM     21  C   UNL     1       1.595   3.451  19.164  0.00  0.00    +0.000 C 
ATOM     22  C   UNL     1       0.799   3.903  20.392  0.00  0.00    +0.000 C 
ATOM     23  C   UNL     1       1.038   2.979  21.578  0.00  0.00    +0.000 C 
ATOM     24  C   UNL     1       2.532   2.839  21.840  0.00  0.00    +0.000 C 
ATOM     25  C   UNL     1       3.283   2.432  20.570  0.00  0.00    +0.000 C 
ENDBRANCH  19  20
ENDBRANCH   4  19
TORSDOF 3
ENDMDL
MODEL 2
REMARK VINA RESULT:      -7.5      1.126      1.221
REMARK  Name = 
REMARK  4 active torsions:
REMARK  status: ('A' for Active; 'I' for Inactive)
REMARK    1  A    between atoms: C_1  and  N_2
REMARK    2  A    between atoms: C_4  and  C_5
REMARK    3  A    between atoms: C_5  and  N_6
REMARK    4  A    between atoms: C_16  and  C_18
REMARK                            x       y       z     vdW  Elec       q    Type
REMARK                         _______ _______ _______ _____ _____    ______ ____
ROOT
ATOM      1  C   UNL     1       7.444   7.289  18.030  0.00  0.00    +0.000 C 
ATOM      2  N   UNL     1       6.474   6.366  17.487  0.00  0.00    +0.000 N 
ATOM      3  N   UNL     1       5.272   6.195  18.104  0.00  0.00    +0.000 NA
ATOM      4  C   UNL     1       4.614   5.310  17.325  0.00  0.00    +0.000 A 
ATOM      5  C   UNL     1       5.413   4.931  16.249  0.00  0.00    +0.000 A 
ATOM      6  C   UNL     1       6.584   5.617  16.377  0.00  0.00    +0.000 A 
ATOM      7  C   UNL     1       7.534   5.381  15.289  0.00  0.00    +0.000 C 
ATOM      8  N   UNL     1       6.680   4.517  14.416  0.00  0.00    +0.000 N 
ATOM      9  C   UNL     1       6.973   4.386  13.067  0.00  0.00    +0.000 C 
ATOM     10  O   UNL     1       7.903   4.975  12.523  0.00  0.00    +0.000 OA
ATOM     11  C   UNL     1       5.400   4.092  15.066  0.00  0.00    +0.000 C 
ENDROOT
BRANCH   9  12
ATOM     12  C   UNL     1       6.098   3.513  12.233  0.00  0.00    +0.000 A 
ATOM     13  C   UNL     1       4.874   4.007  11.763  0.00  0.00    +0.000 A 
ATOM     14  C   UNL     1       4.006   3.168  11.055  0.00  0.00    +0.000 A 
ATOM     15  C   UNL     1       4.353   1.835  10.830  0.00  0.00    +0.000 A 
ATOM     16  C   UNL     1       5.588   1.360  11.263  0.00  0.00    +0.000 A 
ATOM     17 CL   UNL     1       6.013  -0.289  11.023  0.00  0.00    +0.000 Cl
ATOM     18  C   UNL     1       6.478   2.205  11.919  0.00  0.00    +0.000 A 
ENDBRANCH   9  12
BRANCH   4  19
ATOM     19  C   UNL     1       3.201   4.878  17.609  0.00  0.00    +0.000 C 
BRANCH  19  20
ATOM     20  N   UNL     1       3.057   4.273  18.958  0.00  0.00    +0.000 NA
ATOM     21  C   UNL     1       2.280   5.158  19.844  0.00  0.00    +0.000 C 
ATOM     22  C   UNL     1       2.084   4.540  21.231  0.00  0.00    +0.000 C 
ATOM     23  C   UNL     1       1.414   3.176  21.140  0.00  0.00    +0.000 C 
ATOM     24  C   UNL     1       2.179   2.279  20.177  0.00  0.00    +0.000 C 
ATOM     25  C   UNL     1       2.387   2.965  18.825  0.00  0.00    +0.000 C 
ENDBRANCH  19  20
ENDBRANCH   4  19
TORSDOF 3
ENDMDL
MODEL 3
REMARK VINA RESULT:      -7.3      1.208      1.555
REMARK  Name = 
REMARK  4 active torsions:
REMARK  status: ('A' for Active; 'I' for Inactive)
REMARK    1  A    between atoms: C_1  and  N_2
REMARK    2  A    between atoms: C_4  and  C_5
REMARK    3  A    between atoms: C_5  and  N_6
REMARK    4  A    between atoms: C_16  and  C_18
REMARK                            x       y       z     vdW  Elec       q    Type
REMARK                         _______ _______ _______ _____ _____    ______ ____
ROOT
ATOM      1  C   UNL     1       7.678   6.969  18.433  0.00  0.00    +0.000 C 
ATOM      2  N   UNL     1       6.969   5.824  17.912  0.00  0.00    +0.000 N 
ATOM      3  N   UNL     1       6.055   5.175  18.686  0.00  0.00    +0.000 NA
ATOM      4  C   UNL     1       5.567   4.200  17.889  0.00  0.00    +0.000 A 
ATOM      5  C   UNL     1       6.189   4.241  16.644  0.00  0.00    +0.000 A 
ATOM      6  C   UNL     1       7.070   5.281  16.687  0.00  0.00    +0.000 A 
ATOM      7  C   UNL     1       7.781   5.511  15.429  0.00  0.00    +0.000 C 
ATOM      8  N   UNL     1       7.087   4.495  14.578  0.00  0.00    +0.000 N 
ATOM      9  C   UNL     1       7.102   4.617  13.197  0.00  0.00    +0.000 C 
ATOM     10  O   UNL     1       7.646   5.550  12.612  0.00  0.00    +0.000 OA
ATOM     11  C   UNL     1       6.191   3.579  15.353  0.00  0.00    +0.000 C 
ENDROOT
BRANCH   9  12
ATOM     12  C   UNL     1       6.400   3.582  12.387  0.00  0.00    +0.000 A 
ATOM     13  C   UNL     1       7.100   2.449  11.952  0.00  0.00    +0.000 A 
ATOM     14  C   UNL     1       6.475   1.516  11.118  0.00  0.00    +0.000 A 
ATOM     15  C   UNL     1       5.157   1.721  10.706  0.00  0.00    +0.000 A 
ATOM     16  C   UNL     1       4.451   2.826  11.174  0.00  0.00    +0.000 A 
ATOM     17 CL   UNL     1       2.839   3.108  10.647  0.00  0.00    +0.000 Cl
ATOM     18  C   UNL     1       5.051   3.727  12.047  0.00  0.00    +0.000 A 
ENDBRANCH   9  12
BRANCH   4  19
ATOM     19  C   UNL     1       4.471   3.268  18.331  0.00  0.00    +0.000 C 
BRANCH  19  20
ATOM     20  N   UNL     1       3.668   3.830  19.446  0.00  0.00    +0.000 NA
ATOM     21  C   UNL     1       2.596   4.700  18.928  0.00  0.00    +0.000 C 
ATOM     22  C   UNL     1       1.729   5.263  20.058  0.00  0.00    +0.000 C 
ATOM     23  C   UNL     1       1.131   4.148  20.905  0.00  0.00    +0.000 C 
ATOM     24  C   UNL     1       2.229   3.212  21.391  0.00  0.00    +0.000 C 
ATOM     25  C   UNL     1       3.093   2.718  20.228  0.00  0.00    +0.000 C 
ENDBRANCH  19  20
ENDBRANCH   4  19
TORSDOF 3
ENDMDL
MODEL 4
REMARK VINA RESULT:      -7.3      1.531      1.892
REMARK  Name = 
REMARK  4 active torsions:
REMARK  status: ('A' for Active; 'I' for Inactive)
REMARK    1  A    between atoms: C_1  and  N_2
REMARK    2  A    between atoms: C_4  and  C_5
REMARK    3  A    between atoms: C_5  and  N_6
REMARK    4  A    between atoms: C_16  and  C_18
REMARK                            x       y       z     vdW  Elec       q    Type
REMARK                         _______ _______ _______ _____ _____    ______ ____
ROOT
ATOM      1  C   UNL     1       7.467   7.054  18.153  0.00  0.00    +0.000 C 
ATOM      2  N   UNL     1       6.455   6.196  17.583  0.00  0.00    +0.000 N 
ATOM      3  N   UNL     1       5.240   6.076  18.187  0.00  0.00    +0.000 NA
ATOM      4  C   UNL     1       4.542   5.244  17.384  0.00  0.00    +0.000 A 
ATOM      5  C   UNL     1       5.329   4.845  16.307  0.00  0.00    +0.000 A 
ATOM      6  C   UNL     1       6.534   5.465  16.458  0.00  0.00    +0.000 A 
ATOM      7  C   UNL     1       7.480   5.202  15.372  0.00  0.00    +0.000 C 
ATOM      8  N   UNL     1       6.589   4.403  14.475  0.00  0.00    +0.000 N 
ATOM      9  C   UNL     1       6.886   4.285  13.126  0.00  0.00    +0.000 C 
ATOM     10  O   UNL     1       7.851   4.835  12.601  0.00  0.00    +0.000 OA
ATOM     11  C   UNL     1       5.282   4.033  15.106  0.00  0.00    +0.000 C 
ENDROOT
BRANCH   9  12
ATOM     12  C   UNL     1       5.974   3.477  12.267  0.00  0.00    +0.000 A 
ATOM     13  C   UNL     1       6.268   2.130  12.019  0.00  0.00    +0.000 A 
ATOM     14  C   UNL     1       5.466   1.387  11.145  0.00  0.00    +0.000 A 
ATOM     15  C   UNL     1       4.383   1.993  10.507  0.00  0.00    +0.000 A 
ATOM     16  C   UNL     1       4.070   3.320  10.788  0.00  0.00    +0.000 A 
ATOM     17 CL   UNL     1       2.758   4.088   9.983  0.00  0.00    +0.000 Cl
ATOM     18  C   UNL     1       4.830   4.047  11.698  0.00  0.00    +0.000 A 
ENDBRANCH   9  12
BRANCH   4  19
ATOM     19  C   UNL     1       3.106   4.881  17.649  0.00  0.00    +0.000 C 
BRANCH  19  20
ATOM     20  N   UNL     1       2.937   4.138  18.924  0.00  0.00    +0.000 NA
ATOM     21  C   UNL     1       2.406   5.024  19.975  0.00  0.00    +0.000 C 
ATOM     22  C   UNL     1       2.187   4.271  21.291  0.00  0.00    +0.000 C 
ATOM     23  C   UNL     1       1.261   3.078  21.099  0.00  0.00    +0.000 C 
ATOM     24  C   UNL     1       1.774   2.193  19.971  0.00  0.00    +0.000 C 
ATOM     25  C   UNL     1       2.020   3.004  18.697  0.00  0.00    +0.000 C 
ENDBRANCH  19  20
ENDBRANCH   4  19
TORSDOF 3
ENDMDL
MODEL 5
REMARK VINA RESULT:      -7.2      1.247      1.687
REMARK  Name = 
REMARK  4 active torsions:
REMARK  status: ('A' for Active; 'I' for Inactive)
REMARK    1  A    between atoms: C_1  and  N_2
REMARK    2  A    between atoms: C_4  and  C_5
REMARK    3  A    between atoms: C_5  and  N_6
REMARK    4  A    between atoms: C_16  and  C_18
REMARK                            x       y       z     vdW  Elec       q    Type
REMARK                         _______ _______ _______ _____ _____    ______ ____
ROOT
ATOM      1  C   UNL     1       7.809   6.185  19.040  0.00  0.00    +0.000 C 
ATOM      2  N   UNL     1       6.884   5.291  18.383  0.00  0.00    +0.000 N 
ATOM      3  N   UNL     1       5.806   4.806  19.059  0.00  0.00    +0.000 NA
ATOM      4  C   UNL     1       5.150   4.050  18.152  0.00  0.00    +0.000 A 
ATOM      5  C   UNL     1       5.830   4.060  16.937  0.00  0.00    +0.000 A 
ATOM      6  C   UNL     1       6.923   4.855  17.113  0.00  0.00    +0.000 A 
ATOM      7  C   UNL     1       7.734   5.027  15.907  0.00  0.00    +0.000 C 
ATOM      8  N   UNL     1       6.870   4.286  14.936  0.00  0.00    +0.000 N 
ATOM      9  C   UNL     1       6.987   4.527  13.576  0.00  0.00    +0.000 C 
ATOM     10  O   UNL     1       7.761   5.357  13.107  0.00  0.00    +0.000 OA
ATOM     11  C   UNL     1       5.748   3.538  15.586  0.00  0.00    +0.000 C 
ENDROOT
BRANCH   9  12
ATOM     12  C   UNL     1       6.109   3.765  12.643  0.00  0.00    +0.000 A 
ATOM     13  C   UNL     1       4.868   4.297  12.271  0.00  0.00    +0.000 A 
ATOM     14  C   UNL     1       3.999   3.551  11.466  0.00  0.00    +0.000 A 
ATOM     15  C   UNL     1       4.362   2.269  11.048  0.00  0.00    +0.000 A 
ATOM     16  C   UNL     1       5.614   1.762  11.386  0.00  0.00    +0.000 A 
ATOM     17 CL   UNL     1       6.060   0.172  10.906  0.00  0.00    +0.000 Cl
ATOM     18  C   UNL     1       6.503   2.522  12.139  0.00  0.00    +0.000 A 
ENDBRANCH   9  12
BRANCH   4  19
ATOM     19  C   UNL     1       3.847   3.364  18.464  0.00  0.00    +0.000 C 
BRANCH  19  20
ATOM     20  N   UNL     1       2.772   4.327  18.814  0.00  0.00    +0.000 NA
ATOM     21  C   UNL     1       2.706   4.524  20.273  0.00  0.00    +0.000 C 
ATOM     22  C   UNL     1       1.629   5.543  20.657  0.00  0.00    +0.000 C 
ATOM     23  C   UNL     1       1.855   6.878  19.961  0.00  0.00    +0.000 C 
ATOM     24  C   UNL     1       1.986   6.669  18.458  0.00  0.00    +0.000 C 
ATOM     25  C   UNL     1       3.040   5.609  18.134  0.00  0.00    +0.000 C 
ENDBRANCH  19  20
ENDBRANCH   4  19
TORSDOF 3
ENDMDL
MODEL 6
REMARK VINA RESULT:      -6.7     11.398     14.562
REMARK  Name = 
REMARK  4 active torsions:
REMARK  status: ('A' for Active; 'I' for Inactive)
REMARK    1  A    between atoms: C_1  and  N_2
REMARK    2  A    between atoms: C_4  and  C_5
REMARK    3  A    between atoms: C_5  and  N_6
REMARK    4  A    between atoms: C_16  and  C_18
REMARK                            x       y       z     vdW  Elec       q    Type
REMARK                         _______ _______ _______ _____ _____    ______ ____
ROOT
ATOM      1  C   UNL     1      -3.041  10.376  15.267  0.00  0.00    +0.000 C 
ATOM      2  N   UNL     1      -2.959  10.863  16.624  0.00  0.00    +0.000 N 
ATOM      3  N   UNL     1      -1.760  10.889  17.271  0.00  0.00    +0.000 NA
ATOM      4  C   UNL     1      -2.038  11.426  18.479  0.00  0.00    +0.000 A 
ATOM      5  C   UNL     1      -3.397  11.710  18.576  0.00  0.00    +0.000 A 
ATOM      6  C   UNL     1      -3.955  11.346  17.387  0.00  0.00    +0.000 A 
ATOM      7  C   UNL     1      -5.387  11.629  17.289  0.00  0.00    +0.000 C 
ATOM      8  N   UNL     1      -5.575  12.339  18.592  0.00  0.00    +0.000 N 
ATOM      9  C   UNL     1      -6.662  13.181  18.775  0.00  0.00    +0.000 C 
ATOM     10  O   UNL     1      -7.490  13.406  17.897  0.00  0.00    +0.000 OA
ATOM     11  C   UNL     1      -4.377  12.269  19.488  0.00  0.00    +0.000 C 
ENDROOT
BRANCH   9  12
ATOM     12  C   UNL     1      -6.812  13.868  20.089  0.00  0.00    +0.000 A 
ATOM     13  C   UNL     1      -6.469  15.221  20.207  0.00  0.00    +0.000 A 
ATOM     14  C   UNL     1      -6.523  15.851  21.455  0.00  0.00    +0.000 A 
ATOM     15  C   UNL     1      -6.904  15.128  22.586  0.00  0.00    +0.000 A 
ATOM     16  C   UNL     1      -7.284  13.795  22.458  0.00  0.00    +0.000 A 
ATOM     17 CL   UNL     1      -7.724  12.883  23.848  0.00  0.00    +0.000 Cl
ATOM     18  C   UNL     1      -7.286  13.179  21.211  0.00  0.00    +0.000 A 
ENDBRANCH   9  12
BRANCH   4  19
ATOM     19  C   UNL     1      -0.972  11.697  19.507  0.00  0.00    +0.000 C 
BRANCH  19  20
ATOM     20  N   UNL     1      -1.017  10.732  20.634  0.00  0.00    +0.000 NA
ATOM     21  C   UNL     1       0.097   9.771  20.540  0.00  0.00    +0.000 C 
ATOM     22  C   UNL     1       0.095   8.787  21.714  0.00  0.00    +0.000 C 
ATOM     23  C   UNL     1       0.148   9.517  23.049  0.00  0.00    +0.000 C 
ATOM     24  C   UNL     1      -0.965  10.554  23.124  0.00  0.00    +0.000 C 
ATOM     25  C   UNL     1      -0.945  11.479  21.905  0.00  0.00    +0.000 C 
ENDBRANCH  19  20
ENDBRANCH   4  19
TORSDOF 3
ENDMDL
MODEL 7
REMARK VINA RESULT:      -6.6      5.734      8.784
REMARK  Name = 
REMARK  4 active torsions:
REMARK  status: ('A' for Active; 'I' for Inactive)
REMARK    1  A    between atoms: C_1  and  N_2
REMARK    2  A    between atoms: C_4  and  C_5
REMARK    3  A    between atoms: C_5  and  N_6
REMARK    4  A    between atoms: C_16  and  C_18
REMARK                            x       y       z     vdW  Elec       q    Type
REMARK                         _______ _______ _______ _____ _____    ______ ____
ROOT
ATOM      1  C   UNL     1       2.365   2.491  20.319  0.00  0.00    +0.000 C 
ATOM      2  N   UNL     1       2.752   3.684  19.605  0.00  0.00    +0.000 N 
ATOM      3  N   UNL     1       3.484   3.590  18.459  0.00  0.00    +0.000 NA
ATOM      4  C   UNL     1       3.631   4.867  18.045  0.00  0.00    +0.000 A 
ATOM      5  C   UNL     1       3.010   5.736  18.937  0.00  0.00    +0.000 A 
ATOM      6  C   UNL     1       2.460   4.959  19.913  0.00  0.00    +0.000 A 
ATOM      7  C   UNL     1       1.710   5.711  20.920  0.00  0.00    +0.000 C 
ATOM      8  N   UNL     1       1.805   7.075  20.313  0.00  0.00    +0.000 N 
ATOM      9  C   UNL     1       0.892   8.058  20.664  0.00  0.00    +0.000 C 
ATOM     10  O   UNL     1      -0.035   7.863  21.445  0.00  0.00    +0.000 OA
ATOM     11  C   UNL     1       2.745   7.146  19.150  0.00  0.00    +0.000 C 
ENDROOT
BRANCH   9  12
ATOM     12  C   UNL     1       1.024   9.404  20.037  0.00  0.00    +0.000 A 
ATOM     13  C   UNL     1       1.352   9.506  18.679  0.00  0.00    +0.000 A 
ATOM     14  C   UNL     1       1.564  10.763  18.102  0.00  0.00    +0.000 A 
ATOM     15  C   UNL     1       1.467  11.915  18.884  0.00  0.00    +0.000 A 
ATOM     16  C   UNL     1       1.100  11.811  20.223  0.00  0.00    +0.000 A 
ATOM     17 CL   UNL     1       1.009  13.220  21.206  0.00  0.00    +0.000 Cl
ATOM     18  C   UNL     1       0.833  10.568  20.787  0.00  0.00    +0.000 A 
ENDBRANCH   9  12
BRANCH   4  19
ATOM     19  C   UNL     1       4.335   5.223  16.763  0.00  0.00    +0.000 C 
BRANCH  19  20
ATOM     20  N   UNL     1       5.757   5.591  16.984  0.00  0.00    +0.000 NA
ATOM     21  C   UNL     1       5.898   7.051  17.138  0.00  0.00    +0.000 C 
ATOM     22  C   UNL     1       7.352   7.452  17.406  0.00  0.00    +0.000 C 
ATOM     23  C   UNL     1       7.905   6.744  18.634  0.00  0.00    +0.000 C 
ATOM     24  C   UNL     1       7.705   5.240  18.506  0.00  0.00    +0.000 C 
ATOM     25  C   UNL     1       6.246   4.899  18.192  0.00  0.00    +0.000 C 
ENDBRANCH  19  20
ENDBRANCH   4  19
TORSDOF 3
ENDMDL
MODEL 8
REMARK VINA RESULT:      -6.6      6.670      8.582
REMARK  Name = 
REMARK  4 active torsions:
REMARK  status: ('A' for Active; 'I' for Inactive)
REMARK    1  A    between atoms: C_1  and  N_2
REMARK    2  A    between atoms: C_4  and  C_5
REMARK    3  A    between atoms: C_5  and  N_6
REMARK    4  A    between atoms: C_16  and  C_18
REMARK                            x       y       z     vdW  Elec       q    Type
REMARK                         _______ _______ _______ _____ _____    ______ ____
ROOT
ATOM      1  C   UNL     1      -0.191   9.255  22.645  0.00  0.00    +0.000 C 
ATOM      2  N   UNL     1       0.456   9.318  21.356  0.00  0.00    +0.000 N 
ATOM      3  N   UNL     1       0.528  10.501  20.683  0.00  0.00    +0.000 NA
ATOM      4  C   UNL     1       1.216  10.210  19.558  0.00  0.00    +0.000 A 
ATOM      5  C   UNL     1       1.548   8.858  19.535  0.00  0.00    +0.000 A 
ATOM      6  C   UNL     1       1.056   8.319  20.687  0.00  0.00    +0.000 A 
ATOM      7  C   UNL     1       1.364   6.899  20.859  0.00  0.00    +0.000 C 
ATOM      8  N   UNL     1       2.234   6.701  19.658  0.00  0.00    +0.000 N 
ATOM      9  C   UNL     1       3.121   5.636  19.610  0.00  0.00    +0.000 C 
ATOM     10  O   UNL     1       3.260   4.838  20.532  0.00  0.00    +0.000 OA
ATOM     11  C   UNL     1       2.241   7.873  18.726  0.00  0.00    +0.000 C 
ENDROOT
BRANCH   9  12
ATOM     12  C   UNL     1       3.968   5.474  18.394  0.00  0.00    +0.000 A 
ATOM     13  C   UNL     1       3.604   4.539  17.416  0.00  0.00    +0.000 A 
ATOM     14  C   UNL     1       4.437   4.317  16.314  0.00  0.00    +0.000 A 
ATOM     15  C   UNL     1       5.640   5.016  16.197  0.00  0.00    +0.000 A 
ATOM     16  C   UNL     1       5.977   5.974  17.148  0.00  0.00    +0.000 A 
ATOM     17 CL   UNL     1       7.471   6.818  17.033  0.00  0.00    +0.000 Cl
ATOM     18  C   UNL     1       5.126   6.238  18.216  0.00  0.00    +0.000 A 
ENDBRANCH   9  12
BRANCH   4  19
ATOM     19  C   UNL     1       1.581  11.257  18.542  0.00  0.00    +0.000 C 
BRANCH  19  20
ATOM     20  N   UNL     1       1.449  12.635  19.079  0.00  0.00    +0.000 NA
ATOM     21  C   UNL     1       2.663  13.423  18.795  0.00  0.00    +0.000 C 
ATOM     22  C   UNL     1       2.536  14.861  19.307  0.00  0.00    +0.000 C 
ATOM     23  C   UNL     1       1.317  15.553  18.714  0.00  0.00    +0.000 C 
ATOM     24  C   UNL     1       0.069  14.712  18.950  0.00  0.00    +0.000 C 
ATOM     25  C   UNL     1       0.269  13.275  18.465  0.00  0.00    +0.000 C 
ENDBRANCH  19  20
ENDBRANCH   4  19
TORSDOF 3
ENDMDL
MODEL 9
REMARK VINA RESULT:      -6.6      5.918      9.291
REMARK  Name = 
REMARK  4 active torsions:
REMARK  status: ('A' for Active; 'I' for Inactive)
REMARK    1  A    between atoms: C_1  and  N_2
REMARK    2  A    between atoms: C_4  and  C_5
REMARK    3  A    between atoms: C_5  and  N_6
REMARK    4  A    between atoms: C_16  and  C_18
REMARK                            x       y       z     vdW  Elec       q    Type
REMARK                         _______ _______ _______ _____ _____    ______ ____
ROOT
ATOM      1  C   UNL     1       2.624   3.402  20.399  0.00  0.00    +0.000 C 
ATOM      2  N   UNL     1       2.772   4.683  19.748  0.00  0.00    +0.000 N 
ATOM      3  N   UNL     1       3.493   4.788  18.597  0.00  0.00    +0.000 NA
ATOM      4  C   UNL     1       3.394   6.089  18.252  0.00  0.00    +0.000 A 
ATOM      5  C   UNL     1       2.634   6.779  19.192  0.00  0.00    +0.000 A 
ATOM      6  C   UNL     1       2.252   5.863  20.127  0.00  0.00    +0.000 A 
ATOM      7  C   UNL     1       1.388   6.407  21.176  0.00  0.00    +0.000 C 
ATOM      8  N   UNL     1       1.219   7.795  20.643  0.00  0.00    +0.000 N 
ATOM      9  C   UNL     1       0.143   8.570  21.050  0.00  0.00    +0.000 C 
ATOM     10  O   UNL     1      -0.720   8.165  21.823  0.00  0.00    +0.000 OA
ATOM     11  C   UNL     1       2.113   8.102  19.482  0.00  0.00    +0.000 C 
ENDROOT
BRANCH   9  12
ATOM     12  C   UNL     1       0.013   9.948  20.496  0.00  0.00    +0.000 A 
ATOM     13  C   UNL     1       0.654  11.015  21.139  0.00  0.00    +0.000 A 
ATOM     14  C   UNL     1       0.467  12.324  20.679  0.00  0.00    +0.000 A 
ATOM     15  C   UNL     1      -0.370  12.567  19.590  0.00  0.00    +0.000 A 
ATOM     16  C   UNL     1      -0.972  11.500  18.929  0.00  0.00    +0.000 A 
ATOM     17 CL   UNL     1      -2.033  11.789  17.606  0.00  0.00    +0.000 Cl
ATOM     18  C   UNL     1      -0.745  10.193  19.347  0.00  0.00    +0.000 A 
ENDBRANCH   9  12
BRANCH   4  19
ATOM     19  C   UNL     1       4.001   6.638  16.989  0.00  0.00    +0.000 C 
BRANCH  19  20
ATOM     20  N   UNL     1       5.441   6.298  16.861  0.00  0.00    +0.000 NA
ATOM     21  C   UNL     1       6.077   6.220  18.189  0.00  0.00    +0.000 C 
ATOM     22  C   UNL     1       7.555   5.832  18.086  0.00  0.00    +0.000 C 
ATOM     23  C   UNL     1       7.731   4.514  17.347  0.00  0.00    +0.000 C 
ATOM     24  C   UNL     1       7.023   4.568  16.001  0.00  0.00    +0.000 C 
ATOM     25  C   UNL     1       5.565   5.007  16.157  0.00  0.00    +0.000 C 
ENDBRANCH  19  20
ENDBRANCH   4  19
TORSDOF 3
ENDMDL
