MODEL 1
REMARK VINA RESULT:      -8.6      0.000      0.000
REMARK  Name = 
REMARK  7 active torsions:
REMARK  status: ('A' for Active; 'I' for Inactive)
REMARK    1  A    between atoms: C_1  and  O_2
REMARK    2  A    between atoms: O_2  and  C_3
REMARK    3  A    between atoms: C_6  and  C_7
REMARK    4  A    between atoms: C_7  and  N_8
REMARK    5  A    between atoms: N_8  and  S_9
REMARK    6  A    between atoms: S_9  and  C_12
REMARK    7  A    between atoms: C_19  and  C_20
REMARK                            x       y       z     vdW  Elec       q    Type
REMARK                         _______ _______ _______ _____ _____    ______ ____
ROOT
ATOM      1  S   UNL     1       7.397   5.775  18.018  0.00  0.00    +0.000 S 
ATOM      2  O   UNL     1       8.111   5.050  19.045  0.00  0.00    +0.000 OA
ATOM      3  O   UNL     1       7.749   7.127  17.652  0.00  0.00    +0.000 OA
ENDROOT
BRANCH   1   4
ATOM      4  C   UNL     1       5.663   5.754  18.445  0.00  0.00    +0.000 A 
ATOM      5  C   UNL     1       4.771   6.376  17.557  0.00  0.00    +0.000 A 
ATOM      6  C   UNL     1       3.480   5.872  17.434  0.00  0.00    +0.000 A 
ATOM      7  C   UNL     1       3.119   4.793  18.221  0.00  0.00    +0.000 A 
ATOM      8  C   UNL     1       3.879   4.443  19.342  0.00  0.00    +0.000 A 
ATOM      9  C   UNL     1       5.208   4.841  19.405  0.00  0.00    +0.000 A 
ATOM     10  N   UNL     1       3.330   3.419  20.166  0.00  0.00    +0.000 N 
ATOM     11  C   UNL     1       2.151   3.799  20.867  0.00  0.00    +0.000 C 
ATOM     12  C   UNL     1       1.317   2.674  21.441  0.00  0.00    +0.000 C 
ATOM     13  O   UNL     1       1.777   4.966  21.015  0.00  0.00    +0.000 OA
ATOM     14  C   UNL     1       3.210   2.242  19.311  0.00  0.00    +0.000 C 
ATOM     15  C   UNL     1       2.326   2.574  18.083  0.00  0.00    +0.000 C 
ATOM     16  O   UNL     1       2.072   3.987  17.828  0.00  0.00    +0.000 OA
ENDBRANCH   1   4
BRANCH   1  17
ATOM     17  N   UNL     1       7.468   4.814  16.649  0.00  0.00    +0.000 NA
ATOM     18  H   UNL     1       8.099   4.020  16.776  0.00  0.00    +0.000 HD
BRANCH  17  19
ATOM     19  C   UNL     1       7.562   5.508  15.366  0.00  0.00    +0.000 C 
BRANCH  19  23
ATOM     20  C   UNL     1       5.554   3.351  12.226  0.00  0.00    +0.000 A 
ATOM     21  C   UNL     1       4.968   3.462  13.482  0.00  0.00    +0.000 A 
ATOM     22  C   UNL     1       5.615   4.160  14.501  0.00  0.00    +0.000 A 
ATOM     23  C   UNL     1       6.871   4.739  14.272  0.00  0.00    +0.000 A 
ATOM     24  C   UNL     1       7.466   4.597  13.013  0.00  0.00    +0.000 A 
ATOM     25  C   UNL     1       6.811   3.908  11.991  0.00  0.00    +0.000 A 
BRANCH  20  27
ATOM     26  C   UNL     1       3.638   3.271  10.838  0.00  0.00    +0.000 C 
ATOM     27  O   UNL     1       4.824   2.639  11.303  0.00  0.00    +0.000 OA
ENDBRANCH  20  27
ENDBRANCH  19  23
ENDBRANCH  17  19
ENDBRANCH   1  17
TORSDOF 5
ENDMDL
MODEL 2
REMARK VINA RESULT:      -8.4      3.866      6.325
REMARK  Name = 
REMARK  7 active torsions:
REMARK  status: ('A' for Active; 'I' for Inactive)
REMARK    1  A    between atoms: C_1  and  O_2
REMARK    2  A    between atoms: O_2  and  C_3
REMARK    3  A    between atoms: C_6  and  C_7
REMARK    4  A    between atoms: C_7  and  N_8
REMARK    5  A    between atoms: N_8  and  S_9
REMARK    6  A    between atoms: S_9  and  C_12
REMARK    7  A    between atoms: C_19  and  C_20
REMARK                            x       y       z     vdW  Elec       q    Type
REMARK                         _______ _______ _______ _____ _____    ______ ____
ROOT
ATOM      1  S   UNL     1       7.407   5.866  17.772  0.00  0.00    +0.000 S 
ATOM      2  O   UNL     1       7.402   6.024  16.335  0.00  0.00    +0.000 OA
ATOM      3  O   UNL     1       8.082   4.764  18.417  0.00  0.00    +0.000 OA
ENDROOT
BRANCH   1   4
ATOM      4  C   UNL     1       5.709   5.868  18.324  0.00  0.00    +0.000 A 
ATOM      5  C   UNL     1       4.779   6.581  17.553  0.00  0.00    +0.000 A 
ATOM      6  C   UNL     1       3.464   6.129  17.491  0.00  0.00    +0.000 A 
ATOM      7  C   UNL     1       3.121   5.007  18.223  0.00  0.00    +0.000 A 
ATOM      8  C   UNL     1       3.947   4.552  19.257  0.00  0.00    +0.000 A 
ATOM      9  C   UNL     1       5.291   4.902  19.248  0.00  0.00    +0.000 A 
ATOM     10  N   UNL     1       3.422   3.488  20.044  0.00  0.00    +0.000 N 
ATOM     11  C   UNL     1       2.311   3.851  20.857  0.00  0.00    +0.000 C 
ATOM     12  C   UNL     1       1.479   2.715  21.410  0.00  0.00    +0.000 C 
ATOM     13  O   UNL     1       1.992   5.016  21.116  0.00  0.00    +0.000 OA
ATOM     14  C   UNL     1       3.197   2.381  19.120  0.00  0.00    +0.000 C 
ATOM     15  C   UNL     1       2.239   2.830  17.988  0.00  0.00    +0.000 C 
ATOM     16  O   UNL     1       2.020   4.266  17.854  0.00  0.00    +0.000 OA
ENDBRANCH   1   4
BRANCH   1  17
ATOM     17  N   UNL     1       8.014   7.300  18.386  0.00  0.00    +0.000 NA
ATOM     18  H   UNL     1       7.781   7.417  19.375  0.00  0.00    +0.000 HD
BRANCH  17  19
ATOM     19  C   UNL     1       7.861   8.487  17.548  0.00  0.00    +0.000 C 
BRANCH  19  23
ATOM     20  C   UNL     1       9.653  11.946  19.384  0.00  0.00    +0.000 A 
ATOM     21  C   UNL     1       9.727  10.707  20.010  0.00  0.00    +0.000 A 
ATOM     22  C   UNL     1       9.148   9.584  19.418  0.00  0.00    +0.000 A 
ATOM     23  C   UNL     1       8.471   9.701  18.197  0.00  0.00    +0.000 A 
ATOM     24  C   UNL     1       8.377  10.959  17.589  0.00  0.00    +0.000 A 
ATOM     25  C   UNL     1       8.967  12.078  18.178  0.00  0.00    +0.000 A 
BRANCH  20  27
ATOM     26  C   UNL     1       9.814  13.179  21.400  0.00  0.00    +0.000 C 
ATOM     27  O   UNL     1      10.258  12.978  20.063  0.00  0.00    +0.000 OA
ENDBRANCH  20  27
ENDBRANCH  19  23
ENDBRANCH  17  19
ENDBRANCH   1  17
TORSDOF 5
ENDMDL
MODEL 3
REMARK VINA RESULT:      -8.4      3.941      6.340
REMARK  Name = 
REMARK  7 active torsions:
REMARK  status: ('A' for Active; 'I' for Inactive)
REMARK    1  A    between atoms: C_1  and  O_2
REMARK    2  A    between atoms: O_2  and  C_3
REMARK    3  A    between atoms: C_6  and  C_7
REMARK    4  A    between atoms: C_7  and  N_8
REMARK    5  A    between atoms: N_8  and  S_9
REMARK    6  A    between atoms: S_9  and  C_12
REMARK    7  A    between atoms: C_19  and  C_20
REMARK                            x       y       z     vdW  Elec       q    Type
REMARK                         _______ _______ _______ _____ _____    ______ ____
ROOT
ATOM      1  S   UNL     1       7.424   5.880  17.761  0.00  0.00    +0.000 S 
ATOM      2  O   UNL     1       7.428   6.051  16.326  0.00  0.00    +0.000 OA
ATOM      3  O   UNL     1       8.083   4.764  18.400  0.00  0.00    +0.000 OA
ENDROOT
BRANCH   1   4
ATOM      4  C   UNL     1       5.723   5.898  18.305  0.00  0.00    +0.000 A 
ATOM      5  C   UNL     1       4.800   6.603  17.518  0.00  0.00    +0.000 A 
ATOM      6  C   UNL     1       3.484   6.155  17.456  0.00  0.00    +0.000 A 
ATOM      7  C   UNL     1       3.132   5.046  18.203  0.00  0.00    +0.000 A 
ATOM      8  C   UNL     1       3.951   4.602  19.247  0.00  0.00    +0.000 A 
ATOM      9  C   UNL     1       5.296   4.947  19.241  0.00  0.00    +0.000 A 
ATOM     10  N   UNL     1       3.417   3.552  20.048  0.00  0.00    +0.000 N 
ATOM     11  C   UNL     1       2.304   3.932  20.849  0.00  0.00    +0.000 C 
ATOM     12  C   UNL     1       1.464   2.807  21.414  0.00  0.00    +0.000 C 
ATOM     13  O   UNL     1       1.989   5.102  21.089  0.00  0.00    +0.000 OA
ATOM     14  C   UNL     1       3.192   2.432  19.138  0.00  0.00    +0.000 C 
ATOM     15  C   UNL     1       2.242   2.869  17.995  0.00  0.00    +0.000 C 
ATOM     16  O   UNL     1       2.030   4.303  17.839  0.00  0.00    +0.000 OA
ENDBRANCH   1   4
BRANCH   1  17
ATOM     17  N   UNL     1       8.044   7.301  18.391  0.00  0.00    +0.000 NA
ATOM     18  H   UNL     1       7.880   7.373  19.398  0.00  0.00    +0.000 HD
BRANCH  17  19
ATOM     19  C   UNL     1       7.808   8.518  17.617  0.00  0.00    +0.000 C 
BRANCH  19  23
ATOM     20  C   UNL     1       9.664  11.948  19.444  0.00  0.00    +0.000 A 
ATOM     21  C   UNL     1       9.091  12.054  18.182  0.00  0.00    +0.000 A 
ATOM     22  C   UNL     1       8.489  10.946  17.588  0.00  0.00    +0.000 A 
ATOM     23  C   UNL     1       8.473   9.711  18.250  0.00  0.00    +0.000 A 
ATOM     24  C   UNL     1       9.078   9.607  19.509  0.00  0.00    +0.000 A 
ATOM     25  C   UNL     1       9.670  10.721  20.106  0.00  0.00    +0.000 A 
BRANCH  20  27
ATOM     26  C   UNL     1      11.537  13.397  19.449  0.00  0.00    +0.000 C 
ATOM     27  O   UNL     1      10.229  13.106  19.927  0.00  0.00    +0.000 OA
ENDBRANCH  20  27
ENDBRANCH  19  23
ENDBRANCH  17  19
ENDBRANCH   1  17
TORSDOF 5
ENDMDL
MODEL 4
REMARK VINA RESULT:      -8.1      0.591      1.180
REMARK  Name = 
REMARK  7 active torsions:
REMARK  status: ('A' for Active; 'I' for Inactive)
REMARK    1  A    between atoms: C_1  and  O_2
REMARK    2  A    between atoms: O_2  and  C_3
REMARK    3  A    between atoms: C_6  and  C_7
REMARK    4  A    between atoms: C_7  and  N_8
REMARK    5  A    between atoms: N_8  and  S_9
REMARK    6  A    between atoms: S_9  and  C_12
REMARK    7  A    between atoms: C_19  and  C_20
REMARK                            x       y       z     vdW  Elec       q    Type
REMARK                         _______ _______ _______ _____ _____    ______ ____
ROOT
ATOM      1  S   UNL     1       7.448   5.867  18.209  0.00  0.00    +0.000 S 
ATOM      2  O   UNL     1       8.105   5.018  19.178  0.00  0.00    +0.000 OA
ATOM      3  O   UNL     1       7.835   7.244  18.014  0.00  0.00    +0.000 OA
ENDROOT
BRANCH   1   4
ATOM      4  C   UNL     1       5.697   5.832  18.556  0.00  0.00    +0.000 A 
ATOM      5  C   UNL     1       4.844   6.476  17.647  0.00  0.00    +0.000 A 
ATOM      6  C   UNL     1       3.561   5.974  17.451  0.00  0.00    +0.000 A 
ATOM      7  C   UNL     1       3.167   4.874  18.192  0.00  0.00    +0.000 A 
ATOM      8  C   UNL     1       3.877   4.495  19.336  0.00  0.00    +0.000 A 
ATOM      9  C   UNL     1       5.201   4.893  19.470  0.00  0.00    +0.000 A 
ATOM     10  N   UNL     1       3.294   3.448  20.107  0.00  0.00    +0.000 N 
ATOM     11  C   UNL     1       2.084   3.807  20.763  0.00  0.00    +0.000 C 
ATOM     12  C   UNL     1       1.227   2.667  21.269  0.00  0.00    +0.000 C 
ATOM     13  O   UNL     1       1.700   4.970  20.926  0.00  0.00    +0.000 OA
ATOM     14  C   UNL     1       3.216   2.294  19.216  0.00  0.00    +0.000 C 
ATOM     15  C   UNL     1       2.387   2.658  17.959  0.00  0.00    +0.000 C 
ATOM     16  O   UNL     1       2.142   4.077  17.731  0.00  0.00    +0.000 OA
ENDBRANCH   1   4
BRANCH   1  17
ATOM     17  N   UNL     1       7.566   5.064  16.745  0.00  0.00    +0.000 NA
ATOM     18  H   UNL     1       8.416   4.499  16.690  0.00  0.00    +0.000 HD
BRANCH  17  19
ATOM     19  C   UNL     1       7.230   5.832  15.548  0.00  0.00    +0.000 C 
BRANCH  19  23
ATOM     20  C   UNL     1       5.848   3.239  12.400  0.00  0.00    +0.000 A 
ATOM     21  C   UNL     1       7.047   3.927  12.261  0.00  0.00    +0.000 A 
ATOM     22  C   UNL     1       7.499   4.767  13.279  0.00  0.00    +0.000 A 
ATOM     23  C   UNL     1       6.736   4.939  14.442  0.00  0.00    +0.000 A 
ATOM     24  C   UNL     1       5.515   4.263  14.560  0.00  0.00    +0.000 A 
ATOM     25  C   UNL     1       5.072   3.414  13.545  0.00  0.00    +0.000 A 
BRANCH  20  27
ATOM     26  C   UNL     1       6.426   1.403  11.020  0.00  0.00    +0.000 C 
ATOM     27  O   UNL     1       5.506   2.442  11.332  0.00  0.00    +0.000 OA
ENDBRANCH  20  27
ENDBRANCH  19  23
ENDBRANCH  17  19
ENDBRANCH   1  17
TORSDOF 5
ENDMDL
MODEL 5
REMARK VINA RESULT:      -7.7      4.064      6.336
REMARK  Name = 
REMARK  7 active torsions:
REMARK  status: ('A' for Active; 'I' for Inactive)
REMARK    1  A    between atoms: C_1  and  O_2
REMARK    2  A    between atoms: O_2  and  C_3
REMARK    3  A    between atoms: C_6  and  C_7
REMARK    4  A    between atoms: C_7  and  N_8
REMARK    5  A    between atoms: N_8  and  S_9
REMARK    6  A    between atoms: S_9  and  C_12
REMARK    7  A    between atoms: C_19  and  C_20
REMARK                            x       y       z     vdW  Elec       q    Type
REMARK                         _______ _______ _______ _____ _____    ______ ____
ROOT
ATOM      1  S   UNL     1       7.201   6.400  17.679  0.00  0.00    +0.000 S 
ATOM      2  O   UNL     1       7.217   6.118  16.261  0.00  0.00    +0.000 OA
ATOM      3  O   UNL     1       8.020   5.666  18.615  0.00  0.00    +0.000 OA
ENDROOT
BRANCH   1   4
ATOM      4  C   UNL     1       5.506   6.296  18.233  0.00  0.00    +0.000 A 
ATOM      5  C   UNL     1       4.533   6.954  17.466  0.00  0.00    +0.000 A 
ATOM      6  C   UNL     1       3.249   6.421  17.403  0.00  0.00    +0.000 A 
ATOM      7  C   UNL     1       2.976   5.277  18.130  0.00  0.00    +0.000 A 
ATOM      8  C   UNL     1       3.830   4.868  19.160  0.00  0.00    +0.000 A 
ATOM      9  C   UNL     1       5.149   5.301  19.153  0.00  0.00    +0.000 A 
ATOM     10  N   UNL     1       3.372   3.770  19.943  0.00  0.00    +0.000 N 
ATOM     11  C   UNL     1       2.242   4.060  20.758  0.00  0.00    +0.000 C 
ATOM     12  C   UNL     1       1.482   2.872  21.306  0.00  0.00    +0.000 C 
ATOM     13  O   UNL     1       1.852   5.202  21.023  0.00  0.00    +0.000 OA
ATOM     14  C   UNL     1       3.215   2.656  19.013  0.00  0.00    +0.000 C 
ATOM     15  C   UNL     1       2.230   3.051  17.884  0.00  0.00    +0.000 C 
ATOM     16  O   UNL     1       1.922   4.471  17.758  0.00  0.00    +0.000 OA
ENDBRANCH   1   4
BRANCH   1  17
ATOM     17  N   UNL     1       7.552   8.031  17.823  0.00  0.00    +0.000 NA
ATOM     18  H   UNL     1       7.487   8.513  16.924  0.00  0.00    +0.000 HD
BRANCH  17  19
ATOM     19  C   UNL     1       8.701   8.382  18.655  0.00  0.00    +0.000 C 
BRANCH  19  23
ATOM     20  C   UNL     1       9.154  12.655  18.936  0.00  0.00    +0.000 A 
ATOM     21  C   UNL     1       8.649  12.082  17.775  0.00  0.00    +0.000 A 
ATOM     22  C   UNL     1       8.500  10.699  17.681  0.00  0.00    +0.000 A 
ATOM     23  C   UNL     1       8.877   9.874  18.749  0.00  0.00    +0.000 A 
ATOM     24  C   UNL     1       9.412  10.459  19.904  0.00  0.00    +0.000 A 
ATOM     25  C   UNL     1       9.548  11.845  20.000  0.00  0.00    +0.000 A 
BRANCH  20  27
ATOM     26  C   UNL     1       8.281  14.702  18.127  0.00  0.00    +0.000 C 
ATOM     27  O   UNL     1       9.257  14.027  18.912  0.00  0.00    +0.000 OA
ENDBRANCH  20  27
ENDBRANCH  19  23
ENDBRANCH  17  19
ENDBRANCH   1  17
TORSDOF 5
ENDMDL
MODEL 6
REMARK VINA RESULT:      -7.6      4.467      5.898
REMARK  Name = 
REMARK  7 active torsions:
REMARK  status: ('A' for Active; 'I' for Inactive)
REMARK    1  A    between atoms: C_1  and  O_2
REMARK    2  A    between atoms: O_2  and  C_3
REMARK    3  A    between atoms: C_6  and  C_7
REMARK    4  A    between atoms: C_7  and  N_8
REMARK    5  A    between atoms: N_8  and  S_9
REMARK    6  A    between atoms: S_9  and  C_12
REMARK    7  A    between atoms: C_19  and  C_20
REMARK                            x       y       z     vdW  Elec       q    Type
REMARK                         _______ _______ _______ _____ _____    ______ ____
ROOT
ATOM      1  S   UNL     1       2.295   5.581  19.722  0.00  0.00    +0.000 S 
ATOM      2  O   UNL     1       1.895   5.010  18.455  0.00  0.00    +0.000 OA
ATOM      3  O   UNL     1       1.632   5.237  20.958  0.00  0.00    +0.000 OA
ENDROOT
BRANCH   1   4
ATOM      4  C   UNL     1       2.256   7.358  19.554  0.00  0.00    +0.000 A 
ATOM      5  C   UNL     1       2.608   7.898  18.307  0.00  0.00    +0.000 A 
ATOM      6  C   UNL     1       2.007   9.081  17.888  0.00  0.00    +0.000 A 
ATOM      7  C   UNL     1       1.106   9.695  18.739  0.00  0.00    +0.000 A 
ATOM      8  C   UNL     1       1.061   9.354  20.095  0.00  0.00    +0.000 A 
ATOM      9  C   UNL     1       1.548   8.117  20.495  0.00  0.00    +0.000 A 
ATOM     10  N   UNL     1       0.209  10.158  20.906  0.00  0.00    +0.000 N 
ATOM     11  C   UNL     1       0.656  11.498  21.079  0.00  0.00    +0.000 C 
ATOM     12  C   UNL     1      -0.367  12.489  21.590  0.00  0.00    +0.000 C 
ATOM     13  O   UNL     1       1.800  11.886  20.826  0.00  0.00    +0.000 OA
ATOM     14  C   UNL     1      -1.133  10.001  20.352  0.00  0.00    +0.000 C 
ATOM     15  C   UNL     1      -1.136  10.424  18.862  0.00  0.00    +0.000 C 
ATOM     16  O   UNL     1       0.167  10.562  18.222  0.00  0.00    +0.000 OA
ENDBRANCH   1   4
BRANCH   1  17
ATOM     17  N   UNL     1       3.928   5.245  19.878  0.00  0.00    +0.000 NA
ATOM     18  H   UNL     1       4.501   6.081  19.744  0.00  0.00    +0.000 HD
BRANCH  17  19
ATOM     19  C   UNL     1       4.411   4.028  19.229  0.00  0.00    +0.000 C 
BRANCH  19  23
ATOM     20  C   UNL     1       6.841   4.982  15.804  0.00  0.00    +0.000 A 
ATOM     21  C   UNL     1       5.540   4.523  15.631  0.00  0.00    +0.000 A 
ATOM     22  C   UNL     1       4.750   4.214  16.738  0.00  0.00    +0.000 A 
ATOM     23  C   UNL     1       5.268   4.345  18.033  0.00  0.00    +0.000 A 
ATOM     24  C   UNL     1       6.589   4.781  18.196  0.00  0.00    +0.000 A 
ATOM     25  C   UNL     1       7.373   5.101  17.086  0.00  0.00    +0.000 A 
BRANCH  20  27
ATOM     26  C   UNL     1       7.047   4.583  13.479  0.00  0.00    +0.000 C 
ATOM     27  O   UNL     1       7.523   5.253  14.640  0.00  0.00    +0.000 OA
ENDBRANCH  20  27
ENDBRANCH  19  23
ENDBRANCH  17  19
ENDBRANCH   1  17
TORSDOF 5
ENDMDL
MODEL 7
REMARK VINA RESULT:      -7.5      4.341      6.403
REMARK  Name = 
REMARK  7 active torsions:
REMARK  status: ('A' for Active; 'I' for Inactive)
REMARK    1  A    between atoms: C_1  and  O_2
REMARK    2  A    between atoms: O_2  and  C_3
REMARK    3  A    between atoms: C_6  and  C_7
REMARK    4  A    between atoms: C_7  and  N_8
REMARK    5  A    between atoms: N_8  and  S_9
REMARK    6  A    between atoms: S_9  and  C_12
REMARK    7  A    between atoms: C_19  and  C_20
REMARK                            x       y       z     vdW  Elec       q    Type
REMARK                         _______ _______ _______ _____ _____    ______ ____
ROOT
ATOM      1  S   UNL     1       7.415   6.698  17.680  0.00  0.00    +0.000 S 
ATOM      2  O   UNL     1       7.510   6.274  16.300  0.00  0.00    +0.000 OA
ATOM      3  O   UNL     1       8.247   6.129  18.714  0.00  0.00    +0.000 OA
ENDROOT
BRANCH   1   4
ATOM      4  C   UNL     1       5.711   6.520  18.185  0.00  0.00    +0.000 A 
ATOM      5  C   UNL     1       4.733   7.143  17.395  0.00  0.00    +0.000 A 
ATOM      6  C   UNL     1       3.475   6.559  17.292  0.00  0.00    +0.000 A 
ATOM      7  C   UNL     1       3.229   5.399  18.005  0.00  0.00    +0.000 A 
ATOM      8  C   UNL     1       4.070   5.019  19.056  0.00  0.00    +0.000 A 
ATOM      9  C   UNL     1       5.370   5.505  19.088  0.00  0.00    +0.000 A 
ATOM     10  N   UNL     1       3.636   3.897  19.819  0.00  0.00    +0.000 N 
ATOM     11  C   UNL     1       2.473   4.135  20.604  0.00  0.00    +0.000 C 
ATOM     12  C   UNL     1       1.748   2.913  21.124  0.00  0.00    +0.000 C 
ATOM     13  O   UNL     1       2.029   5.258  20.865  0.00  0.00    +0.000 OA
ATOM     14  C   UNL     1       3.551   2.784  18.878  0.00  0.00    +0.000 C 
ATOM     15  C   UNL     1       2.582   3.146  17.725  0.00  0.00    +0.000 C 
ATOM     16  O   UNL     1       2.220   4.553  17.598  0.00  0.00    +0.000 OA
ENDBRANCH   1   4
BRANCH   1  17
ATOM     17  N   UNL     1       7.640   8.357  17.663  0.00  0.00    +0.000 NA
ATOM     18  H   UNL     1       7.707   8.720  16.710  0.00  0.00    +0.000 HD
BRANCH  17  19
ATOM     19  C   UNL     1       8.600   8.897  18.623  0.00  0.00    +0.000 C 
BRANCH  19  23
ATOM     20  C   UNL     1       9.622  12.971  17.673  0.00  0.00    +0.000 A 
ATOM     21  C   UNL     1      10.573  12.125  18.230  0.00  0.00    +0.000 A 
ATOM     22  C   UNL     1      10.246  10.805  18.539  0.00  0.00    +0.000 A 
ATOM     23  C   UNL     1       8.950  10.327  18.306  0.00  0.00    +0.000 A 
ATOM     24  C   UNL     1       7.990  11.195  17.771  0.00  0.00    +0.000 A 
ATOM     25  C   UNL     1       8.324  12.512  17.453  0.00  0.00    +0.000 A 
BRANCH  20  27
ATOM     26  C   UNL     1       9.720  15.225  18.392  0.00  0.00    +0.000 C 
ATOM     27  O   UNL     1      10.059  14.249  17.413  0.00  0.00    +0.000 OA
ENDBRANCH  20  27
ENDBRANCH  19  23
ENDBRANCH  17  19
ENDBRANCH   1  17
TORSDOF 5
ENDMDL
MODEL 8
REMARK VINA RESULT:      -7.3      4.063      6.309
REMARK  Name = 
REMARK  7 active torsions:
REMARK  status: ('A' for Active; 'I' for Inactive)
REMARK    1  A    between atoms: C_1  and  O_2
REMARK    2  A    between atoms: O_2  and  C_3
REMARK    3  A    between atoms: C_6  and  C_7
REMARK    4  A    between atoms: C_7  and  N_8
REMARK    5  A    between atoms: N_8  and  S_9
REMARK    6  A    between atoms: S_9  and  C_12
REMARK    7  A    between atoms: C_19  and  C_20
REMARK                            x       y       z     vdW  Elec       q    Type
REMARK                         _______ _______ _______ _____ _____    ______ ____
ROOT
ATOM      1  S   UNL     1       7.351   6.249  17.391  0.00  0.00    +0.000 S 
ATOM      2  O   UNL     1       7.508   6.211  15.954  0.00  0.00    +0.000 OA
ATOM      3  O   UNL     1       8.178   5.458  18.272  0.00  0.00    +0.000 OA
ENDROOT
BRANCH   1   4
ATOM      4  C   UNL     1       5.644   5.878  17.761  0.00  0.00    +0.000 A 
ATOM      5  C   UNL     1       4.747   5.816  16.683  0.00  0.00    +0.000 A 
ATOM      6  C   UNL     1       3.665   4.943  16.753  0.00  0.00    +0.000 A 
ATOM      7  C   UNL     1       3.501   4.193  17.903  0.00  0.00    +0.000 A 
ATOM      8  C   UNL     1       4.167   4.543  19.082  0.00  0.00    +0.000 A 
ATOM      9  C   UNL     1       5.321   5.311  19.001  0.00  0.00    +0.000 A 
ATOM     10  N   UNL     1       3.804   3.799  20.241  0.00  0.00    +0.000 N 
ATOM     11  C   UNL     1       2.483   4.048  20.709  0.00  0.00    +0.000 C 
ATOM     12  C   UNL     1       1.908   3.036  21.675  0.00  0.00    +0.000 C 
ATOM     13  O   UNL     1       1.796   5.014  20.365  0.00  0.00    +0.000 OA
ATOM     14  C   UNL     1       4.119   2.406  19.936  0.00  0.00    +0.000 C 
ATOM     15  C   UNL     1       3.352   1.964  18.664  0.00  0.00    +0.000 C 
ATOM     16  O   UNL     1       2.769   3.027  17.854  0.00  0.00    +0.000 OA
ENDBRANCH   1   4
BRANCH   1  17
ATOM     17  N   UNL     1       7.496   7.860  17.823  0.00  0.00    +0.000 NA
ATOM     18  H   UNL     1       7.372   8.480  17.019  0.00  0.00    +0.000 HD
BRANCH  17  19
ATOM     19  C   UNL     1       8.591   8.199  18.728  0.00  0.00    +0.000 C 
BRANCH  19  23
ATOM     20  C   UNL     1       9.289  12.446  18.877  0.00  0.00    +0.000 A 
ATOM     21  C   UNL     1       9.671  11.638  19.943  0.00  0.00    +0.000 A 
ATOM     22  C   UNL     1       9.447  10.263  19.898  0.00  0.00    +0.000 A 
ATOM     23  C   UNL     1       8.818   9.686  18.786  0.00  0.00    +0.000 A 
ATOM     24  C   UNL     1       8.411  10.512  17.730  0.00  0.00    +0.000 A 
ATOM     25  C   UNL     1       8.648  11.887  17.773  0.00  0.00    +0.000 A 
BRANCH  20  27
ATOM     26  C   UNL     1       9.752  14.520  17.832  0.00  0.00    +0.000 C 
ATOM     27  O   UNL     1       9.559  13.786  19.036  0.00  0.00    +0.000 OA
ENDBRANCH  20  27
ENDBRANCH  19  23
ENDBRANCH  17  19
ENDBRANCH   1  17
TORSDOF 5
ENDMDL
MODEL 9
REMARK VINA RESULT:      -7.2      3.641      6.005
REMARK  Name = 
REMARK  7 active torsions:
REMARK  status: ('A' for Active; 'I' for Inactive)
REMARK    1  A    between atoms: C_1  and  O_2
REMARK    2  A    between atoms: O_2  and  C_3
REMARK    3  A    between atoms: C_6  and  C_7
REMARK    4  A    between atoms: C_7  and  N_8
REMARK    5  A    between atoms: N_8  and  S_9
REMARK    6  A    between atoms: S_9  and  C_12
REMARK    7  A    between atoms: C_19  and  C_20
REMARK                            x       y       z     vdW  Elec       q    Type
REMARK                         _______ _______ _______ _____ _____    ______ ____
ROOT
ATOM      1  S   UNL     1       7.613   5.693  17.953  0.00  0.00    +0.000 S 
ATOM      2  O   UNL     1       8.160   4.659  17.104  0.00  0.00    +0.000 OA
ATOM      3  O   UNL     1       8.082   5.901  19.303  0.00  0.00    +0.000 OA
ENDROOT
BRANCH   1   4
ATOM      4  C   UNL     1       5.843   5.462  18.017  0.00  0.00    +0.000 A 
ATOM      5  C   UNL     1       5.146   5.460  16.799  0.00  0.00    +0.000 A 
ATOM      6  C   UNL     1       4.003   4.677  16.675  0.00  0.00    +0.000 A 
ATOM      7  C   UNL     1       3.581   3.954  17.777  0.00  0.00    +0.000 A 
ATOM      8  C   UNL     1       4.057   4.262  19.055  0.00  0.00    +0.000 A 
ATOM      9  C   UNL     1       5.265   4.935  19.180  0.00  0.00    +0.000 A 
ATOM     10  N   UNL     1       3.439   3.561  20.130  0.00  0.00    +0.000 N 
ATOM     11  C   UNL     1       2.081   3.919  20.360  0.00  0.00    +0.000 C 
ATOM     12  C   UNL     1       1.266   2.966  21.207  0.00  0.00    +0.000 C 
ATOM     13  O   UNL     1       1.543   4.933  19.905  0.00  0.00    +0.000 OA
ATOM     14  C   UNL     1       3.690   2.145  19.879  0.00  0.00    +0.000 C 
ATOM     15  C   UNL     1       3.125   1.751  18.492  0.00  0.00    +0.000 C 
ATOM     16  O   UNL     1       2.779   2.848  17.596  0.00  0.00    +0.000 OA
ENDBRANCH   1   4
BRANCH   1  17
ATOM     17  N   UNL     1       7.783   7.122  17.099  0.00  0.00    +0.000 NA
ATOM     18  H   UNL     1       8.757   7.293  16.837  0.00  0.00    +0.000 HD
BRANCH  17  19
ATOM     19  C   UNL     1       7.046   8.279  17.604  0.00  0.00    +0.000 C 
BRANCH  19  23
ATOM     20  C   UNL     1       9.745  11.421  18.780  0.00  0.00    +0.000 A 
ATOM     21  C   UNL     1       9.786  10.189  19.422  0.00  0.00    +0.000 A 
ATOM     22  C   UNL     1       8.914   9.169  19.043  0.00  0.00    +0.000 A 
ATOM     23  C   UNL     1       7.976   9.384  18.025  0.00  0.00    +0.000 A 
ATOM     24  C   UNL     1       7.923  10.638  17.404  0.00  0.00    +0.000 A 
ATOM     25  C   UNL     1       8.805  11.654  17.777  0.00  0.00    +0.000 A 
BRANCH  20  27
ATOM     26  C   UNL     1      10.498  12.735  20.600  0.00  0.00    +0.000 C 
ATOM     27  O   UNL     1      10.651  12.349  19.240  0.00  0.00    +0.000 OA
ENDBRANCH  20  27
ENDBRANCH  19  23
ENDBRANCH  17  19
ENDBRANCH   1  17
TORSDOF 5
ENDMDL
