MODEL 1
REMARK VINA RESULT:      -7.5      0.000      0.000
REMARK  Name = 
REMARK  9 active torsions:
REMARK  status: ('A' for Active; 'I' for Inactive)
REMARK    1  A    between atoms: C_1  and  O_2
REMARK    2  A    between atoms: O_2  and  C_3
REMARK    3  A    between atoms: C_6  and  C_7
REMARK    4  A    between atoms: C_7  and  C_9
REMARK    5  A    between atoms: N_12  and  C_13
REMARK    6  A    between atoms: C_16  and  C_18
REMARK    7  A    between atoms: C_21  and  O_22
REMARK    8  A    between atoms: O_22  and  C_23
REMARK    9  A    between atoms: C_28  and  O_29
REMARK                            x       y       z     vdW  Elec       q    Type
REMARK                         _______ _______ _______ _____ _____    ______ ____
ROOT
ATOM      1  C   UNL     1       2.044   6.090  18.952  0.00  0.00    +0.000 C 
ATOM      2  C   UNL     1       2.759   7.442  19.005  0.00  0.00    +0.000 C 
ATOM      3  N   UNL     1       1.895   8.438  19.562  0.00  0.00    +0.000 N 
ATOM      4  C   UNL     1       1.303   9.299  18.642  0.00  0.00    +0.000 C 
ATOM      5  O   UNL     1       1.516   9.225  17.427  0.00  0.00    +0.000 OA
ATOM      6  C   UNL     1       1.678   8.210  20.992  0.00  0.00    +0.000 C 
ATOM      7  C   UNL     1       1.016   6.841  21.199  0.00  0.00    +0.000 C 
ATOM      8  C   UNL     1       1.749   5.701  20.448  0.00  0.00    +0.000 C 
ENDROOT
BRANCH   1  12
ATOM      9  C   UNL     1       5.673   5.613  18.305  0.00  0.00    +0.000 C 
ATOM     10  C   UNL     1       4.970   4.694  19.312  0.00  0.00    +0.000 C 
ATOM     11  C   UNL     1       3.619   4.137  18.865  0.00  0.00    +0.000 C 
ATOM     12  N   UNL     1       2.745   5.064  18.147  0.00  0.00    +0.000 NA
ATOM     13  C   UNL     1       3.441   5.612  16.974  0.00  0.00    +0.000 C 
ATOM     14  C   UNL     1       4.802   6.265  17.219  0.00  0.00    +0.000 C 
BRANCH   9  15
ATOM     15  C   UNL     1       6.848   4.915  17.644  0.00  0.00    +0.000 C 
ATOM     16  O   UNL     1       7.841   4.573  18.290  0.00  0.00    +0.000 OA
BRANCH  15  20
ATOM     17  C   UNL     1       6.556   4.001  13.449  0.00  0.00    +0.000 A 
ATOM     18  C   UNL     1       5.824   3.278  14.393  0.00  0.00    +0.000 A 
ATOM     19  C   UNL     1       5.925   3.583  15.753  0.00  0.00    +0.000 A 
ATOM     20  C   UNL     1       6.777   4.606  16.182  0.00  0.00    +0.000 A 
ATOM     21  C   UNL     1       7.519   5.318  15.232  0.00  0.00    +0.000 A 
ATOM     22  C   UNL     1       7.415   5.011  13.875  0.00  0.00    +0.000 A 
BRANCH  17  24
ATOM     23  C   UNL     1       5.065   3.169  11.819  0.00  0.00    +0.000 C 
ATOM     24  O   UNL     1       6.374   3.627  12.147  0.00  0.00    +0.000 OA
ENDBRANCH  17  24
ENDBRANCH  15  20
ENDBRANCH   9  15
ENDBRANCH   1  12
BRANCH   4  25
ATOM     25  C   UNL     1       0.419  10.390  19.082  0.00  0.00    +0.000 A 
ATOM     26  C   UNL     1      -0.936  10.318  18.733  0.00  0.00    +0.000 A 
ATOM     27  C   UNL     1      -1.805  11.337  19.116  0.00  0.00    +0.000 A 
ATOM     28  C   UNL     1      -1.322  12.425  19.847  0.00  0.00    +0.000 A 
ATOM     29  C   UNL     1       0.029  12.490  20.184  0.00  0.00    +0.000 A 
ATOM     30  C   UNL     1       0.884  11.446  19.858  0.00  0.00    +0.000 A 
BRANCH  28  31
ATOM     31  O   UNL     1      -2.245  13.372  20.181  0.00  0.00    +0.000 OA
ATOM     32  C   UNL     1      -3.482  12.827  20.632  0.00  0.00    +0.000 C 
ENDBRANCH  28  31
ENDBRANCH   4  25
BRANCH   8  33
ATOM     33  O   UNL     1       0.955   4.518  20.579  0.00  0.00    +0.000 OA
ATOM     34  H   UNL     1       1.159   4.111  21.439  0.00  0.00    +0.000 HD
ENDBRANCH   8  33
TORSDOF 7
ENDMDL
MODEL 2
REMARK VINA RESULT:      -7.3      4.737      9.195
REMARK  Name = 
REMARK  9 active torsions:
REMARK  status: ('A' for Active; 'I' for Inactive)
REMARK    1  A    between atoms: C_1  and  O_2
REMARK    2  A    between atoms: O_2  and  C_3
REMARK    3  A    between atoms: C_6  and  C_7
REMARK    4  A    between atoms: C_7  and  C_9
REMARK    5  A    between atoms: N_12  and  C_13
REMARK    6  A    between atoms: C_16  and  C_18
REMARK    7  A    between atoms: C_21  and  O_22
REMARK    8  A    between atoms: O_22  and  C_23
REMARK    9  A    between atoms: C_28  and  O_29
REMARK                            x       y       z     vdW  Elec       q    Type
REMARK                         _______ _______ _______ _____ _____    ______ ____
ROOT
ATOM      1  C   UNL     1       0.564  11.973  20.263  0.00  0.00    +0.000 C 
ATOM      2  C   UNL     1       0.188  11.069  19.086  0.00  0.00    +0.000 C 
ATOM      3  N   UNL     1       0.501   9.706  19.390  0.00  0.00    +0.000 N 
ATOM      4  C   UNL     1       1.666   9.214  18.806  0.00  0.00    +0.000 C 
ATOM      5  O   UNL     1       2.379   9.898  18.063  0.00  0.00    +0.000 OA
ATOM      6  C   UNL     1      -0.398   9.172  20.415  0.00  0.00    +0.000 C 
ATOM      7  C   UNL     1      -0.246   9.990  21.705  0.00  0.00    +0.000 C 
ATOM      8  C   UNL     1      -0.347  11.517  21.463  0.00  0.00    +0.000 C 
ENDROOT
BRANCH   1  12
ATOM      9  C   UNL     1       3.193  14.159  18.805  0.00  0.00    +0.000 C 
ATOM     10  C   UNL     1       2.032  13.695  17.914  0.00  0.00    +0.000 C 
ATOM     11  C   UNL     1       0.642  13.795  18.538  0.00  0.00    +0.000 C 
ATOM     12  N   UNL     1       0.538  13.419  19.949  0.00  0.00    +0.000 NA
ATOM     13  C   UNL     1       1.477  14.214  20.755  0.00  0.00    +0.000 C 
ATOM     14  C   UNL     1       2.943  14.205  20.320  0.00  0.00    +0.000 C 
BRANCH   9  15
ATOM     15  C   UNL     1       3.735  15.502  18.352  0.00  0.00    +0.000 C 
ATOM     16  O   UNL     1       2.985  16.415  17.998  0.00  0.00    +0.000 OA
BRANCH  15  20
ATOM     17  C   UNL     1       7.997  16.102  18.327  0.00  0.00    +0.000 A 
ATOM     18  C   UNL     1       7.437  14.910  17.862  0.00  0.00    +0.000 A 
ATOM     19  C   UNL     1       6.052  14.725  17.874  0.00  0.00    +0.000 A 
ATOM     20  C   UNL     1       5.214  15.729  18.369  0.00  0.00    +0.000 A 
ATOM     21  C   UNL     1       5.782  16.917  18.847  0.00  0.00    +0.000 A 
ATOM     22  C   UNL     1       7.165  17.097  18.833  0.00  0.00    +0.000 A 
BRANCH  17  24
ATOM     23  C   UNL     1      10.025  14.975  17.891  0.00  0.00    +0.000 C 
ATOM     24  O   UNL     1       9.359  16.180  18.260  0.00  0.00    +0.000 OA
ENDBRANCH  17  24
ENDBRANCH  15  20
ENDBRANCH   9  15
ENDBRANCH   1  12
BRANCH   4  25
ATOM     25  C   UNL     1       2.086   7.819  19.007  0.00  0.00    +0.000 A 
ATOM     26  C   UNL     1       2.722   7.166  17.943  0.00  0.00    +0.000 A 
ATOM     27  C   UNL     1       3.123   5.839  18.085  0.00  0.00    +0.000 A 
ATOM     28  C   UNL     1       2.891   5.167  19.286  0.00  0.00    +0.000 A 
ATOM     29  C   UNL     1       2.253   5.824  20.337  0.00  0.00    +0.000 A 
ATOM     30  C   UNL     1       1.908   7.164  20.221  0.00  0.00    +0.000 A 
BRANCH  28  31
ATOM     31  O   UNL     1       3.321   3.874  19.336  0.00  0.00    +0.000 OA
ATOM     32  C   UNL     1       2.921   3.098  18.209  0.00  0.00    +0.000 C 
ENDBRANCH  28  31
ENDBRANCH   4  25
BRANCH   8  33
ATOM     33  O   UNL     1      -0.028  12.171  22.694  0.00  0.00    +0.000 OA
ATOM     34  H   UNL     1      -0.568  12.979  22.756  0.00  0.00    +0.000 HD
ENDBRANCH   8  33
TORSDOF 7
ENDMDL
MODEL 3
REMARK VINA RESULT:      -7.3      2.248      4.036
REMARK  Name = 
REMARK  9 active torsions:
REMARK  status: ('A' for Active; 'I' for Inactive)
REMARK    1  A    between atoms: C_1  and  O_2
REMARK    2  A    between atoms: O_2  and  C_3
REMARK    3  A    between atoms: C_6  and  C_7
REMARK    4  A    between atoms: C_7  and  C_9
REMARK    5  A    between atoms: N_12  and  C_13
REMARK    6  A    between atoms: C_16  and  C_18
REMARK    7  A    between atoms: C_21  and  O_22
REMARK    8  A    between atoms: O_22  and  C_23
REMARK    9  A    between atoms: C_28  and  O_29
REMARK                            x       y       z     vdW  Elec       q    Type
REMARK                         _______ _______ _______ _____ _____    ______ ____
ROOT
ATOM      1  C   UNL     1       1.102   8.898  20.002  0.00  0.00    +0.000 C 
ATOM      2  C   UNL     1       1.075   9.957  18.897  0.00  0.00    +0.000 C 
ATOM      3  N   UNL     1      -0.224  10.554  18.815  0.00  0.00    +0.000 N 
ATOM      4  C   UNL     1      -1.027  10.100  17.773  0.00  0.00    +0.000 C 
ATOM      5  O   UNL     1      -0.646   9.250  16.959  0.00  0.00    +0.000 OA
ATOM      6  C   UNL     1      -0.493  11.398  19.981  0.00  0.00    +0.000 C 
ATOM      7  C   UNL     1      -0.445  10.543  21.255  0.00  0.00    +0.000 C 
ATOM      8  C   UNL     1       0.833   9.672  21.345  0.00  0.00    +0.000 C 
ENDROOT
BRANCH   1  12
ATOM      9  C   UNL     1       1.510   5.371  18.904  0.00  0.00    +0.000 C 
ATOM     10  C   UNL     1       2.005   6.497  17.987  0.00  0.00    +0.000 C 
ATOM     11  C   UNL     1       2.797   7.607  18.675  0.00  0.00    +0.000 C 
ATOM     12  N   UNL     1       2.304   8.035  19.985  0.00  0.00    +0.000 NA
ATOM     13  C   UNL     1       2.216   6.884  20.894  0.00  0.00    +0.000 C 
ATOM     14  C   UNL     1       1.415   5.676  20.407  0.00  0.00    +0.000 C 
BRANCH   9  15
ATOM     15  C   UNL     1       2.319   4.101  18.707  0.00  0.00    +0.000 C 
ATOM     16  O   UNL     1       1.860   2.993  18.992  0.00  0.00    +0.000 OA
BRANCH  15  20
ATOM     17  C   UNL     1       6.231   4.420  16.943  0.00  0.00    +0.000 A 
ATOM     18  C   UNL     1       5.121   4.078  16.168  0.00  0.00    +0.000 A 
ATOM     19  C   UNL     1       3.854   3.977  16.751  0.00  0.00    +0.000 A 
ATOM     20  C   UNL     1       3.692   4.202  18.121  0.00  0.00    +0.000 A 
ATOM     21  C   UNL     1       4.812   4.531  18.895  0.00  0.00    +0.000 A 
ATOM     22  C   UNL     1       6.074   4.631  18.310  0.00  0.00    +0.000 A 
BRANCH  17  24
ATOM     23  C   UNL     1       7.318   4.833  14.888  0.00  0.00    +0.000 C 
ATOM     24  O   UNL     1       7.418   4.500  16.270  0.00  0.00    +0.000 OA
ENDBRANCH  17  24
ENDBRANCH  15  20
ENDBRANCH   9  15
ENDBRANCH   1  12
BRANCH   4  25
ATOM     25  C   UNL     1      -2.372  10.655  17.552  0.00  0.00    +0.000 A 
ATOM     26  C   UNL     1      -3.015  11.265  18.637  0.00  0.00    +0.000 A 
ATOM     27  C   UNL     1      -4.296  11.790  18.477  0.00  0.00    +0.000 A 
ATOM     28  C   UNL     1      -4.931  11.707  17.236  0.00  0.00    +0.000 A 
ATOM     29  C   UNL     1      -4.285  11.093  16.165  0.00  0.00    +0.000 A 
ATOM     30  C   UNL     1      -2.985  10.625  16.305  0.00  0.00    +0.000 A 
BRANCH  28  31
ATOM     31  O   UNL     1      -6.180  12.251  17.172  0.00  0.00    +0.000 OA
ATOM     32  C   UNL     1      -7.052  11.798  18.204  0.00  0.00    +0.000 C 
ENDBRANCH  28  31
ENDBRANCH   4  25
BRANCH   8  33
ATOM     33  O   UNL     1       0.687   8.808  22.476  0.00  0.00    +0.000 OA
ATOM     34  H   UNL     1       1.528   8.805  22.965  0.00  0.00    +0.000 HD
ENDBRANCH   8  33
TORSDOF 7
ENDMDL
MODEL 4
REMARK VINA RESULT:      -7.3      3.888     12.484
REMARK  Name = 
REMARK  9 active torsions:
REMARK  status: ('A' for Active; 'I' for Inactive)
REMARK    1  A    between atoms: C_1  and  O_2
REMARK    2  A    between atoms: O_2  and  C_3
REMARK    3  A    between atoms: C_6  and  C_7
REMARK    4  A    between atoms: C_7  and  C_9
REMARK    5  A    between atoms: N_12  and  C_13
REMARK    6  A    between atoms: C_16  and  C_18
REMARK    7  A    between atoms: C_21  and  O_22
REMARK    8  A    between atoms: O_22  and  C_23
REMARK    9  A    between atoms: C_28  and  O_29
REMARK                            x       y       z     vdW  Elec       q    Type
REMARK                         _______ _______ _______ _____ _____    ______ ____
ROOT
ATOM      1  C   UNL     1      -0.716  13.456  20.414  0.00  0.00    +0.000 C 
ATOM      2  C   UNL     1       0.307  12.685  21.252  0.00  0.00    +0.000 C 
ATOM      3  N   UNL     1       0.990  11.724  20.439  0.00  0.00    +0.000 N 
ATOM      4  C   UNL     1       0.560  10.408  20.578  0.00  0.00    +0.000 C 
ATOM      5  O   UNL     1      -0.340  10.080  21.360  0.00  0.00    +0.000 OA
ATOM      6  C   UNL     1       1.887  12.380  19.486  0.00  0.00    +0.000 C 
ATOM      7  C   UNL     1       1.072  13.291  18.558  0.00  0.00    +0.000 C 
ATOM      8  C   UNL     1       0.118  14.236  19.330  0.00  0.00    +0.000 C 
ENDROOT
BRANCH   1  12
ATOM      9  C   UNL     1      -3.203  12.430  22.978  0.00  0.00    +0.000 C 
ATOM     10  C   UNL     1      -1.884  13.068  23.434  0.00  0.00    +0.000 C 
ATOM     11  C   UNL     1      -1.450  14.309  22.657  0.00  0.00    +0.000 C 
ATOM     12  N   UNL     1      -1.660  14.272  21.210  0.00  0.00    +0.000 NA
ATOM     13  C   UNL     1      -3.073  13.998  20.910  0.00  0.00    +0.000 C 
ATOM     14  C   UNL     1      -3.690  12.758  21.558  0.00  0.00    +0.000 C 
BRANCH   9  15
ATOM     15  C   UNL     1      -4.324  12.711  23.963  0.00  0.00    +0.000 C 
ATOM     16  O   UNL     1      -4.540  11.968  24.922  0.00  0.00    +0.000 OA
BRANCH  15  20
ATOM     17  C   UNL     1      -6.649  16.290  23.413  0.00  0.00    +0.000 A 
ATOM     18  C   UNL     1      -5.362  16.347  23.950  0.00  0.00    +0.000 A 
ATOM     19  C   UNL     1      -4.614  15.179  24.125  0.00  0.00    +0.000 A 
ATOM     20  C   UNL     1      -5.159  13.939  23.777  0.00  0.00    +0.000 A 
ATOM     21  C   UNL     1      -6.456  13.886  23.251  0.00  0.00    +0.000 A 
ATOM     22  C   UNL     1      -7.198  15.055  23.078  0.00  0.00    +0.000 A 
BRANCH  17  24
ATOM     23  C   UNL     1      -6.433  18.629  23.179  0.00  0.00    +0.000 C 
ATOM     24  O   UNL     1      -7.286  17.492  23.276  0.00  0.00    +0.000 OA
ENDBRANCH  17  24
ENDBRANCH  15  20
ENDBRANCH   9  15
ENDBRANCH   1  12
BRANCH   4  25
ATOM     25  C   UNL     1       1.199   9.316  19.828  0.00  0.00    +0.000 A 
ATOM     26  C   UNL     1       1.586   8.171  20.537  0.00  0.00    +0.000 A 
ATOM     27  C   UNL     1       2.208   7.119  19.869  0.00  0.00    +0.000 A 
ATOM     28  C   UNL     1       2.442   7.210  18.495  0.00  0.00    +0.000 A 
ATOM     29  C   UNL     1       2.058   8.355  17.800  0.00  0.00    +0.000 A 
ATOM     30  C   UNL     1       1.382   9.378  18.451  0.00  0.00    +0.000 A 
BRANCH  28  31
ATOM     31  O   UNL     1       3.052   6.131  17.925  0.00  0.00    +0.000 OA
ATOM     32  C   UNL     1       2.226   4.972  17.873  0.00  0.00    +0.000 C 
ENDBRANCH  28  31
ENDBRANCH   4  25
BRANCH   8  33
ATOM     33  O   UNL     1      -0.697  14.908  18.366  0.00  0.00    +0.000 OA
ATOM     34  H   UNL     1      -1.014  14.248  17.725  0.00  0.00    +0.000 HD
ENDBRANCH   8  33
TORSDOF 7
ENDMDL
MODEL 5
REMARK VINA RESULT:      -7.3      3.863      6.564
REMARK  Name = 
REMARK  9 active torsions:
REMARK  status: ('A' for Active; 'I' for Inactive)
REMARK    1  A    between atoms: C_1  and  O_2
REMARK    2  A    between atoms: O_2  and  C_3
REMARK    3  A    between atoms: C_6  and  C_7
REMARK    4  A    between atoms: C_7  and  C_9
REMARK    5  A    between atoms: N_12  and  C_13
REMARK    6  A    between atoms: C_16  and  C_18
REMARK    7  A    between atoms: C_21  and  O_22
REMARK    8  A    between atoms: O_22  and  C_23
REMARK    9  A    between atoms: C_28  and  O_29
REMARK                            x       y       z     vdW  Elec       q    Type
REMARK                         _______ _______ _______ _____ _____    ______ ____
ROOT
ATOM      1  C   UNL     1      -0.085  12.041  19.387  0.00  0.00    +0.000 C 
ATOM      2  C   UNL     1       0.153  12.761  20.716  0.00  0.00    +0.000 C 
ATOM      3  N   UNL     1       0.877  13.976  20.497  0.00  0.00    +0.000 N 
ATOM      4  C   UNL     1       2.235  13.928  20.801  0.00  0.00    +0.000 C 
ATOM      5  O   UNL     1       2.783  12.912  21.244  0.00  0.00    +0.000 OA
ATOM      6  C   UNL     1       0.047  14.972  19.816  0.00  0.00    +0.000 C 
ATOM      7  C   UNL     1      -0.387  14.428  18.449  0.00  0.00    +0.000 C 
ATOM      8  C   UNL     1      -0.991  13.004  18.533  0.00  0.00    +0.000 C 
ENDROOT
BRANCH   1  12
ATOM      9  C   UNL     1       1.793   8.861  19.801  0.00  0.00    +0.000 C 
ATOM     10  C   UNL     1       1.112   9.487  21.025  0.00  0.00    +0.000 C 
ATOM     11  C   UNL     1      -0.316   9.982  20.804  0.00  0.00    +0.000 C 
ATOM     12  N   UNL     1      -0.577  10.652  19.529  0.00  0.00    +0.000 NA
ATOM     13  C   UNL     1      -0.201   9.776  18.410  0.00  0.00    +0.000 C 
ATOM     14  C   UNL     1       1.220   9.212  18.419  0.00  0.00    +0.000 C 
BRANCH   9  15
ATOM     15  C   UNL     1       1.882   7.350  19.931  0.00  0.00    +0.000 C 
ATOM     16  O   UNL     1       1.287   6.744  20.824  0.00  0.00    +0.000 OA
BRANCH  15  20
ATOM     17  C   UNL     1       4.117   5.103  17.020  0.00  0.00    +0.000 A 
ATOM     18  C   UNL     1       3.009   4.545  17.660  0.00  0.00    +0.000 A 
ATOM     19  C   UNL     1       2.289   5.283  18.604  0.00  0.00    +0.000 A 
ATOM     20  C   UNL     1       2.686   6.584  18.928  0.00  0.00    +0.000 A 
ATOM     21  C   UNL     1       3.806   7.134  18.292  0.00  0.00    +0.000 A 
ATOM     22  C   UNL     1       4.521   6.393  17.350  0.00  0.00    +0.000 A 
BRANCH  17  24
ATOM     23  C   UNL     1       6.151   4.466  16.005  0.00  0.00    +0.000 C 
ATOM     24  O   UNL     1       4.740   4.297  16.108  0.00  0.00    +0.000 OA
ENDBRANCH  17  24
ENDBRANCH  15  20
ENDBRANCH   9  15
ENDBRANCH   1  12
BRANCH   4  25
ATOM     25  C   UNL     1       3.089  15.117  20.656  0.00  0.00    +0.000 A 
ATOM     26  C   UNL     1       3.828  15.253  19.473  0.00  0.00    +0.000 A 
ATOM     27  C   UNL     1       4.661  16.356  19.300  0.00  0.00    +0.000 A 
ATOM     28  C   UNL     1       4.756  17.321  20.305  0.00  0.00    +0.000 A 
ATOM     29  C   UNL     1       4.021  17.173  21.480  0.00  0.00    +0.000 A 
ATOM     30  C   UNL     1       3.143  16.108  21.629  0.00  0.00    +0.000 A 
BRANCH  28  31
ATOM     31  O   UNL     1       5.592  18.367  20.047  0.00  0.00    +0.000 OA
ATOM     32  C   UNL     1       6.972  18.040  20.190  0.00  0.00    +0.000 C 
ENDBRANCH  28  31
ENDBRANCH   4  25
BRANCH   8  33
ATOM     33  O   UNL     1      -1.201  12.544  17.195  0.00  0.00    +0.000 OA
ATOM     34  H   UNL     1      -2.155  12.587  17.007  0.00  0.00    +0.000 HD
ENDBRANCH   8  33
TORSDOF 7
ENDMDL
MODEL 6
REMARK VINA RESULT:      -7.2      4.840      9.196
REMARK  Name = 
REMARK  9 active torsions:
REMARK  status: ('A' for Active; 'I' for Inactive)
REMARK    1  A    between atoms: C_1  and  O_2
REMARK    2  A    between atoms: O_2  and  C_3
REMARK    3  A    between atoms: C_6  and  C_7
REMARK    4  A    between atoms: C_7  and  C_9
REMARK    5  A    between atoms: N_12  and  C_13
REMARK    6  A    between atoms: C_16  and  C_18
REMARK    7  A    between atoms: C_21  and  O_22
REMARK    8  A    between atoms: O_22  and  C_23
REMARK    9  A    between atoms: C_28  and  O_29
REMARK                            x       y       z     vdW  Elec       q    Type
REMARK                         _______ _______ _______ _____ _____    ______ ____
ROOT
ATOM      1  C   UNL     1       0.580  12.165  20.318  0.00  0.00    +0.000 C 
ATOM      2  C   UNL     1       0.181  11.278  19.137  0.00  0.00    +0.000 C 
ATOM      3  N   UNL     1       0.425   9.902  19.446  0.00  0.00    +0.000 N 
ATOM      4  C   UNL     1       1.575   9.356  18.882  0.00  0.00    +0.000 C 
ATOM      5  O   UNL     1       2.331  10.005  18.150  0.00  0.00    +0.000 OA
ATOM      6  C   UNL     1      -0.513   9.412  20.458  0.00  0.00    +0.000 C 
ATOM      7  C   UNL     1      -0.345  10.225  21.749  0.00  0.00    +0.000 C 
ATOM      8  C   UNL     1      -0.371  11.754  21.504  0.00  0.00    +0.000 C 
ENDROOT
BRANCH   1  12
ATOM      9  C   UNL     1       3.275  14.196  18.762  0.00  0.00    +0.000 C 
ATOM     10  C   UNL     1       2.058  13.800  17.915  0.00  0.00    +0.000 C 
ATOM     11  C   UNL     1       0.700  13.980  18.589  0.00  0.00    +0.000 C 
ATOM     12  N   UNL     1       0.626  13.611  20.003  0.00  0.00    +0.000 NA
ATOM     13  C   UNL     1       1.637  14.350  20.773  0.00  0.00    +0.000 C 
ATOM     14  C   UNL     1       3.084  14.256  20.285  0.00  0.00    +0.000 C 
BRANCH   9  15
ATOM     15  C   UNL     1       3.878  15.506  18.286  0.00  0.00    +0.000 C 
ATOM     16  O   UNL     1       3.172  16.426  17.869  0.00  0.00    +0.000 OA
BRANCH  15  20
ATOM     17  C   UNL     1       8.152  15.986  18.425  0.00  0.00    +0.000 A 
ATOM     18  C   UNL     1       7.577  14.829  17.895  0.00  0.00    +0.000 A 
ATOM     19  C   UNL     1       6.187  14.683  17.854  0.00  0.00    +0.000 A 
ATOM     20  C   UNL     1       5.361  15.690  18.361  0.00  0.00    +0.000 A 
ATOM     21  C   UNL     1       5.943  16.842  18.905  0.00  0.00    +0.000 A 
ATOM     22  C   UNL     1       7.331  16.984  18.943  0.00  0.00    +0.000 A 
BRANCH  17  24
ATOM     23  C   UNL     1      10.101  16.440  17.172  0.00  0.00    +0.000 C 
ATOM     24  O   UNL     1       9.518  16.028  18.406  0.00  0.00    +0.000 OA
ENDBRANCH  17  24
ENDBRANCH  15  20
ENDBRANCH   9  15
ENDBRANCH   1  12
BRANCH   4  25
ATOM     25  C   UNL     1       1.927   7.943  19.091  0.00  0.00    +0.000 A 
ATOM     26  C   UNL     1       1.727   7.399  20.367  0.00  0.00    +0.000 A 
ATOM     27  C   UNL     1       2.061   6.069  20.613  0.00  0.00    +0.000 A 
ATOM     28  C   UNL     1       2.592   5.284  19.587  0.00  0.00    +0.000 A 
ATOM     29  C   UNL     1       2.791   5.836  18.323  0.00  0.00    +0.000 A 
ATOM     30  C   UNL     1       2.402   7.142  18.058  0.00  0.00    +0.000 A 
BRANCH  28  31
ATOM     31  O   UNL     1       2.884   3.994  19.918  0.00  0.00    +0.000 OA
ATOM     32  C   UNL     1       2.288   3.571  21.141  0.00  0.00    +0.000 C 
ENDBRANCH  28  31
ENDBRANCH   4  25
BRANCH   8  33
ATOM     33  O   UNL     1      -0.042  12.395  22.740  0.00  0.00    +0.000 OA
ATOM     34  H   UNL     1      -0.622  12.032  23.432  0.00  0.00    +0.000 HD
ENDBRANCH   8  33
TORSDOF 7
ENDMDL
MODEL 7
REMARK VINA RESULT:      -7.2      5.071      9.453
REMARK  Name = 
REMARK  9 active torsions:
REMARK  status: ('A' for Active; 'I' for Inactive)
REMARK    1  A    between atoms: C_1  and  O_2
REMARK    2  A    between atoms: O_2  and  C_3
REMARK    3  A    between atoms: C_6  and  C_7
REMARK    4  A    between atoms: C_7  and  C_9
REMARK    5  A    between atoms: N_12  and  C_13
REMARK    6  A    between atoms: C_16  and  C_18
REMARK    7  A    between atoms: C_21  and  O_22
REMARK    8  A    between atoms: O_22  and  C_23
REMARK    9  A    between atoms: C_28  and  O_29
REMARK                            x       y       z     vdW  Elec       q    Type
REMARK                         _______ _______ _______ _____ _____    ______ ____
ROOT
ATOM      1  C   UNL     1       0.630  12.633  20.373  0.00  0.00    +0.000 C 
ATOM      2  C   UNL     1       0.204  11.786  19.172  0.00  0.00    +0.000 C 
ATOM      3  N   UNL     1       0.417  10.397  19.445  0.00  0.00    +0.000 N 
ATOM      4  C   UNL     1       1.551   9.838  18.862  0.00  0.00    +0.000 C 
ATOM      5  O   UNL     1       2.319  10.487  18.143  0.00  0.00    +0.000 OA
ATOM      6  C   UNL     1      -0.529   9.905  20.449  0.00  0.00    +0.000 C 
ATOM      7  C   UNL     1      -0.336  10.680  21.759  0.00  0.00    +0.000 C 
ATOM      8  C   UNL     1      -0.325  12.215  21.552  0.00  0.00    +0.000 C 
ENDROOT
BRANCH   1  12
ATOM      9  C   UNL     1       3.494  14.699  19.215  0.00  0.00    +0.000 C 
ATOM     10  C   UNL     1       2.398  14.318  18.211  0.00  0.00    +0.000 C 
ATOM     11  C   UNL     1       0.963  14.482  18.708  0.00  0.00    +0.000 C 
ATOM     12  N   UNL     1       0.710  14.084  20.094  0.00  0.00    +0.000 NA
ATOM     13  C   UNL     1       1.611  14.810  21.001  0.00  0.00    +0.000 C 
ATOM     14  C   UNL     1       3.108  14.729  20.702  0.00  0.00    +0.000 C 
BRANCH   9  15
ATOM     15  C   UNL     1       4.146  16.019  18.846  0.00  0.00    +0.000 C 
ATOM     16  O   UNL     1       3.501  17.069  18.808  0.00  0.00    +0.000 OA
BRANCH  15  20
ATOM     17  C   UNL     1       8.380  16.148  18.085  0.00  0.00    +0.000 A 
ATOM     18  C   UNL     1       7.719  17.241  18.648  0.00  0.00    +0.000 A 
ATOM     19  C   UNL     1       6.343  17.190  18.892  0.00  0.00    +0.000 A 
ATOM     20  C   UNL     1       5.614  16.045  18.556  0.00  0.00    +0.000 A 
ATOM     21  C   UNL     1       6.280  14.957  17.979  0.00  0.00    +0.000 A 
ATOM     22  C   UNL     1       7.654  15.012  17.738  0.00  0.00    +0.000 A 
BRANCH  17  24
ATOM     23  C   UNL     1      10.263  17.553  18.324  0.00  0.00    +0.000 C 
ATOM     24  O   UNL     1       9.726  16.302  17.900  0.00  0.00    +0.000 OA
ENDBRANCH  17  24
ENDBRANCH  15  20
ENDBRANCH   9  15
ENDBRANCH   1  12
BRANCH   4  25
ATOM     25  C   UNL     1       1.869   8.412  19.034  0.00  0.00    +0.000 A 
ATOM     26  C   UNL     1       2.361   7.712  17.924  0.00  0.00    +0.000 A 
ATOM     27  C   UNL     1       2.662   6.356  18.038  0.00  0.00    +0.000 A 
ATOM     28  C   UNL     1       2.472   5.702  19.257  0.00  0.00    +0.000 A 
ATOM     29  C   UNL     1       1.977   6.406  20.353  0.00  0.00    +0.000 A 
ATOM     30  C   UNL     1       1.736   7.770  20.260  0.00  0.00    +0.000 A 
BRANCH  28  31
ATOM     31  O   UNL     1       2.796   4.377  19.277  0.00  0.00    +0.000 OA
ATOM     32  C   UNL     1       2.273   3.680  20.404  0.00  0.00    +0.000 C 
ENDBRANCH  28  31
ENDBRANCH   4  25
BRANCH   8  33
ATOM     33  O   UNL     1       0.024  12.816  22.803  0.00  0.00    +0.000 OA
ATOM     34  H   UNL     1      -0.675  13.451  23.038  0.00  0.00    +0.000 HD
ENDBRANCH   8  33
TORSDOF 7
ENDMDL
MODEL 8
REMARK VINA RESULT:      -7.2      0.608      1.031
REMARK  Name = 
REMARK  9 active torsions:
REMARK  status: ('A' for Active; 'I' for Inactive)
REMARK    1  A    between atoms: C_1  and  O_2
REMARK    2  A    between atoms: O_2  and  C_3
REMARK    3  A    between atoms: C_6  and  C_7
REMARK    4  A    between atoms: C_7  and  C_9
REMARK    5  A    between atoms: N_12  and  C_13
REMARK    6  A    between atoms: C_16  and  C_18
REMARK    7  A    between atoms: C_21  and  O_22
REMARK    8  A    between atoms: O_22  and  C_23
REMARK    9  A    between atoms: C_28  and  O_29
REMARK                            x       y       z     vdW  Elec       q    Type
REMARK                         _______ _______ _______ _____ _____    ______ ____
ROOT
ATOM      1  C   UNL     1       2.068   6.133  18.856  0.00  0.00    +0.000 C 
ATOM      2  C   UNL     1       2.751   7.493  19.025  0.00  0.00    +0.000 C 
ATOM      3  N   UNL     1       1.874   8.407  19.692  0.00  0.00    +0.000 N 
ATOM      4  C   UNL     1       1.241   9.337  18.872  0.00  0.00    +0.000 C 
ATOM      5  O   UNL     1       1.429   9.385  17.651  0.00  0.00    +0.000 OA
ATOM      6  C   UNL     1       1.694   8.038  21.098  0.00  0.00    +0.000 C 
ATOM      7  C   UNL     1       1.072   6.638  21.184  0.00  0.00    +0.000 C 
ATOM      8  C   UNL     1       1.816   5.595  20.313  0.00  0.00    +0.000 C 
ENDROOT
BRANCH   1  12
ATOM      9  C   UNL     1       5.708   5.573  18.355  0.00  0.00    +0.000 C 
ATOM     10  C   UNL     1       4.901   4.547  19.163  0.00  0.00    +0.000 C 
ATOM     11  C   UNL     1       3.561   4.138  18.556  0.00  0.00    +0.000 C 
ATOM     12  N   UNL     1       2.776   5.209  17.942  0.00  0.00    +0.000 NA
ATOM     13  C   UNL     1       3.571   5.894  16.912  0.00  0.00    +0.000 C 
ATOM     14  C   UNL     1       4.939   6.429  17.336  0.00  0.00    +0.000 C 
BRANCH   9  15
ATOM     15  C   UNL     1       6.893   4.924  17.663  0.00  0.00    +0.000 C 
ATOM     16  O   UNL     1       7.912   4.615  18.283  0.00  0.00    +0.000 OA
BRANCH  15  20
ATOM     17  C   UNL     1       6.538   4.041  13.466  0.00  0.00    +0.000 A 
ATOM     18  C   UNL     1       5.754   3.373  14.408  0.00  0.00    +0.000 A 
ATOM     19  C   UNL     1       5.876   3.667  15.769  0.00  0.00    +0.000 A 
ATOM     20  C   UNL     1       6.800   4.624  16.200  0.00  0.00    +0.000 A 
ATOM     21  C   UNL     1       7.594   5.281  15.252  0.00  0.00    +0.000 A 
ATOM     22  C   UNL     1       7.468   4.985  13.894  0.00  0.00    +0.000 A 
BRANCH  17  24
ATOM     23  C   UNL     1       5.040   3.152  11.872  0.00  0.00    +0.000 C 
ATOM     24  O   UNL     1       6.330   3.684  12.163  0.00  0.00    +0.000 OA
ENDBRANCH  17  24
ENDBRANCH  15  20
ENDBRANCH   9  15
ENDBRANCH   1  12
BRANCH   4  25
ATOM     25  C   UNL     1       0.341  10.357  19.432  0.00  0.00    +0.000 A 
ATOM     26  C   UNL     1       0.826  11.158  20.475  0.00  0.00    +0.000 A 
ATOM     27  C   UNL     1       0.002  12.126  21.045  0.00  0.00    +0.000 A 
ATOM     28  C   UNL     1      -1.302  12.294  20.574  0.00  0.00    +0.000 A 
ATOM     29  C   UNL     1      -1.776  11.489  19.541  0.00  0.00    +0.000 A 
ATOM     30  C   UNL     1      -0.938  10.566  18.929  0.00  0.00    +0.000 A 
BRANCH  28  31
ATOM     31  O   UNL     1      -2.033  13.268  21.189  0.00  0.00    +0.000 OA
ATOM     32  C   UNL     1      -1.335  13.923  22.244  0.00  0.00    +0.000 C 
ENDBRANCH  28  31
ENDBRANCH   4  25
BRANCH   8  33
ATOM     33  O   UNL     1       1.054   4.385  20.345  0.00  0.00    +0.000 OA
ATOM     34  H   UNL     1       0.839   4.139  19.428  0.00  0.00    +0.000 HD
ENDBRANCH   8  33
TORSDOF 7
ENDMDL
MODEL 9
REMARK VINA RESULT:      -7.0      2.406      4.448
REMARK  Name = 
REMARK  9 active torsions:
REMARK  status: ('A' for Active; 'I' for Inactive)
REMARK    1  A    between atoms: C_1  and  O_2
REMARK    2  A    between atoms: O_2  and  C_3
REMARK    3  A    between atoms: C_6  and  C_7
REMARK    4  A    between atoms: C_7  and  C_9
REMARK    5  A    between atoms: N_12  and  C_13
REMARK    6  A    between atoms: C_16  and  C_18
REMARK    7  A    between atoms: C_21  and  O_22
REMARK    8  A    between atoms: O_22  and  C_23
REMARK    9  A    between atoms: C_28  and  O_29
REMARK                            x       y       z     vdW  Elec       q    Type
REMARK                         _______ _______ _______ _____ _____    ______ ____
ROOT
ATOM      1  C   UNL     1       1.001   9.015  19.913  0.00  0.00    +0.000 C 
ATOM      2  C   UNL     1       0.891  10.103  18.842  0.00  0.00    +0.000 C 
ATOM      3  N   UNL     1      -0.410  10.700  18.876  0.00  0.00    +0.000 N 
ATOM      4  C   UNL     1      -1.290  10.274  17.885  0.00  0.00    +0.000 C 
ATOM      5  O   UNL     1      -0.973   9.447  17.023  0.00  0.00    +0.000 OA
ATOM      6  C   UNL     1      -0.589  11.512  20.081  0.00  0.00    +0.000 C 
ATOM      7  C   UNL     1      -0.445  10.623  21.324  0.00  0.00    +0.000 C 
ATOM      8  C   UNL     1       0.836   9.752  21.293  0.00  0.00    +0.000 C 
ENDROOT
BRANCH   1  12
ATOM      9  C   UNL     1       1.397   5.682  18.316  0.00  0.00    +0.000 C 
ATOM     10  C   UNL     1       1.909   6.926  17.578  0.00  0.00    +0.000 C 
ATOM     11  C   UNL     1       2.702   7.917  18.428  0.00  0.00    +0.000 C 
ATOM     12  N   UNL     1       2.198   8.154  19.781  0.00  0.00    +0.000 NA
ATOM     13  C   UNL     1       2.093   6.883  20.513  0.00  0.00    +0.000 C 
ATOM     14  C   UNL     1       1.289   5.766  19.847  0.00  0.00    +0.000 C 
BRANCH   9  15
ATOM     15  C   UNL     1       2.201   4.448  17.944  0.00  0.00    +0.000 C 
ATOM     16  O   UNL     1       1.650   3.399  17.604  0.00  0.00    +0.000 OA
BRANCH  15  20
ATOM     17  C   UNL     1       6.498   4.635  18.072  0.00  0.00    +0.000 A 
ATOM     18  C   UNL     1       5.739   4.775  19.235  0.00  0.00    +0.000 A 
ATOM     19  C   UNL     1       4.343   4.712  19.184  0.00  0.00    +0.000 A 
ATOM     20  C   UNL     1       3.694   4.526  17.959  0.00  0.00    +0.000 A 
ATOM     21  C   UNL     1       4.460   4.400  16.793  0.00  0.00    +0.000 A 
ATOM     22  C   UNL     1       5.853   4.462  16.850  0.00  0.00    +0.000 A 
BRANCH  17  24
ATOM     23  C   UNL     1       8.302   5.597  19.252  0.00  0.00    +0.000 C 
ATOM     24  O   UNL     1       7.853   4.702  18.238  0.00  0.00    +0.000 OA
ENDBRANCH  17  24
ENDBRANCH  15  20
ENDBRANCH   9  15
ENDBRANCH   1  12
BRANCH   4  25
ATOM     25  C   UNL     1      -2.647  10.832  17.783  0.00  0.00    +0.000 A 
ATOM     26  C   UNL     1      -3.142  11.558  18.875  0.00  0.00    +0.000 A 
ATOM     27  C   UNL     1      -4.428  12.092  18.826  0.00  0.00    +0.000 A 
ATOM     28  C   UNL     1      -5.217  11.902  17.690  0.00  0.00    +0.000 A 
ATOM     29  C   UNL     1      -4.718  11.174  16.612  0.00  0.00    +0.000 A 
ATOM     30  C   UNL     1      -3.415  10.694  16.632  0.00  0.00    +0.000 A 
BRANCH  28  31
ATOM     31  O   UNL     1      -6.460  12.463  17.730  0.00  0.00    +0.000 OA
ATOM     32  C   UNL     1      -6.554  13.690  17.010  0.00  0.00    +0.000 C 
ENDBRANCH  28  31
ENDBRANCH   4  25
BRANCH   8  33
ATOM     33  O   UNL     1       0.775   8.857  22.408  0.00  0.00    +0.000 OA
ATOM     34  H   UNL     1       0.826   9.386  23.223  0.00  0.00    +0.000 HD
ENDBRANCH   8  33
TORSDOF 7
ENDMDL
