MODEL 1
REMARK VINA RESULT:      -6.9      0.000      0.000
REMARK  Name = 
REMARK  10 active torsions:
REMARK  status: ('A' for Active; 'I' for Inactive)
REMARK    1  A    between atoms: C_1  and  C_2
REMARK    2  A    between atoms: C_4  and  C_5
REMARK    3  A    between atoms: C_5  and  C_6
REMARK    4  A    between atoms: C_6  and  C_7
REMARK    5  A    between atoms: C_7  and  C_8
REMARK    6  A    between atoms: C_8  and  C_9
REMARK    7  A    between atoms: C_9  and  O_10
REMARK    8  A    between atoms: O_10  and  C_11
REMARK    9  A    between atoms: C_14  and  C_15
REMARK   10  A    between atoms: C_21  and  C_22
REMARK                            x       y       z     vdW  Elec       q    Type
REMARK                         _______ _______ _______ _____ _____    ______ ____
ROOT
ATOM      1  O   UNL     1       7.403   6.395  17.351  0.00  0.00    +0.000 OA
ENDROOT
BRANCH   1   2
ATOM      2  C   UNL     1       6.242   5.788  17.770  0.00  0.00    +0.000 A 
ATOM      3  C   UNL     1       6.027   5.364  19.086  0.00  0.00    +0.000 A 
ATOM      4  C   UNL     1       4.827   4.755  19.446  0.00  0.00    +0.000 A 
ATOM      5  C   UNL     1       3.819   4.568  18.501  0.00  0.00    +0.000 A 
ATOM      6  C   UNL     1       4.012   5.014  17.189  0.00  0.00    +0.000 A 
ATOM      7  C   UNL     1       5.221   5.634  16.813  0.00  0.00    +0.000 A 
ATOM      8  C   UNL     1       5.408   6.110  15.399  0.00  0.00    +0.000 C 
BRANCH   5   9
ATOM      9  C   UNL     1       2.590   3.886  18.937  0.00  0.00    +0.000 C 
ATOM     10  N   UNL     1       2.102   3.910  20.138  0.00  0.00    +0.000 NA
ATOM     11  C   UNL     1       0.867   3.130  20.013  0.00  0.00    +0.000 C 
ATOM     12  C   UNL     1       1.007   2.401  18.697  0.00  0.00    +0.000 C 
ATOM     13  O   UNL     1       1.963   3.165  17.978  0.00  0.00    +0.000 OA
ENDBRANCH   5   9
ENDBRANCH   1   2
BRANCH   1  14
ATOM     14  C   UNL     1       8.036   7.225  18.328  0.00  0.00    +0.000 C 
BRANCH  14  15
ATOM     15  C   UNL     1       7.999   8.672  17.855  0.00  0.00    +0.000 C 
BRANCH  15  16
ATOM     16  C   UNL     1       8.774   9.576  18.817  0.00  0.00    +0.000 C 
BRANCH  16  17
ATOM     17  C   UNL     1       9.405  10.748  18.071  0.00  0.00    +0.000 C 
BRANCH  17  18
ATOM     18  C   UNL     1       9.239  12.065  18.831  0.00  0.00    +0.000 C 
BRANCH  18  22
ATOM     19  C   UNL     1      11.327  16.296  16.894  0.00  0.00    +0.000 C 
ATOM     20  C   UNL     1      10.944  14.920  17.277  0.00  0.00    +0.000 A 
ATOM     21  C   UNL     1       9.998  14.510  18.241  0.00  0.00    +0.000 A 
ATOM     22  C   UNL     1      10.012  13.139  18.165  0.00  0.00    +0.000 A 
ATOM     23  O   UNL     1      10.921  12.750  17.232  0.00  0.00    +0.000 OA
ATOM     24  N   UNL     1      11.510  13.869  16.671  0.00  0.00    +0.000 NA
ENDBRANCH  18  22
ENDBRANCH  17  18
ENDBRANCH  16  17
ENDBRANCH  15  16
ENDBRANCH  14  15
ENDBRANCH   1  14
TORSDOF 8
ENDMDL
MODEL 2
REMARK VINA RESULT:      -6.9      5.540      8.346
REMARK  Name = 
REMARK  10 active torsions:
REMARK  status: ('A' for Active; 'I' for Inactive)
REMARK    1  A    between atoms: C_1  and  C_2
REMARK    2  A    between atoms: C_4  and  C_5
REMARK    3  A    between atoms: C_5  and  C_6
REMARK    4  A    between atoms: C_6  and  C_7
REMARK    5  A    between atoms: C_7  and  C_8
REMARK    6  A    between atoms: C_8  and  C_9
REMARK    7  A    between atoms: C_9  and  O_10
REMARK    8  A    between atoms: O_10  and  C_11
REMARK    9  A    between atoms: C_14  and  C_15
REMARK   10  A    between atoms: C_21  and  C_22
REMARK                            x       y       z     vdW  Elec       q    Type
REMARK                         _______ _______ _______ _____ _____    ______ ____
ROOT
ATOM      1  O   UNL     1       2.596   6.261  20.262  0.00  0.00    +0.000 OA
ENDROOT
BRANCH   1   2
ATOM      2  C   UNL     1       1.970   7.459  20.009  0.00  0.00    +0.000 A 
ATOM      3  C   UNL     1       1.169   8.121  20.945  0.00  0.00    +0.000 A 
ATOM      4  C   UNL     1       0.561   9.333  20.626  0.00  0.00    +0.000 A 
ATOM      5  C   UNL     1       0.751   9.908  19.370  0.00  0.00    +0.000 A 
ATOM      6  C   UNL     1       1.573   9.269  18.435  0.00  0.00    +0.000 A 
ATOM      7  C   UNL     1       2.195   8.044  18.748  0.00  0.00    +0.000 A 
ATOM      8  C   UNL     1       3.079   7.374  17.732  0.00  0.00    +0.000 C 
BRANCH   5   9
ATOM      9  C   UNL     1       0.053  11.171  19.083  0.00  0.00    +0.000 C 
ATOM     10  N   UNL     1       0.613  12.262  18.660  0.00  0.00    +0.000 NA
ATOM     11  C   UNL     1      -0.519  13.176  18.489  0.00  0.00    +0.000 C 
ATOM     12  C   UNL     1      -1.654  12.524  19.243  0.00  0.00    +0.000 C 
ATOM     13  O   UNL     1      -1.281  11.157  19.317  0.00  0.00    +0.000 OA
ENDBRANCH   5   9
ENDBRANCH   1   2
BRANCH   1  14
ATOM     14  C   UNL     1       1.718   5.147  20.439  0.00  0.00    +0.000 C 
BRANCH  14  15
ATOM     15  C   UNL     1       2.383   3.892  19.890  0.00  0.00    +0.000 C 
BRANCH  15  16
ATOM     16  C   UNL     1       2.195   3.798  18.374  0.00  0.00    +0.000 C 
BRANCH  16  17
ATOM     17  C   UNL     1       3.344   3.026  17.732  0.00  0.00    +0.000 C 
BRANCH  17  18
ATOM     18  C   UNL     1       4.101   3.873  16.708  0.00  0.00    +0.000 C 
BRANCH  18  22
ATOM     19  C   UNL     1       8.068   5.798  19.269  0.00  0.00    +0.000 C 
ATOM     20  C   UNL     1       7.143   5.152  18.314  0.00  0.00    +0.000 A 
ATOM     21  C   UNL     1       5.759   4.913  18.460  0.00  0.00    +0.000 A 
ATOM     22  C   UNL     1       5.392   4.327  17.274  0.00  0.00    +0.000 A 
ATOM     23  O   UNL     1       6.486   4.203  16.476  0.00  0.00    +0.000 OA
ATOM     24  N   UNL     1       7.591   4.721  17.129  0.00  0.00    +0.000 NA
ENDBRANCH  18  22
ENDBRANCH  17  18
ENDBRANCH  16  17
ENDBRANCH  15  16
ENDBRANCH  14  15
ENDBRANCH   1  14
TORSDOF 8
ENDMDL
MODEL 3
REMARK VINA RESULT:      -6.9      5.992      9.054
REMARK  Name = 
REMARK  10 active torsions:
REMARK  status: ('A' for Active; 'I' for Inactive)
REMARK    1  A    between atoms: C_1  and  C_2
REMARK    2  A    between atoms: C_4  and  C_5
REMARK    3  A    between atoms: C_5  and  C_6
REMARK    4  A    between atoms: C_6  and  C_7
REMARK    5  A    between atoms: C_7  and  C_8
REMARK    6  A    between atoms: C_8  and  C_9
REMARK    7  A    between atoms: C_9  and  O_10
REMARK    8  A    between atoms: O_10  and  C_11
REMARK    9  A    between atoms: C_14  and  C_15
REMARK   10  A    between atoms: C_21  and  C_22
REMARK                            x       y       z     vdW  Elec       q    Type
REMARK                         _______ _______ _______ _____ _____    ______ ____
ROOT
ATOM      1  O   UNL     1       2.746   6.024  20.223  0.00  0.00    +0.000 OA
ENDROOT
BRANCH   1   2
ATOM      2  C   UNL     1       2.132   7.225  19.951  0.00  0.00    +0.000 A 
ATOM      3  C   UNL     1       1.356   7.921  20.885  0.00  0.00    +0.000 A 
ATOM      4  C   UNL     1       0.760   9.133  20.546  0.00  0.00    +0.000 A 
ATOM      5  C   UNL     1       0.936   9.675  19.273  0.00  0.00    +0.000 A 
ATOM      6  C   UNL     1       1.733   9.001  18.341  0.00  0.00    +0.000 A 
ATOM      7  C   UNL     1       2.344   7.776  18.673  0.00  0.00    +0.000 A 
ATOM      8  C   UNL     1       3.200   7.069  17.658  0.00  0.00    +0.000 C 
BRANCH   5   9
ATOM      9  C   UNL     1       0.251  10.940  18.967  0.00  0.00    +0.000 C 
ATOM     10  N   UNL     1      -0.951  11.050  18.493  0.00  0.00    +0.000 NA
ATOM     11  C   UNL     1      -1.155  12.500  18.427  0.00  0.00    +0.000 C 
ATOM     12  C   UNL     1       0.230  13.087  18.563  0.00  0.00    +0.000 C 
ATOM     13  O   UNL     1       0.983  12.058  19.188  0.00  0.00    +0.000 OA
ENDBRANCH   5   9
ENDBRANCH   1   2
BRANCH   1  14
ATOM     14  C   UNL     1       1.935   5.077  20.923  0.00  0.00    +0.000 C 
BRANCH  14  15
ATOM     15  C   UNL     1       0.970   4.423  19.943  0.00  0.00    +0.000 C 
BRANCH  15  16
ATOM     16  C   UNL     1       1.148   2.903  19.942  0.00  0.00    +0.000 C 
BRANCH  16  17
ATOM     17  C   UNL     1       1.562   2.407  18.560  0.00  0.00    +0.000 C 
BRANCH  17  18
ATOM     18  C   UNL     1       2.947   1.757  18.577  0.00  0.00    +0.000 C 
BRANCH  18  22
ATOM     19  C   UNL     1       6.514   5.381  18.968  0.00  0.00    +0.000 C 
ATOM     20  C   UNL     1       5.523   4.371  18.539  0.00  0.00    +0.000 A 
ATOM     21  C   UNL     1       4.792   3.466  19.337  0.00  0.00    +0.000 A 
ATOM     22  C   UNL     1       3.999   2.792  18.442  0.00  0.00    +0.000 A 
ATOM     23  O   UNL     1       4.250   3.247  17.186  0.00  0.00    +0.000 OA
ATOM     24  N   UNL     1       5.211   4.242  17.243  0.00  0.00    +0.000 NA
ENDBRANCH  18  22
ENDBRANCH  17  18
ENDBRANCH  16  17
ENDBRANCH  15  16
ENDBRANCH  14  15
ENDBRANCH   1  14
TORSDOF 8
ENDMDL
MODEL 4
REMARK VINA RESULT:      -6.8      5.451      8.234
REMARK  Name = 
REMARK  10 active torsions:
REMARK  status: ('A' for Active; 'I' for Inactive)
REMARK    1  A    between atoms: C_1  and  C_2
REMARK    2  A    between atoms: C_4  and  C_5
REMARK    3  A    between atoms: C_5  and  C_6
REMARK    4  A    between atoms: C_6  and  C_7
REMARK    5  A    between atoms: C_7  and  C_8
REMARK    6  A    between atoms: C_8  and  C_9
REMARK    7  A    between atoms: C_9  and  O_10
REMARK    8  A    between atoms: O_10  and  C_11
REMARK    9  A    between atoms: C_14  and  C_15
REMARK   10  A    between atoms: C_21  and  C_22
REMARK                            x       y       z     vdW  Elec       q    Type
REMARK                         _______ _______ _______ _____ _____    ______ ____
ROOT
ATOM      1  O   UNL     1       2.719   5.592  19.583  0.00  0.00    +0.000 OA
ENDROOT
BRANCH   1   2
ATOM      2  C   UNL     1       2.146   6.823  19.799  0.00  0.00    +0.000 A 
ATOM      3  C   UNL     1       1.451   7.154  20.969  0.00  0.00    +0.000 A 
ATOM      4  C   UNL     1       0.892   8.420  21.126  0.00  0.00    +0.000 A 
ATOM      5  C   UNL     1       1.024   9.379  20.123  0.00  0.00    +0.000 A 
ATOM      6  C   UNL     1       1.740   9.069  18.961  0.00  0.00    +0.000 A 
ATOM      7  C   UNL     1       2.313   7.793  18.792  0.00  0.00    +0.000 A 
ATOM      8  C   UNL     1       3.082   7.480  17.538  0.00  0.00    +0.000 C 
BRANCH   5   9
ATOM      9  C   UNL     1       0.380  10.685  20.336  0.00  0.00    +0.000 C 
ATOM     10  N   UNL     1      -0.550  11.196  19.590  0.00  0.00    +0.000 NA
ATOM     11  C   UNL     1      -0.866  12.458  20.264  0.00  0.00    +0.000 C 
ATOM     12  C   UNL     1       0.288  12.683  21.213  0.00  0.00    +0.000 C 
ATOM     13  O   UNL     1       0.846  11.390  21.394  0.00  0.00    +0.000 OA
ENDBRANCH   5   9
ENDBRANCH   1   2
BRANCH   1  14
ATOM     14  C   UNL     1       1.797   4.502  19.510  0.00  0.00    +0.000 C 
BRANCH  14  15
ATOM     15  C   UNL     1       1.636   4.078  18.056  0.00  0.00    +0.000 C 
BRANCH  15  16
ATOM     16  C   UNL     1       2.137   2.647  17.850  0.00  0.00    +0.000 C 
BRANCH  16  17
ATOM     17  C   UNL     1       3.656   2.619  17.714  0.00  0.00    +0.000 C 
BRANCH  17  18
ATOM     18  C   UNL     1       4.169   3.726  16.793  0.00  0.00    +0.000 C 
BRANCH  18  22
ATOM     19  C   UNL     1       8.091   5.930  19.196  0.00  0.00    +0.000 C 
ATOM     20  C   UNL     1       7.176   5.217  18.279  0.00  0.00    +0.000 A 
ATOM     21  C   UNL     1       5.817   4.888  18.477  0.00  0.00    +0.000 A 
ATOM     22  C   UNL     1       5.448   4.269  17.309  0.00  0.00    +0.000 A 
ATOM     23  O   UNL     1       6.517   4.212  16.471  0.00  0.00    +0.000 OA
ATOM     24  N   UNL     1       7.608   4.807  17.080  0.00  0.00    +0.000 NA
ENDBRANCH  18  22
ENDBRANCH  17  18
ENDBRANCH  16  17
ENDBRANCH  15  16
ENDBRANCH  14  15
ENDBRANCH   1  14
TORSDOF 8
ENDMDL
MODEL 5
REMARK VINA RESULT:      -6.8      5.769      8.317
REMARK  Name = 
REMARK  10 active torsions:
REMARK  status: ('A' for Active; 'I' for Inactive)
REMARK    1  A    between atoms: C_1  and  C_2
REMARK    2  A    between atoms: C_4  and  C_5
REMARK    3  A    between atoms: C_5  and  C_6
REMARK    4  A    between atoms: C_6  and  C_7
REMARK    5  A    between atoms: C_7  and  C_8
REMARK    6  A    between atoms: C_8  and  C_9
REMARK    7  A    between atoms: C_9  and  O_10
REMARK    8  A    between atoms: O_10  and  C_11
REMARK    9  A    between atoms: C_14  and  C_15
REMARK   10  A    between atoms: C_21  and  C_22
REMARK                            x       y       z     vdW  Elec       q    Type
REMARK                         _______ _______ _______ _____ _____    ______ ____
ROOT
ATOM      1  O   UNL     1       4.970   3.886  19.540  0.00  0.00    +0.000 OA
ENDROOT
BRANCH   1   2
ATOM      2  C   UNL     1       5.393   4.056  18.243  0.00  0.00    +0.000 A 
ATOM      3  C   UNL     1       4.704   3.547  17.136  0.00  0.00    +0.000 A 
ATOM      4  C   UNL     1       5.186   3.754  15.846  0.00  0.00    +0.000 A 
ATOM      5  C   UNL     1       6.359   4.480  15.639  0.00  0.00    +0.000 A 
ATOM      6  C   UNL     1       7.040   5.018  16.736  0.00  0.00    +0.000 A 
ATOM      7  C   UNL     1       6.560   4.818  18.046  0.00  0.00    +0.000 A 
ATOM      8  C   UNL     1       7.305   5.407  19.212  0.00  0.00    +0.000 C 
BRANCH   5   9
ATOM      9  C   UNL     1       6.834   4.632  14.255  0.00  0.00    +0.000 C 
ATOM     10  N   UNL     1       6.457   3.910  13.246  0.00  0.00    +0.000 NA
ATOM     11  C   UNL     1       7.181   4.505  12.119  0.00  0.00    +0.000 C 
ATOM     12  C   UNL     1       8.250   5.359  12.760  0.00  0.00    +0.000 C 
ATOM     13  O   UNL     1       7.761   5.602  14.070  0.00  0.00    +0.000 OA
ENDBRANCH   5   9
ENDBRANCH   1   2
BRANCH   1  14
ATOM     14  C   UNL     1       4.408   2.603  19.828  0.00  0.00    +0.000 C 
BRANCH  14  15
ATOM     15  C   UNL     1       2.977   2.555  19.309  0.00  0.00    +0.000 C 
BRANCH  15  16
ATOM     16  C   UNL     1       1.981   2.506  20.471  0.00  0.00    +0.000 C 
BRANCH  16  17
ATOM     17  C   UNL     1       1.225   3.825  20.593  0.00  0.00    +0.000 C 
BRANCH  17  18
ATOM     18  C   UNL     1       2.096   4.929  21.194  0.00  0.00    +0.000 C 
BRANCH  18  22
ATOM     19  C   UNL     1       2.505   8.640  17.719  0.00  0.00    +0.000 C 
ATOM     20  C   UNL     1       2.215   7.783  18.889  0.00  0.00    +0.000 A 
ATOM     21  C   UNL     1       2.509   6.414  19.066  0.00  0.00    +0.000 A 
ATOM     22  C   UNL     1       2.059   6.135  20.333  0.00  0.00    +0.000 A 
ATOM     23  O   UNL     1       1.513   7.256  20.874  0.00  0.00    +0.000 OA
ATOM     24  N   UNL     1       1.609   8.296  19.966  0.00  0.00    +0.000 NA
ENDBRANCH  18  22
ENDBRANCH  17  18
ENDBRANCH  16  17
ENDBRANCH  15  16
ENDBRANCH  14  15
ENDBRANCH   1  14
TORSDOF 8
ENDMDL
MODEL 6
REMARK VINA RESULT:      -6.8      5.126      8.103
REMARK  Name = 
REMARK  10 active torsions:
REMARK  status: ('A' for Active; 'I' for Inactive)
REMARK    1  A    between atoms: C_1  and  C_2
REMARK    2  A    between atoms: C_4  and  C_5
REMARK    3  A    between atoms: C_5  and  C_6
REMARK    4  A    between atoms: C_6  and  C_7
REMARK    5  A    between atoms: C_7  and  C_8
REMARK    6  A    between atoms: C_8  and  C_9
REMARK    7  A    between atoms: C_9  and  O_10
REMARK    8  A    between atoms: O_10  and  C_11
REMARK    9  A    between atoms: C_14  and  C_15
REMARK   10  A    between atoms: C_21  and  C_22
REMARK                            x       y       z     vdW  Elec       q    Type
REMARK                         _______ _______ _______ _____ _____    ______ ____
ROOT
ATOM      1  O   UNL     1       2.666   6.183  19.830  0.00  0.00    +0.000 OA
ENDROOT
BRANCH   1   2
ATOM      2  C   UNL     1       2.014   7.393  19.863  0.00  0.00    +0.000 A 
ATOM      3  C   UNL     1       1.259   7.831  20.958  0.00  0.00    +0.000 A 
ATOM      4  C   UNL     1       0.621   9.069  20.928  0.00  0.00    +0.000 A 
ATOM      5  C   UNL     1       0.733   9.894  19.810  0.00  0.00    +0.000 A 
ATOM      6  C   UNL     1       1.508   9.479  18.721  0.00  0.00    +0.000 A 
ATOM      7  C   UNL     1       2.161   8.230  18.740  0.00  0.00    +0.000 A 
ATOM      8  C   UNL     1       2.992   7.803  17.562  0.00  0.00    +0.000 C 
BRANCH   5   9
ATOM      9  C   UNL     1       0.006  11.173  19.827  0.00  0.00    +0.000 C 
ATOM     10  N   UNL     1       0.048  12.050  20.782  0.00  0.00    +0.000 NA
ATOM     11  C   UNL     1      -0.797  13.136  20.277  0.00  0.00    +0.000 C 
ATOM     12  C   UNL     1      -1.565  12.521  19.130  0.00  0.00    +0.000 C 
ATOM     13  O   UNL     1      -0.780  11.401  18.748  0.00  0.00    +0.000 OA
ENDBRANCH   5   9
ENDBRANCH   1   2
BRANCH   1  14
ATOM     14  C   UNL     1       1.957   5.099  20.435  0.00  0.00    +0.000 C 
BRANCH  14  15
ATOM     15  C   UNL     1       1.777   3.985  19.412  0.00  0.00    +0.000 C 
BRANCH  15  16
ATOM     16  C   UNL     1       1.942   4.524  17.990  0.00  0.00    +0.000 C 
BRANCH  16  17
ATOM     17  C   UNL     1       2.948   3.688  17.206  0.00  0.00    +0.000 C 
BRANCH  17  18
ATOM     18  C   UNL     1       4.286   3.568  17.937  0.00  0.00    +0.000 C 
BRANCH  18  22
ATOM     19  C   UNL     1       7.473   7.526  17.502  0.00  0.00    +0.000 C 
ATOM     20  C   UNL     1       6.519   6.413  17.310  0.00  0.00    +0.000 A 
ATOM     21  C   UNL     1       6.071   5.468  18.259  0.00  0.00    +0.000 A 
ATOM     22  C   UNL     1       5.175   4.693  17.565  0.00  0.00    +0.000 A 
ATOM     23  O   UNL     1       5.103   5.129  16.280  0.00  0.00    +0.000 OA
ATOM     24  N   UNL     1       5.950   6.212  16.115  0.00  0.00    +0.000 NA
ENDBRANCH  18  22
ENDBRANCH  17  18
ENDBRANCH  16  17
ENDBRANCH  15  16
ENDBRANCH  14  15
ENDBRANCH   1  14
TORSDOF 8
ENDMDL
MODEL 7
REMARK VINA RESULT:      -6.8      5.908      8.139
REMARK  Name = 
REMARK  10 active torsions:
REMARK  status: ('A' for Active; 'I' for Inactive)
REMARK    1  A    between atoms: C_1  and  C_2
REMARK    2  A    between atoms: C_4  and  C_5
REMARK    3  A    between atoms: C_5  and  C_6
REMARK    4  A    between atoms: C_6  and  C_7
REMARK    5  A    between atoms: C_7  and  C_8
REMARK    6  A    between atoms: C_8  and  C_9
REMARK    7  A    between atoms: C_9  and  O_10
REMARK    8  A    between atoms: O_10  and  C_11
REMARK    9  A    between atoms: C_14  and  C_15
REMARK   10  A    between atoms: C_21  and  C_22
REMARK                            x       y       z     vdW  Elec       q    Type
REMARK                         _______ _______ _______ _____ _____    ______ ____
ROOT
ATOM      1  O   UNL     1       2.730   6.566  18.936  0.00  0.00    +0.000 OA
ENDROOT
BRANCH   1   2
ATOM      2  C   UNL     1       2.074   7.568  19.612  0.00  0.00    +0.000 A 
ATOM      3  C   UNL     1       1.692   7.469  20.955  0.00  0.00    +0.000 A 
ATOM      4  C   UNL     1       1.028   8.520  21.582  0.00  0.00    +0.000 A 
ATOM      5  C   UNL     1       0.742   9.691  20.881  0.00  0.00    +0.000 A 
ATOM      6  C   UNL     1       1.143   9.813  19.546  0.00  0.00    +0.000 A 
ATOM      7  C   UNL     1       1.818   8.757  18.902  0.00  0.00    +0.000 A 
ATOM      8  C   UNL     1       2.245   8.908  17.468  0.00  0.00    +0.000 C 
BRANCH   5   9
ATOM      9  C   UNL     1       0.006  10.750  21.590  0.00  0.00    +0.000 C 
ATOM     10  N   UNL     1       0.313  12.011  21.587  0.00  0.00    +0.000 NA
ATOM     11  C   UNL     1      -0.754  12.617  22.388  0.00  0.00    +0.000 C 
ATOM     12  C   UNL     1      -1.403  11.455  23.102  0.00  0.00    +0.000 C 
ATOM     13  O   UNL     1      -1.056  10.327  22.314  0.00  0.00    +0.000 OA
ENDBRANCH   5   9
ENDBRANCH   1   2
BRANCH   1  14
ATOM     14  C   UNL     1       2.686   5.284  19.567  0.00  0.00    +0.000 C 
BRANCH  14  15
ATOM     15  C   UNL     1       3.391   4.265  18.682  0.00  0.00    +0.000 C 
BRANCH  15  16
ATOM     16  C   UNL     1       4.852   4.098  19.108  0.00  0.00    +0.000 C 
BRANCH  16  17
ATOM     17  C   UNL     1       5.692   5.282  18.642  0.00  0.00    +0.000 C 
BRANCH  17  18
ATOM     18  C   UNL     1       7.008   4.835  18.004  0.00  0.00    +0.000 C 
BRANCH  18  22
ATOM     19  C   UNL     1       6.066   3.752  13.110  0.00  0.00    +0.000 C 
ATOM     20  C   UNL     1       6.508   4.311  14.406  0.00  0.00    +0.000 A 
ATOM     21  C   UNL     1       6.128   3.914  15.706  0.00  0.00    +0.000 A 
ATOM     22  C   UNL     1       6.856   4.733  16.534  0.00  0.00    +0.000 A 
ATOM     23  O   UNL     1       7.608   5.579  15.782  0.00  0.00    +0.000 OA
ATOM     24  N   UNL     1       7.391   5.316  14.440  0.00  0.00    +0.000 NA
ENDBRANCH  18  22
ENDBRANCH  17  18
ENDBRANCH  16  17
ENDBRANCH  15  16
ENDBRANCH  14  15
ENDBRANCH   1  14
TORSDOF 8
ENDMDL
MODEL 8
REMARK VINA RESULT:      -6.8      1.147      1.234
REMARK  Name = 
REMARK  10 active torsions:
REMARK  status: ('A' for Active; 'I' for Inactive)
REMARK    1  A    between atoms: C_1  and  C_2
REMARK    2  A    between atoms: C_4  and  C_5
REMARK    3  A    between atoms: C_5  and  C_6
REMARK    4  A    between atoms: C_6  and  C_7
REMARK    5  A    between atoms: C_7  and  C_8
REMARK    6  A    between atoms: C_8  and  C_9
REMARK    7  A    between atoms: C_9  and  O_10
REMARK    8  A    between atoms: O_10  and  C_11
REMARK    9  A    between atoms: C_14  and  C_15
REMARK   10  A    between atoms: C_21  and  C_22
REMARK                            x       y       z     vdW  Elec       q    Type
REMARK                         _______ _______ _______ _____ _____    ______ ____
ROOT
ATOM      1  O   UNL     1       7.390   6.617  17.303  0.00  0.00    +0.000 OA
ENDROOT
BRANCH   1   2
ATOM      2  C   UNL     1       6.258   5.963  17.728  0.00  0.00    +0.000 A 
ATOM      3  C   UNL     1       6.132   5.386  18.997  0.00  0.00    +0.000 A 
ATOM      4  C   UNL     1       4.957   4.736  19.367  0.00  0.00    +0.000 A 
ATOM      5  C   UNL     1       3.885   4.658  18.479  0.00  0.00    +0.000 A 
ATOM      6  C   UNL     1       3.989   5.256  17.217  0.00  0.00    +0.000 A 
ATOM      7  C   UNL     1       5.171   5.918  16.833  0.00  0.00    +0.000 A 
ATOM      8  C   UNL     1       5.263   6.557  15.475  0.00  0.00    +0.000 C 
BRANCH   5   9
ATOM      9  C   UNL     1       2.685   3.927  18.916  0.00  0.00    +0.000 C 
ATOM     10  N   UNL     1       2.000   3.101  18.187  0.00  0.00    +0.000 NA
ATOM     11  C   UNL     1       0.963   2.624  19.106  0.00  0.00    +0.000 C 
ATOM     12  C   UNL     1       0.991   3.604  20.256  0.00  0.00    +0.000 C 
ATOM     13  O   UNL     1       2.283   4.188  20.182  0.00  0.00    +0.000 OA
ENDBRANCH   5   9
ENDBRANCH   1   2
BRANCH   1  14
ATOM     14  C   UNL     1       8.062   7.376  18.312  0.00  0.00    +0.000 C 
BRANCH  14  15
ATOM     15  C   UNL     1       8.076   8.844  17.907  0.00  0.00    +0.000 C 
BRANCH  15  16
ATOM     16  C   UNL     1       8.941   9.663  18.869  0.00  0.00    +0.000 C 
BRANCH  16  17
ATOM     17  C   UNL     1       9.584  10.844  18.149  0.00  0.00    +0.000 C 
BRANCH  17  18
ATOM     18  C   UNL     1      10.398  11.720  19.101  0.00  0.00    +0.000 C 
BRANCH  18  22
ATOM     19  C   UNL     1      11.016  16.185  16.715  0.00  0.00    +0.000 C 
ATOM     20  C   UNL     1      10.702  15.072  17.636  0.00  0.00    +0.000 A 
ATOM     21  C   UNL     1      10.847  13.685  17.416  0.00  0.00    +0.000 A 
ATOM     22  C   UNL     1      10.447  13.113  18.599  0.00  0.00    +0.000 A 
ATOM     23  O   UNL     1      10.069  14.089  19.466  0.00  0.00    +0.000 OA
ATOM     24  N   UNL     1      10.227  15.325  18.862  0.00  0.00    +0.000 NA
ENDBRANCH  18  22
ENDBRANCH  17  18
ENDBRANCH  16  17
ENDBRANCH  15  16
ENDBRANCH  14  15
ENDBRANCH   1  14
TORSDOF 8
ENDMDL
MODEL 9
REMARK VINA RESULT:      -6.7      5.664      7.987
REMARK  Name = 
REMARK  10 active torsions:
REMARK  status: ('A' for Active; 'I' for Inactive)
REMARK    1  A    between atoms: C_1  and  C_2
REMARK    2  A    between atoms: C_4  and  C_5
REMARK    3  A    between atoms: C_5  and  C_6
REMARK    4  A    between atoms: C_6  and  C_7
REMARK    5  A    between atoms: C_7  and  C_8
REMARK    6  A    between atoms: C_8  and  C_9
REMARK    7  A    between atoms: C_9  and  O_10
REMARK    8  A    between atoms: O_10  and  C_11
REMARK    9  A    between atoms: C_14  and  C_15
REMARK   10  A    between atoms: C_21  and  C_22
REMARK                            x       y       z     vdW  Elec       q    Type
REMARK                         _______ _______ _______ _____ _____    ______ ____
ROOT
ATOM      1  O   UNL     1       3.240   6.545  17.864  0.00  0.00    +0.000 OA
ENDROOT
BRANCH   1   2
ATOM      2  C   UNL     1       2.503   7.554  18.438  0.00  0.00    +0.000 A 
ATOM      3  C   UNL     1       2.192   8.749  17.780  0.00  0.00    +0.000 A 
ATOM      4  C   UNL     1       1.441   9.734  18.418  0.00  0.00    +0.000 A 
ATOM      5  C   UNL     1       0.981   9.538  19.720  0.00  0.00    +0.000 A 
ATOM      6  C   UNL     1       1.262   8.335  20.378  0.00  0.00    +0.000 A 
ATOM      7  C   UNL     1       2.019   7.331  19.741  0.00  0.00    +0.000 A 
ATOM      8  C   UNL     1       2.307   6.043  20.463  0.00  0.00    +0.000 C 
BRANCH   5   9
ATOM      9  C   UNL     1       0.224  10.630  20.350  0.00  0.00    +0.000 C 
ATOM     10  N   UNL     1      -0.874  11.148  19.892  0.00  0.00    +0.000 NA
ATOM     11  C   UNL     1      -1.228  12.140  20.911  0.00  0.00    +0.000 C 
ATOM     12  C   UNL     1       0.031  12.314  21.729  0.00  0.00    +0.000 C 
ATOM     13  O   UNL     1       0.767  11.124  21.488  0.00  0.00    +0.000 OA
ENDBRANCH   5   9
ENDBRANCH   1   2
BRANCH   1  14
ATOM     14  C   UNL     1       4.280   6.982  16.987  0.00  0.00    +0.000 C 
BRANCH  14  15
ATOM     15  C   UNL     1       5.625   6.820  17.683  0.00  0.00    +0.000 C 
BRANCH  15  16
ATOM     16  C   UNL     1       5.567   5.693  18.717  0.00  0.00    +0.000 C 
BRANCH  16  17
ATOM     17  C   UNL     1       6.152   4.405  18.148  0.00  0.00    +0.000 C 
BRANCH  17  18
ATOM     18  C   UNL     1       7.386   4.669  17.285  0.00  0.00    +0.000 C 
BRANCH  18  22
ATOM     19  C   UNL     1       5.802   3.538  12.571  0.00  0.00    +0.000 C 
ATOM     20  C   UNL     1       6.413   4.109  13.790  0.00  0.00    +0.000 A 
ATOM     21  C   UNL     1       6.207   3.728  15.134  0.00  0.00    +0.000 A 
ATOM     22  C   UNL     1       7.040   4.552  15.849  0.00  0.00    +0.000 A 
ATOM     23  O   UNL     1       7.690   5.387  14.994  0.00  0.00    +0.000 OA
ATOM     24  N   UNL     1       7.296   5.111  13.696  0.00  0.00    +0.000 NA
ENDBRANCH  18  22
ENDBRANCH  17  18
ENDBRANCH  16  17
ENDBRANCH  15  16
ENDBRANCH  14  15
ENDBRANCH   1  14
TORSDOF 8
ENDMDL
