MODEL 1
REMARK VINA RESULT:      -7.9      0.000      0.000
REMARK  Name = 
REMARK  8 active torsions:
REMARK  status: ('A' for Active; 'I' for Inactive)
REMARK    1  A    between atoms: C_1  and  C_2
REMARK    2  A    between atoms: C_5  and  C_6
REMARK    3  A    between atoms: C_6  and  N_7
REMARK    4  A    between atoms: N_7  and  C_8
REMARK    5  A    between atoms: C_8  and  C_9
REMARK    6  A    between atoms: C_8  and  C_26
REMARK    7  A    between atoms: C_11  and  C_12
REMARK    8  A    between atoms: C_18  and  N_19
REMARK                            x       y       z     vdW  Elec       q    Type
REMARK                         _______ _______ _______ _____ _____    ______ ____
ROOT
ATOM      1  C   UNL     1       2.186   7.066  19.284  0.00  0.00    +0.000 A 
ATOM      2  N   UNL     1       3.364   7.072  18.691  0.00  0.00    +0.000 NA
ATOM      3  C   UNL     1       3.691   5.742  18.600  0.00  0.00    +0.000 A 
ATOM      4  C   UNL     1       2.706   4.971  19.197  0.00  0.00    +0.000 A 
ATOM      5  O   UNL     1       1.715   5.822  19.608  0.00  0.00    +0.000 OA
ENDROOT
BRANCH   3   6
ATOM      6  C   UNL     1       4.882   5.286  17.904  0.00  0.00    +0.000 A 
ATOM      7  C   UNL     1       6.101   5.228  18.587  0.00  0.00    +0.000 A 
ATOM      8  C   UNL     1       7.272   4.853  17.926  0.00  0.00    +0.000 A 
ATOM      9  C   UNL     1       7.233   4.536  16.569  0.00  0.00    +0.000 A 
ATOM     10  C   UNL     1       6.027   4.586  15.876  0.00  0.00    +0.000 A 
ATOM     11  C   UNL     1       4.857   4.963  16.540  0.00  0.00    +0.000 A 
ENDBRANCH   3   6
BRANCH   4  12
ATOM     12  N   UNL     1       2.552   3.647  19.445  0.00  0.00    +0.000 N 
ATOM     13  C   UNL     1       3.390   2.963  20.434  0.00  0.00    +0.000 C 
ATOM     14  C   UNL     1       4.428   2.053  19.765  0.00  0.00    +0.000 C 
ATOM     15  O   UNL     1       3.823   1.161  18.814  0.00  0.00    +0.000 OA
ATOM     16  C   UNL     1       3.157   1.913  17.788  0.00  0.00    +0.000 C 
ATOM     17  C   UNL     1       2.030   2.784  18.374  0.00  0.00    +0.000 C 
ENDBRANCH   4  12
BRANCH   1  18
ATOM     18  C   UNL     1       1.317   8.247  19.653  0.00  0.00    +0.000 C 
BRANCH  18  19
ATOM     19  C   UNL     1       1.145   8.307  21.164  0.00  0.00    +0.000 C 
ATOM     20  C   UNL     1       0.889   9.574  21.945  0.00  0.00    +0.000 C 
ATOM     21  C   UNL     1      -0.226   8.587  21.748  0.00  0.00    +0.000 C 
ENDBRANCH  18  19
BRANCH  18  22
ATOM     22  N   UNL     1       1.883   9.536  19.189  0.00  0.00    +0.000 NA
ATOM     23  H   UNL     1       1.755  10.235  19.917  0.00  0.00    +0.000 HD
BRANCH  22  24
ATOM     24  C   UNL     1       1.211  10.004  17.967  0.00  0.00    +0.000 C 
BRANCH  24  29
ATOM     25  C   UNL     1      -4.272  11.849  18.786  0.00  0.00    +0.000 C 
ATOM     26  C   UNL     1      -2.864  11.372  18.588  0.00  0.00    +0.000 A 
ATOM     27  C   UNL     1      -1.798  11.966  19.272  0.00  0.00    +0.000 A 
ATOM     28  C   UNL     1      -0.489  11.510  19.084  0.00  0.00    +0.000 A 
ATOM     29  C   UNL     1      -0.216  10.448  18.210  0.00  0.00    +0.000 A 
ATOM     30  C   UNL     1      -1.286   9.864  17.516  0.00  0.00    +0.000 A 
ATOM     31  C   UNL     1      -2.595  10.321  17.704  0.00  0.00    +0.000 A 
ENDBRANCH  24  29
ENDBRANCH  22  24
ENDBRANCH  18  22
ENDBRANCH   1  18
TORSDOF 7
ENDMDL
MODEL 2
REMARK VINA RESULT:      -7.9      0.259      1.270
REMARK  Name = 
REMARK  8 active torsions:
REMARK  status: ('A' for Active; 'I' for Inactive)
REMARK    1  A    between atoms: C_1  and  C_2
REMARK    2  A    between atoms: C_5  and  C_6
REMARK    3  A    between atoms: C_6  and  N_7
REMARK    4  A    between atoms: N_7  and  C_8
REMARK    5  A    between atoms: C_8  and  C_9
REMARK    6  A    between atoms: C_8  and  C_26
REMARK    7  A    between atoms: C_11  and  C_12
REMARK    8  A    between atoms: C_18  and  N_19
REMARK                            x       y       z     vdW  Elec       q    Type
REMARK                         _______ _______ _______ _____ _____    ______ ____
ROOT
ATOM      1  C   UNL     1       2.050   7.112  19.501  0.00  0.00    +0.000 A 
ATOM      2  N   UNL     1       3.241   7.166  18.936  0.00  0.00    +0.000 NA
ATOM      3  C   UNL     1       3.606   5.848  18.816  0.00  0.00    +0.000 A 
ATOM      4  C   UNL     1       2.628   5.034  19.369  0.00  0.00    +0.000 A 
ATOM      5  O   UNL     1       1.605   5.847  19.780  0.00  0.00    +0.000 OA
ENDROOT
BRANCH   3   6
ATOM      6  C   UNL     1       4.825   5.443  18.136  0.00  0.00    +0.000 A 
ATOM      7  C   UNL     1       4.769   5.044  16.797  0.00  0.00    +0.000 A 
ATOM      8  C   UNL     1       5.913   4.591  16.140  0.00  0.00    +0.000 A 
ATOM      9  C   UNL     1       7.128   4.529  16.821  0.00  0.00    +0.000 A 
ATOM     10  C   UNL     1       7.200   4.925  18.154  0.00  0.00    +0.000 A 
ATOM     11  C   UNL     1       6.052   5.376  18.809  0.00  0.00    +0.000 A 
ENDBRANCH   3   6
BRANCH   4  12
ATOM     12  N   UNL     1       2.505   3.701  19.577  0.00  0.00    +0.000 N 
ATOM     13  C   UNL     1       3.418   2.991  20.476  0.00  0.00    +0.000 C 
ATOM     14  C   UNL     1       4.413   2.118  19.700  0.00  0.00    +0.000 C 
ATOM     15  O   UNL     1       3.749   1.255  18.762  0.00  0.00    +0.000 OA
ATOM     16  C   UNL     1       3.003   2.037  17.816  0.00  0.00    +0.000 C 
ATOM     17  C   UNL     1       1.914   2.872  18.515  0.00  0.00    +0.000 C 
ENDBRANCH   4  12
BRANCH   1  18
ATOM     18  C   UNL     1       1.142   8.259  19.881  0.00  0.00    +0.000 C 
BRANCH  18  19
ATOM     19  C   UNL     1       1.110   8.410  21.395  0.00  0.00    +0.000 C 
ATOM     20  C   UNL     1       0.822   9.703  22.120  0.00  0.00    +0.000 C 
ATOM     21  C   UNL     1      -0.218   8.620  22.096  0.00  0.00    +0.000 C 
ENDBRANCH  18  19
BRANCH  18  22
ATOM     22  N   UNL     1       1.572   9.547  19.286  0.00  0.00    +0.000 NA
ATOM     23  H   UNL     1       1.333  10.302  19.924  0.00  0.00    +0.000 HD
BRANCH  22  24
ATOM     24  C   UNL     1       0.901   9.790  18.000  0.00  0.00    +0.000 C 
BRANCH  24  29
ATOM     25  C   UNL     1      -4.505  11.889  18.719  0.00  0.00    +0.000 C 
ATOM     26  C   UNL     1      -3.117  11.354  18.523  0.00  0.00    +0.000 A 
ATOM     27  C   UNL     1      -2.858  10.350  17.584  0.00  0.00    +0.000 A 
ATOM     28  C   UNL     1      -1.558   9.862  17.405  0.00  0.00    +0.000 A 
ATOM     29  C   UNL     1      -0.490  10.369  18.159  0.00  0.00    +0.000 A 
ATOM     30  C   UNL     1      -0.757  11.366  19.108  0.00  0.00    +0.000 A 
ATOM     31  C   UNL     1      -2.056  11.853  19.287  0.00  0.00    +0.000 A 
ENDBRANCH  24  29
ENDBRANCH  22  24
ENDBRANCH  18  22
ENDBRANCH   1  18
TORSDOF 7
ENDMDL
MODEL 3
REMARK VINA RESULT:      -7.8      3.330      7.295
REMARK  Name = 
REMARK  8 active torsions:
REMARK  status: ('A' for Active; 'I' for Inactive)
REMARK    1  A    between atoms: C_1  and  C_2
REMARK    2  A    between atoms: C_5  and  C_6
REMARK    3  A    between atoms: C_6  and  N_7
REMARK    4  A    between atoms: N_7  and  C_8
REMARK    5  A    between atoms: C_8  and  C_9
REMARK    6  A    between atoms: C_8  and  C_26
REMARK    7  A    between atoms: C_11  and  C_12
REMARK    8  A    between atoms: C_18  and  N_19
REMARK                            x       y       z     vdW  Elec       q    Type
REMARK                         _______ _______ _______ _____ _____    ______ ____
ROOT
ATOM      1  C   UNL     1       4.779   6.295  17.512  0.00  0.00    +0.000 A 
ATOM      2  N   UNL     1       4.138   7.437  17.678  0.00  0.00    +0.000 NA
ATOM      3  C   UNL     1       2.983   7.072  18.325  0.00  0.00    +0.000 A 
ATOM      4  C   UNL     1       2.944   5.695  18.481  0.00  0.00    +0.000 A 
ATOM      5  O   UNL     1       4.120   5.194  17.989  0.00  0.00    +0.000 OA
ENDROOT
BRANCH   3   6
ATOM      6  C   UNL     1       2.023   8.053  18.802  0.00  0.00    +0.000 A 
ATOM      7  C   UNL     1       1.486   8.985  17.908  0.00  0.00    +0.000 A 
ATOM      8  C   UNL     1       0.611   9.977  18.352  0.00  0.00    +0.000 A 
ATOM      9  C   UNL     1       0.266  10.046  19.701  0.00  0.00    +0.000 A 
ATOM     10  C   UNL     1       0.790   9.123  20.603  0.00  0.00    +0.000 A 
ATOM     11  C   UNL     1       1.667   8.133  20.155  0.00  0.00    +0.000 A 
ENDBRANCH   3   6
BRANCH   4  12
ATOM     12  N   UNL     1       2.036   4.819  18.975  0.00  0.00    +0.000 N 
ATOM     13  C   UNL     1       2.077   4.401  20.379  0.00  0.00    +0.000 C 
ATOM     14  C   UNL     1       2.580   2.959  20.527  0.00  0.00    +0.000 C 
ATOM     15  O   UNL     1       1.853   2.051  19.682  0.00  0.00    +0.000 OA
ATOM     16  C   UNL     1       1.995   2.438  18.306  0.00  0.00    +0.000 C 
ATOM     17  C   UNL     1       1.421   3.845  18.059  0.00  0.00    +0.000 C 
ENDBRANCH   4  12
BRANCH   1  18
ATOM     18  C   UNL     1       6.122   6.062  16.857  0.00  0.00    +0.000 C 
BRANCH  18  19
ATOM     19  C   UNL     1       5.921   5.496  15.459  0.00  0.00    +0.000 C 
ATOM     20  C   UNL     1       7.021   4.904  14.611  0.00  0.00    +0.000 C 
ATOM     21  C   UNL     1       6.005   3.998  15.243  0.00  0.00    +0.000 C 
ENDBRANCH  18  19
BRANCH  18  22
ATOM     22  N   UNL     1       6.927   7.302  16.755  0.00  0.00    +0.000 NA
ATOM     23  H   UNL     1       7.493   7.260  15.911  0.00  0.00    +0.000 HD
BRANCH  22  24
ATOM     24  C   UNL     1       7.823   7.453  17.912  0.00  0.00    +0.000 C 
BRANCH  24  29
ATOM     25  C   UNL     1       9.523  12.972  18.802  0.00  0.00    +0.000 C 
ATOM     26  C   UNL     1       9.081  11.555  18.585  0.00  0.00    +0.000 A 
ATOM     27  C   UNL     1       9.543  10.521  19.407  0.00  0.00    +0.000 A 
ATOM     28  C   UNL     1       9.120   9.203  19.199  0.00  0.00    +0.000 A 
ATOM     29  C   UNL     1       8.225   8.891  18.166  0.00  0.00    +0.000 A 
ATOM     30  C   UNL     1       7.775   9.928  17.337  0.00  0.00    +0.000 A 
ATOM     31  C   UNL     1       8.198  11.245  17.544  0.00  0.00    +0.000 A 
ENDBRANCH  24  29
ENDBRANCH  22  24
ENDBRANCH  18  22
ENDBRANCH   1  18
TORSDOF 7
ENDMDL
MODEL 4
REMARK VINA RESULT:      -7.7      0.841      1.512
REMARK  Name = 
REMARK  8 active torsions:
REMARK  status: ('A' for Active; 'I' for Inactive)
REMARK    1  A    between atoms: C_1  and  C_2
REMARK    2  A    between atoms: C_5  and  C_6
REMARK    3  A    between atoms: C_6  and  N_7
REMARK    4  A    between atoms: N_7  and  C_8
REMARK    5  A    between atoms: C_8  and  C_9
REMARK    6  A    between atoms: C_8  and  C_26
REMARK    7  A    between atoms: C_11  and  C_12
REMARK    8  A    between atoms: C_18  and  N_19
REMARK                            x       y       z     vdW  Elec       q    Type
REMARK                         _______ _______ _______ _____ _____    ______ ____
ROOT
ATOM      1  C   UNL     1       2.219   7.300  19.357  0.00  0.00    +0.000 A 
ATOM      2  N   UNL     1       3.300   7.395  18.607  0.00  0.00    +0.000 NA
ATOM      3  C   UNL     1       3.811   6.121  18.608  0.00  0.00    +0.000 A 
ATOM      4  C   UNL     1       3.037   5.301  19.416  0.00  0.00    +0.000 A 
ATOM      5  O   UNL     1       1.986   6.053  19.871  0.00  0.00    +0.000 OA
ENDROOT
BRANCH   3   6
ATOM      6  C   UNL     1       4.962   5.750  17.803  0.00  0.00    +0.000 A 
ATOM      7  C   UNL     1       4.880   5.816  16.409  0.00  0.00    +0.000 A 
ATOM      8  C   UNL     1       5.949   5.406  15.611  0.00  0.00    +0.000 A 
ATOM      9  C   UNL     1       7.113   4.921  16.204  0.00  0.00    +0.000 A 
ATOM     10  C   UNL     1       7.212   4.851  17.592  0.00  0.00    +0.000 A 
ATOM     11  C   UNL     1       6.139   5.260  18.387  0.00  0.00    +0.000 A 
ENDBRANCH   3   6
BRANCH   4  12
ATOM     12  N   UNL     1       3.118   4.010  19.818  0.00  0.00    +0.000 N 
ATOM     13  C   UNL     1       3.131   2.916  18.843  0.00  0.00    +0.000 C 
ATOM     14  C   UNL     1       1.802   2.148  18.836  0.00  0.00    +0.000 C 
ATOM     15  O   UNL     1       1.418   1.732  20.157  0.00  0.00    +0.000 OA
ATOM     16  C   UNL     1       1.270   2.877  21.010  0.00  0.00    +0.000 C 
ATOM     17  C   UNL     1       2.596   3.649  21.146  0.00  0.00    +0.000 C 
ENDBRANCH   4  12
BRANCH   1  18
ATOM     18  C   UNL     1       1.233   8.388  19.720  0.00  0.00    +0.000 C 
BRANCH  18  19
ATOM     19  C   UNL     1       1.137   8.510  21.234  0.00  0.00    +0.000 C 
ATOM     20  C   UNL     1       0.733   9.768  21.966  0.00  0.00    +0.000 C 
ATOM     21  C   UNL     1      -0.227   8.616  21.888  0.00  0.00    +0.000 C 
ENDBRANCH  18  19
BRANCH  18  22
ATOM     22  N   UNL     1       1.611   9.708  19.161  0.00  0.00    +0.000 NA
ATOM     23  H   UNL     1       1.378  10.432  19.837  0.00  0.00    +0.000 HD
BRANCH  22  24
ATOM     24  C   UNL     1       0.889   9.983  17.910  0.00  0.00    +0.000 C 
BRANCH  24  29
ATOM     25  C   UNL     1      -4.599  11.834  18.679  0.00  0.00    +0.000 C 
ATOM     26  C   UNL     1      -3.190  11.355  18.494  0.00  0.00    +0.000 A 
ATOM     27  C   UNL     1      -2.140  11.894  19.244  0.00  0.00    +0.000 A 
ATOM     28  C   UNL     1      -0.830  11.436  19.067  0.00  0.00    +0.000 A 
ATOM     29  C   UNL     1      -0.541  10.427  18.137  0.00  0.00    +0.000 A 
ATOM     30  C   UNL     1      -1.594   9.899  17.378  0.00  0.00    +0.000 A 
ATOM     31  C   UNL     1      -2.904  10.357  17.554  0.00  0.00    +0.000 A 
ENDBRANCH  24  29
ENDBRANCH  22  24
ENDBRANCH  18  22
ENDBRANCH   1  18
TORSDOF 7
ENDMDL
MODEL 5
REMARK VINA RESULT:      -7.6      1.479      2.633
REMARK  Name = 
REMARK  8 active torsions:
REMARK  status: ('A' for Active; 'I' for Inactive)
REMARK    1  A    between atoms: C_1  and  C_2
REMARK    2  A    between atoms: C_5  and  C_6
REMARK    3  A    between atoms: C_6  and  N_7
REMARK    4  A    between atoms: N_7  and  C_8
REMARK    5  A    between atoms: C_8  and  C_9
REMARK    6  A    between atoms: C_8  and  C_26
REMARK    7  A    between atoms: C_11  and  C_12
REMARK    8  A    between atoms: C_18  and  N_19
REMARK                            x       y       z     vdW  Elec       q    Type
REMARK                         _______ _______ _______ _____ _____    ______ ____
ROOT
ATOM      1  C   UNL     1       2.578   7.293  19.041  0.00  0.00    +0.000 A 
ATOM      2  N   UNL     1       3.676   7.157  18.322  0.00  0.00    +0.000 NA
ATOM      3  C   UNL     1       3.853   5.797  18.250  0.00  0.00    +0.000 A 
ATOM      4  C   UNL     1       2.868   5.153  18.984  0.00  0.00    +0.000 A 
ATOM      5  O   UNL     1       2.022   6.116  19.466  0.00  0.00    +0.000 OA
ENDROOT
BRANCH   3   6
ATOM      6  C   UNL     1       4.904   5.197  17.447  0.00  0.00    +0.000 A 
ATOM      7  C   UNL     1       6.198   5.093  17.969  0.00  0.00    +0.000 A 
ATOM      8  C   UNL     1       7.240   4.579  17.196  0.00  0.00    +0.000 A 
ATOM      9  C   UNL     1       6.995   4.164  15.887  0.00  0.00    +0.000 A 
ATOM     10  C   UNL     1       5.712   4.258  15.355  0.00  0.00    +0.000 A 
ATOM     11  C   UNL     1       4.673   4.776  16.131  0.00  0.00    +0.000 A 
ENDBRANCH   3   6
BRANCH   4  12
ATOM     12  N   UNL     1       2.610   3.861  19.302  0.00  0.00    +0.000 N 
ATOM     13  C   UNL     1       3.484   3.119  20.215  0.00  0.00    +0.000 C 
ATOM     14  C   UNL     1       4.336   2.084  19.468  0.00  0.00    +0.000 C 
ATOM     15  O   UNL     1       3.533   1.236  18.631  0.00  0.00    +0.000 OA
ATOM     16  C   UNL     1       2.831   2.026  17.658  0.00  0.00    +0.000 C 
ATOM     17  C   UNL     1       1.878   3.028  18.335  0.00  0.00    +0.000 C 
ENDBRANCH   4  12
BRANCH   1  18
ATOM     18  C   UNL     1       1.882   8.570  19.454  0.00  0.00    +0.000 C 
BRANCH  18  19
ATOM     19  C   UNL     1       1.241   9.223  18.239  0.00  0.00    +0.000 C 
ATOM     20  C   UNL     1      -0.028  10.041  18.278  0.00  0.00    +0.000 C 
ATOM     21  C   UNL     1       1.293  10.731  18.088  0.00  0.00    +0.000 C 
ENDBRANCH  18  19
BRANCH  18  22
ATOM     22  N   UNL     1       0.835   8.341  20.478  0.00  0.00    +0.000 NA
ATOM     23  H   UNL     1      -0.037   8.758  20.157  0.00  0.00    +0.000 HD
BRANCH  22  24
ATOM     24  C   UNL     1       1.202   8.954  21.763  0.00  0.00    +0.000 C 
BRANCH  24  29
ATOM     25  C   UNL     1      -2.225  13.526  22.987  0.00  0.00    +0.000 C 
ATOM     26  C   UNL     1      -1.335  12.359  22.678  0.00  0.00    +0.000 A 
ATOM     27  C   UNL     1      -0.262  12.485  21.789  0.00  0.00    +0.000 A 
ATOM     28  C   UNL     1       0.565  11.390  21.511  0.00  0.00    +0.000 A 
ATOM     29  C   UNL     1       0.339  10.147  22.118  0.00  0.00    +0.000 A 
ATOM     30  C   UNL     1      -0.745  10.022  22.998  0.00  0.00    +0.000 A 
ATOM     31  C   UNL     1      -1.573  11.115  23.275  0.00  0.00    +0.000 A 
ENDBRANCH  24  29
ENDBRANCH  22  24
ENDBRANCH  18  22
ENDBRANCH   1  18
TORSDOF 7
ENDMDL
MODEL 6
REMARK VINA RESULT:      -7.6      2.053      4.106
REMARK  Name = 
REMARK  8 active torsions:
REMARK  status: ('A' for Active; 'I' for Inactive)
REMARK    1  A    between atoms: C_1  and  C_2
REMARK    2  A    between atoms: C_5  and  C_6
REMARK    3  A    between atoms: C_6  and  N_7
REMARK    4  A    between atoms: N_7  and  C_8
REMARK    5  A    between atoms: C_8  and  C_9
REMARK    6  A    between atoms: C_8  and  C_26
REMARK    7  A    between atoms: C_11  and  C_12
REMARK    8  A    between atoms: C_18  and  N_19
REMARK                            x       y       z     vdW  Elec       q    Type
REMARK                         _______ _______ _______ _____ _____    ______ ____
ROOT
ATOM      1  C   UNL     1       2.642   7.519  18.780  0.00  0.00    +0.000 A 
ATOM      2  N   UNL     1       2.365   6.246  18.988  0.00  0.00    +0.000 NA
ATOM      3  C   UNL     1       3.380   5.582  18.344  0.00  0.00    +0.000 A 
ATOM      4  C   UNL     1       4.218   6.492  17.717  0.00  0.00    +0.000 A 
ATOM      5  O   UNL     1       3.764   7.746  18.028  0.00  0.00    +0.000 OA
ENDROOT
BRANCH   3   6
ATOM      6  C   UNL     1       3.522   4.137  18.412  0.00  0.00    +0.000 A 
ATOM      7  C   UNL     1       2.785   3.329  17.541  0.00  0.00    +0.000 A 
ATOM      8  C   UNL     1       2.856   1.938  17.628  0.00  0.00    +0.000 A 
ATOM      9  C   UNL     1       3.665   1.341  18.594  0.00  0.00    +0.000 A 
ATOM     10  C   UNL     1       4.407   2.133  19.467  0.00  0.00    +0.000 A 
ATOM     11  C   UNL     1       4.332   3.525  19.379  0.00  0.00    +0.000 A 
ENDBRANCH   3   6
BRANCH   4  12
ATOM     12  N   UNL     1       5.303   6.388  16.912  0.00  0.00    +0.000 N 
ATOM     13  C   UNL     1       5.252   5.602  15.676  0.00  0.00    +0.000 C 
ATOM     14  C   UNL     1       6.036   4.289  15.808  0.00  0.00    +0.000 C 
ATOM     15  O   UNL     1       7.371   4.510  16.290  0.00  0.00    +0.000 OA
ATOM     16  C   UNL     1       7.331   5.140  17.580  0.00  0.00    +0.000 C 
ATOM     17  C   UNL     1       6.641   6.515  17.510  0.00  0.00    +0.000 C 
ENDBRANCH   4  12
BRANCH   1  18
ATOM     18  C   UNL     1       1.875   8.733  19.254  0.00  0.00    +0.000 C 
BRANCH  18  19
ATOM     19  C   UNL     1       1.152   9.375  18.079  0.00  0.00    +0.000 C 
ATOM     20  C   UNL     1      -0.154  10.127  18.187  0.00  0.00    +0.000 C 
ATOM     21  C   UNL     1       1.121  10.886  17.958  0.00  0.00    +0.000 C 
ENDBRANCH  18  19
BRANCH  18  22
ATOM     22  N   UNL     1       0.880   8.404  20.301  0.00  0.00    +0.000 NA
ATOM     23  H   UNL     1      -0.032   8.748  20.010  0.00  0.00    +0.000 HD
BRANCH  22  24
ATOM     24  C   UNL     1       1.229   9.031  21.585  0.00  0.00    +0.000 C 
BRANCH  24  29
ATOM     25  C   UNL     1      -2.164  13.538  23.109  0.00  0.00    +0.000 C 
ATOM     26  C   UNL     1      -1.303  12.374  22.713  0.00  0.00    +0.000 A 
ATOM     27  C   UNL     1      -1.505  11.106  23.267  0.00  0.00    +0.000 A 
ATOM     28  C   UNL     1      -0.699  10.027  22.887  0.00  0.00    +0.000 A 
ATOM     29  C   UNL     1       0.324  10.191  21.943  0.00  0.00    +0.000 A 
ATOM     30  C   UNL     1       0.532  11.467  21.399  0.00  0.00    +0.000 A 
ATOM     31  C   UNL     1      -0.273  12.547  21.780  0.00  0.00    +0.000 A 
ENDBRANCH  24  29
ENDBRANCH  22  24
ENDBRANCH  18  22
ENDBRANCH   1  18
TORSDOF 7
ENDMDL
MODEL 7
REMARK VINA RESULT:      -7.6      1.719      3.093
REMARK  Name = 
REMARK  8 active torsions:
REMARK  status: ('A' for Active; 'I' for Inactive)
REMARK    1  A    between atoms: C_1  and  C_2
REMARK    2  A    between atoms: C_5  and  C_6
REMARK    3  A    between atoms: C_6  and  N_7
REMARK    4  A    between atoms: N_7  and  C_8
REMARK    5  A    between atoms: C_8  and  C_9
REMARK    6  A    between atoms: C_8  and  C_26
REMARK    7  A    between atoms: C_11  and  C_12
REMARK    8  A    between atoms: C_18  and  N_19
REMARK                            x       y       z     vdW  Elec       q    Type
REMARK                         _______ _______ _______ _____ _____    ______ ____
ROOT
ATOM      1  C   UNL     1       2.717   7.246  18.715  0.00  0.00    +0.000 A 
ATOM      2  N   UNL     1       3.800   7.182  17.963  0.00  0.00    +0.000 NA
ATOM      3  C   UNL     1       4.014   5.835  17.812  0.00  0.00    +0.000 A 
ATOM      4  C   UNL     1       3.068   5.122  18.533  0.00  0.00    +0.000 A 
ATOM      5  O   UNL     1       2.208   6.031  19.088  0.00  0.00    +0.000 OA
ENDROOT
BRANCH   3   6
ATOM      6  C   UNL     1       5.061   5.311  16.951  0.00  0.00    +0.000 A 
ATOM      7  C   UNL     1       4.739   4.860  15.668  0.00  0.00    +0.000 A 
ATOM      8  C   UNL     1       5.714   4.295  14.845  0.00  0.00    +0.000 A 
ATOM      9  C   UNL     1       7.025   4.173  15.303  0.00  0.00    +0.000 A 
ATOM     10  C   UNL     1       7.362   4.620  16.578  0.00  0.00    +0.000 A 
ATOM     11  C   UNL     1       6.383   5.183  17.399  0.00  0.00    +0.000 A 
ENDBRANCH   3   6
BRANCH   4  12
ATOM     12  N   UNL     1       2.856   3.808  18.785  0.00  0.00    +0.000 N 
ATOM     13  C   UNL     1       1.571   3.178  18.469  0.00  0.00    +0.000 C 
ATOM     14  C   UNL     1       0.757   2.882  19.736  0.00  0.00    +0.000 C 
ATOM     15  O   UNL     1       1.526   2.155  20.707  0.00  0.00    +0.000 OA
ATOM     16  C   UNL     1       2.686   2.912  21.084  0.00  0.00    +0.000 C 
ATOM     17  C   UNL     1       3.606   3.166  19.876  0.00  0.00    +0.000 C 
ENDBRANCH   4  12
BRANCH   1  18
ATOM     18  C   UNL     1       1.996   8.477  19.215  0.00  0.00    +0.000 C 
BRANCH  18  19
ATOM     19  C   UNL     1       1.307   9.177  18.053  0.00  0.00    +0.000 C 
ATOM     20  C   UNL     1       0.052  10.008  18.179  0.00  0.00    +0.000 C 
ATOM     21  C   UNL     1       1.371  10.688  17.950  0.00  0.00    +0.000 C 
ENDBRANCH  18  19
BRANCH  18  22
ATOM     22  N   UNL     1       0.981   8.161  20.248  0.00  0.00    +0.000 NA
ATOM     23  H   UNL     1       0.091   8.569  19.971  0.00  0.00    +0.000 HD
BRANCH  22  24
ATOM     24  C   UNL     1       1.362   8.711  21.557  0.00  0.00    +0.000 C 
BRANCH  24  29
ATOM     25  C   UNL     1      -2.101  13.166  23.076  0.00  0.00    +0.000 C 
ATOM     26  C   UNL     1      -1.201  12.029  22.691  0.00  0.00    +0.000 A 
ATOM     27  C   UNL     1      -0.187  12.201  21.743  0.00  0.00    +0.000 A 
ATOM     28  C   UNL     1       0.650  11.134  21.395  0.00  0.00    +0.000 A 
ATOM     29  C   UNL     1       0.492   9.873  21.987  0.00  0.00    +0.000 A 
ATOM     30  C   UNL     1      -0.535   9.702  22.927  0.00  0.00    +0.000 A 
ATOM     31  C   UNL     1      -1.372  10.768  23.275  0.00  0.00    +0.000 A 
ENDBRANCH  24  29
ENDBRANCH  22  24
ENDBRANCH  18  22
ENDBRANCH   1  18
TORSDOF 7
ENDMDL
MODEL 8
REMARK VINA RESULT:      -7.5      2.044      3.969
REMARK  Name = 
REMARK  8 active torsions:
REMARK  status: ('A' for Active; 'I' for Inactive)
REMARK    1  A    between atoms: C_1  and  C_2
REMARK    2  A    between atoms: C_5  and  C_6
REMARK    3  A    between atoms: C_6  and  N_7
REMARK    4  A    between atoms: N_7  and  C_8
REMARK    5  A    between atoms: C_8  and  C_9
REMARK    6  A    between atoms: C_8  and  C_26
REMARK    7  A    between atoms: C_11  and  C_12
REMARK    8  A    between atoms: C_18  and  N_19
REMARK                            x       y       z     vdW  Elec       q    Type
REMARK                         _______ _______ _______ _____ _____    ______ ____
ROOT
ATOM      1  C   UNL     1       2.562   7.578  18.799  0.00  0.00    +0.000 A 
ATOM      2  N   UNL     1       2.250   6.313  19.012  0.00  0.00    +0.000 NA
ATOM      3  C   UNL     1       3.241   5.619  18.363  0.00  0.00    +0.000 A 
ATOM      4  C   UNL     1       4.100   6.503  17.727  0.00  0.00    +0.000 A 
ATOM      5  O   UNL     1       3.684   7.770  18.038  0.00  0.00    +0.000 OA
ENDROOT
BRANCH   3   6
ATOM      6  C   UNL     1       3.343   4.171  18.435  0.00  0.00    +0.000 A 
ATOM      7  C   UNL     1       4.232   3.585  19.342  0.00  0.00    +0.000 A 
ATOM      8  C   UNL     1       4.396   2.200  19.387  0.00  0.00    +0.000 A 
ATOM      9  C   UNL     1       3.670   1.386  18.519  0.00  0.00    +0.000 A 
ATOM     10  C   UNL     1       2.779   1.954  17.612  0.00  0.00    +0.000 A 
ATOM     11  C   UNL     1       2.619   3.341  17.568  0.00  0.00    +0.000 A 
ENDBRANCH   3   6
BRANCH   4  12
ATOM     12  N   UNL     1       5.176   6.367  16.915  0.00  0.00    +0.000 N 
ATOM     13  C   UNL     1       5.159   5.422  15.794  0.00  0.00    +0.000 C 
ATOM     14  C   UNL     1       6.034   4.193  16.075  0.00  0.00    +0.000 C 
ATOM     15  O   UNL     1       7.359   4.564  16.490  0.00  0.00    +0.000 OA
ATOM     16  C   UNL     1       7.297   5.355  17.687  0.00  0.00    +0.000 C 
ATOM     17  C   UNL     1       6.512   6.660  17.456  0.00  0.00    +0.000 C 
ENDBRANCH   4  12
BRANCH   1  18
ATOM     18  C   UNL     1       1.833   8.814  19.274  0.00  0.00    +0.000 C 
BRANCH  18  19
ATOM     19  C   UNL     1       1.113   9.468  18.104  0.00  0.00    +0.000 C 
ATOM     20  C   UNL     1      -0.265  10.082  18.184  0.00  0.00    +0.000 C 
ATOM     21  C   UNL     1       0.939  10.974  18.084  0.00  0.00    +0.000 C 
ENDBRANCH  18  19
BRANCH  18  22
ATOM     22  N   UNL     1       0.842   8.517  20.335  0.00  0.00    +0.000 NA
ATOM     23  H   UNL     1      -0.061   8.898  20.060  0.00  0.00    +0.000 HD
BRANCH  22  24
ATOM     24  C   UNL     1       1.235   9.122  21.616  0.00  0.00    +0.000 C 
BRANCH  24  29
ATOM     25  C   UNL     1      -2.338  13.510  23.075  0.00  0.00    +0.000 C 
ATOM     26  C   UNL     1      -1.411  12.390  22.705  0.00  0.00    +0.000 A 
ATOM     27  C   UNL     1      -0.369  12.587  21.793  0.00  0.00    +0.000 A 
ATOM     28  C   UNL     1       0.493  11.536  21.459  0.00  0.00    +0.000 A 
ATOM     29  C   UNL     1       0.334  10.267  22.032  0.00  0.00    +0.000 A 
ATOM     30  C   UNL     1      -0.719  10.070  22.936  0.00  0.00    +0.000 A 
ATOM     31  C   UNL     1      -1.582  11.120  23.269  0.00  0.00    +0.000 A 
ENDBRANCH  24  29
ENDBRANCH  22  24
ENDBRANCH  18  22
ENDBRANCH   1  18
TORSDOF 7
ENDMDL
MODEL 9
REMARK VINA RESULT:      -7.5      1.667      2.892
REMARK  Name = 
REMARK  8 active torsions:
REMARK  status: ('A' for Active; 'I' for Inactive)
REMARK    1  A    between atoms: C_1  and  C_2
REMARK    2  A    between atoms: C_5  and  C_6
REMARK    3  A    between atoms: C_6  and  N_7
REMARK    4  A    between atoms: N_7  and  C_8
REMARK    5  A    between atoms: C_8  and  C_9
REMARK    6  A    between atoms: C_8  and  C_26
REMARK    7  A    between atoms: C_11  and  C_12
REMARK    8  A    between atoms: C_18  and  N_19
REMARK                            x       y       z     vdW  Elec       q    Type
REMARK                         _______ _______ _______ _____ _____    ______ ____
ROOT
ATOM      1  C   UNL     1       2.764   7.292  19.006  0.00  0.00    +0.000 A 
ATOM      2  N   UNL     1       3.766   7.202  18.153  0.00  0.00    +0.000 NA
ATOM      3  C   UNL     1       4.096   5.870  18.175  0.00  0.00    +0.000 A 
ATOM      4  C   UNL     1       3.302   5.201  19.095  0.00  0.00    +0.000 A 
ATOM      5  O   UNL     1       2.416   6.111  19.607  0.00  0.00    +0.000 OA
ENDROOT
BRANCH   3   6
ATOM      6  C   UNL     1       5.098   5.308  17.285  0.00  0.00    +0.000 A 
ATOM      7  C   UNL     1       6.384   5.048  17.769  0.00  0.00    +0.000 A 
ATOM      8  C   UNL     1       7.382   4.568  16.920  0.00  0.00    +0.000 A 
ATOM      9  C   UNL     1       7.101   4.345  15.573  0.00  0.00    +0.000 A 
ATOM     10  C   UNL     1       5.825   4.597  15.076  0.00  0.00    +0.000 A 
ATOM     11  C   UNL     1       4.829   5.079  15.928  0.00  0.00    +0.000 A 
ENDBRANCH   3   6
BRANCH   4  12
ATOM     12  N   UNL     1       3.247   3.928  19.556  0.00  0.00    +0.000 N 
ATOM     13  C   UNL     1       3.387   2.789  18.645  0.00  0.00    +0.000 C 
ATOM     14  C   UNL     1       2.048   2.075  18.421  0.00  0.00    +0.000 C 
ATOM     15  O   UNL     1       1.407   1.738  19.662  0.00  0.00    +0.000 OA
ATOM     16  C   UNL     1       1.159   2.928  20.427  0.00  0.00    +0.000 C 
ATOM     17  C   UNL     1       2.472   3.652  20.777  0.00  0.00    +0.000 C 
ENDBRANCH   4  12
BRANCH   1  18
ATOM     18  C   UNL     1       1.978   8.521  19.402  0.00  0.00    +0.000 C 
BRANCH  18  19
ATOM     19  C   UNL     1       1.317   9.127  18.173  0.00  0.00    +0.000 C 
ATOM     20  C   UNL     1       0.068   9.976  18.205  0.00  0.00    +0.000 C 
ATOM     21  C   UNL     1       1.397  10.624  17.945  0.00  0.00    +0.000 C 
ENDBRANCH  18  19
BRANCH  18  22
ATOM     22  N   UNL     1       0.930   8.227  20.408  0.00  0.00    +0.000 NA
ATOM     23  H   UNL     1       0.040   8.589  20.073  0.00  0.00    +0.000 HD
BRANCH  22  24
ATOM     24  C   UNL     1       1.237   8.861  21.699  0.00  0.00    +0.000 C 
BRANCH  24  29
ATOM     25  C   UNL     1      -2.114  13.461  23.022  0.00  0.00    +0.000 C 
ATOM     26  C   UNL     1      -1.264  12.274  22.678  0.00  0.00    +0.000 A 
ATOM     27  C   UNL     1      -1.488  11.029  23.275  0.00  0.00    +0.000 A 
ATOM     28  C   UNL     1      -0.692   9.927  22.943  0.00  0.00    +0.000 A 
ATOM     29  C   UNL     1       0.343  10.045  22.005  0.00  0.00    +0.000 A 
ATOM     30  C   UNL     1       0.572  11.297  21.418  0.00  0.00    +0.000 A 
ATOM     31  C   UNL     1      -0.223  12.400  21.750  0.00  0.00    +0.000 A 
ENDBRANCH  24  29
ENDBRANCH  22  24
ENDBRANCH  18  22
ENDBRANCH   1  18
TORSDOF 7
ENDMDL
