MODEL 1
REMARK VINA RESULT:      -6.1      0.000      0.000
REMARK  Name = 
REMARK  10 active torsions:
REMARK  status: ('A' for Active; 'I' for Inactive)
REMARK    1  A    between atoms: C_1  and  C_2
REMARK    2  A    between atoms: N_4  and  C_5
REMARK    3  A    between atoms: C_5  and  C_6
REMARK    4  A    between atoms: C_5  and  C_7
REMARK    5  A    between atoms: C_7  and  O_8
REMARK    6  A    between atoms: C_19  and  C_20
REMARK    7  A    between atoms: C_20  and  N_21
REMARK    8  A    between atoms: N_21  and  C_22
REMARK    9  A    between atoms: N_21  and  C_23
REMARK   10  A    between atoms: C_23  and  C_24
REMARK                            x       y       z     vdW  Elec       q    Type
REMARK                         _______ _______ _______ _____ _____    ______ ____
ROOT
ATOM      1  C   UNL     1      -1.212  11.323  17.985  0.00  0.00    +0.000 C 
ATOM      2  C   UNL     1      -0.980  11.328  19.507  0.00  0.00    +0.000 C 
ATOM      3  C   UNL     1      -1.386  12.721  20.049  0.00  0.00    +0.000 C 
ATOM      4  N   UNL     1      -0.999  13.035  21.429  0.00  0.00    +0.000 N 
ATOM      5  C   UNL     1       0.185  13.738  21.698  0.00  0.00    +0.000 C 
ATOM      6  O   UNL     1       0.506  14.202  22.787  0.00  0.00    +0.000 OA
ATOM      7  C   UNL     1       1.122  13.876  20.570  0.00  0.00    +0.000 A 
ATOM      8  C   UNL     1       1.368  15.094  19.937  0.00  0.00    +0.000 A 
ATOM      9  C   UNL     1       2.064  15.078  18.742  0.00  0.00    +0.000 A 
ATOM     10 BR   UNL     1       2.331  16.671  17.769  0.00  0.00    +0.000 Br
ATOM     11  C   UNL     1       2.508  13.862  18.228  0.00  0.00    +0.000 A 
ATOM     12  N   UNL     1       2.285  12.669  18.829  0.00  0.00    +0.000 NA
ATOM     13  C   UNL     1       1.585  12.710  19.979  0.00  0.00    +0.000 A 
ATOM     14  O   UNL     1       1.328  11.536  20.625  0.00  0.00    +0.000 OA
ATOM     15  C   UNL     1       0.385  10.682  19.970  0.00  0.00    +0.000 C 
ENDROOT
BRANCH   4  16
ATOM     16  C   UNL     1      -1.898  12.613  22.519  0.00  0.00    +0.000 C 
ATOM     17  C   UNL     1      -1.498  11.269  23.135  0.00  0.00    +0.000 C 
BRANCH  16  18
ATOM     18  C   UNL     1      -3.384  12.620  22.110  0.00  0.00    +0.000 C 
BRANCH  18  19
ATOM     19  O   UNL     1      -4.252  12.270  23.191  0.00  0.00    +0.000 OA
ATOM     20  H   UNL     1      -4.190  12.946  23.885  0.00  0.00    +0.000 HD
ENDBRANCH  18  19
ENDBRANCH  16  18
ENDBRANCH   4  16
BRANCH  15  21
ATOM     21  C   UNL     1       1.114   9.726  18.973  0.00  0.00    +0.000 C 
BRANCH  21  22
ATOM     22  N   UNL     1       1.820   8.536  19.525  0.00  0.00    +0.000 NA
ATOM     23  C   UNL     1       1.287   8.109  20.823  0.00  0.00    +0.000 C 
BRANCH  22  24
ATOM     24  C   UNL     1       1.874   7.386  18.614  0.00  0.00    +0.000 C 
BRANCH  24  25
ATOM     25  C   UNL     1       3.230   6.763  18.503  0.00  0.00    +0.000 A 
ATOM     26  C   UNL     1       3.685   5.809  19.391  0.00  0.00    +0.000 A 
ATOM     27  N   UNL     1       4.874   5.183  19.275  0.00  0.00    +0.000 NA
ATOM     28  C   UNL     1       5.620   5.547  18.223  0.00  0.00    +0.000 A 
ATOM     29  N   UNL     1       5.301   6.478  17.310  0.00  0.00    +0.000 NA
ATOM     30  C   UNL     1       4.099   7.063  17.472  0.00  0.00    +0.000 A 
ENDBRANCH  24  25
ENDBRANCH  22  24
ENDBRANCH  21  22
ENDBRANCH  15  21
TORSDOF 7
ENDMDL
MODEL 2
REMARK VINA RESULT:      -5.9      1.042      1.199
REMARK  Name = 
REMARK  10 active torsions:
REMARK  status: ('A' for Active; 'I' for Inactive)
REMARK    1  A    between atoms: C_1  and  C_2
REMARK    2  A    between atoms: N_4  and  C_5
REMARK    3  A    between atoms: C_5  and  C_6
REMARK    4  A    between atoms: C_5  and  C_7
REMARK    5  A    between atoms: C_7  and  O_8
REMARK    6  A    between atoms: C_19  and  C_20
REMARK    7  A    between atoms: C_20  and  N_21
REMARK    8  A    between atoms: N_21  and  C_22
REMARK    9  A    between atoms: N_21  and  C_23
REMARK   10  A    between atoms: C_23  and  C_24
REMARK                            x       y       z     vdW  Elec       q    Type
REMARK                         _______ _______ _______ _____ _____    ______ ____
ROOT
ATOM      1  C   UNL     1      -1.215  10.910  17.903  0.00  0.00    +0.000 C 
ATOM      2  C   UNL     1      -0.988  10.832  19.424  0.00  0.00    +0.000 C 
ATOM      3  C   UNL     1      -1.562  12.122  20.061  0.00  0.00    +0.000 C 
ATOM      4  N   UNL     1      -1.220  12.380  21.464  0.00  0.00    +0.000 N 
ATOM      5  C   UNL     1      -0.131  13.200  21.795  0.00  0.00    +0.000 C 
ATOM      6  O   UNL     1       0.129  13.619  22.918  0.00  0.00    +0.000 OA
ATOM      7  C   UNL     1       0.783  13.533  20.690  0.00  0.00    +0.000 A 
ATOM      8  C   UNL     1       0.879  14.815  20.150  0.00  0.00    +0.000 A 
ATOM      9  C   UNL     1       1.574  14.972  18.964  0.00  0.00    +0.000 A 
ATOM     10 BR   UNL     1       1.645  16.652  18.112  0.00  0.00    +0.000 Br
ATOM     11  C   UNL     1       2.165  13.860  18.369  0.00  0.00    +0.000 A 
ATOM     12  N   UNL     1       2.089  12.608  18.879  0.00  0.00    +0.000 NA
ATOM     13  C   UNL     1       1.387  12.479  20.022  0.00  0.00    +0.000 A 
ATOM     14  O   UNL     1       1.275  11.239  20.578  0.00  0.00    +0.000 OA
ATOM     15  C   UNL     1       0.446  10.326  19.853  0.00  0.00    +0.000 C 
ENDROOT
BRANCH   4  16
ATOM     16  C   UNL     1      -2.062  11.772  22.511  0.00  0.00    +0.000 C 
ATOM     17  C   UNL     1      -2.609  12.799  23.507  0.00  0.00    +0.000 C 
BRANCH  16  18
ATOM     18  C   UNL     1      -1.368  10.603  23.237  0.00  0.00    +0.000 C 
BRANCH  18  19
ATOM     19  O   UNL     1       0.054  10.636  23.092  0.00  0.00    +0.000 OA
ATOM     20  H   UNL     1       0.319  11.485  22.701  0.00  0.00    +0.000 HD
ENDBRANCH  18  19
ENDBRANCH  16  18
ENDBRANCH   4  16
BRANCH  15  21
ATOM     21  C   UNL     1       1.288   9.541  18.798  0.00  0.00    +0.000 C 
BRANCH  21  22
ATOM     22  N   UNL     1       2.040   8.338  19.249  0.00  0.00    +0.000 NA
ATOM     23  C   UNL     1       1.561   7.816  20.533  0.00  0.00    +0.000 C 
BRANCH  22  24
ATOM     24  C   UNL     1       2.092   7.250  18.265  0.00  0.00    +0.000 C 
BRANCH  24  25
ATOM     25  C   UNL     1       3.439   6.611  18.136  0.00  0.00    +0.000 A 
ATOM     26  C   UNL     1       3.782   5.456  18.811  0.00  0.00    +0.000 A 
ATOM     27  N   UNL     1       4.963   4.824  18.661  0.00  0.00    +0.000 NA
ATOM     28  C   UNL     1       5.820   5.390  17.800  0.00  0.00    +0.000 A 
ATOM     29  N   UNL     1       5.614   6.523  17.109  0.00  0.00    +0.000 NA
ATOM     30  C   UNL     1       4.414   7.106  17.293  0.00  0.00    +0.000 A 
ENDBRANCH  24  25
ENDBRANCH  22  24
ENDBRANCH  21  22
ENDBRANCH  15  21
TORSDOF 7
ENDMDL
MODEL 3
REMARK VINA RESULT:      -5.9      4.190      7.356
REMARK  Name = 
REMARK  10 active torsions:
REMARK  status: ('A' for Active; 'I' for Inactive)
REMARK    1  A    between atoms: C_1  and  C_2
REMARK    2  A    between atoms: N_4  and  C_5
REMARK    3  A    between atoms: C_5  and  C_6
REMARK    4  A    between atoms: C_5  and  C_7
REMARK    5  A    between atoms: C_7  and  O_8
REMARK    6  A    between atoms: C_19  and  C_20
REMARK    7  A    between atoms: C_20  and  N_21
REMARK    8  A    between atoms: N_21  and  C_22
REMARK    9  A    between atoms: N_21  and  C_23
REMARK   10  A    between atoms: C_23  and  C_24
REMARK                            x       y       z     vdW  Elec       q    Type
REMARK                         _______ _______ _______ _____ _____    ______ ____
ROOT
ATOM      1  C   UNL     1      -0.377   9.671  20.701  0.00  0.00    +0.000 C 
ATOM      2  C   UNL     1       0.159  10.848  19.866  0.00  0.00    +0.000 C 
ATOM      3  C   UNL     1       0.810  11.866  20.835  0.00  0.00    +0.000 C 
ATOM      4  N   UNL     1       1.150  13.183  20.287  0.00  0.00    +0.000 N 
ATOM      5  C   UNL     1       0.263  14.262  20.415  0.00  0.00    +0.000 C 
ATOM      6  O   UNL     1       0.522  15.431  20.154  0.00  0.00    +0.000 OA
ATOM      7  C   UNL     1      -1.101  13.924  20.859  0.00  0.00    +0.000 A 
ATOM      8  C   UNL     1      -1.593  14.276  22.116  0.00  0.00    +0.000 A 
ATOM      9  C   UNL     1      -2.783  13.704  22.532  0.00  0.00    +0.000 A 
ATOM     10 BR   UNL     1      -3.449  14.037  24.263  0.00  0.00    +0.000 Br
ATOM     11  C   UNL     1      -3.449  12.824  21.683  0.00  0.00    +0.000 A 
ATOM     12  N   UNL     1      -2.991  12.474  20.457  0.00  0.00    +0.000 NA
ATOM     13  C   UNL     1      -1.820  13.027  20.086  0.00  0.00    +0.000 A 
ATOM     14  O   UNL     1      -1.310  12.706  18.862  0.00  0.00    +0.000 OA
ATOM     15  C   UNL     1      -0.825  11.365  18.744  0.00  0.00    +0.000 C 
ENDROOT
BRANCH   4  16
ATOM     16  C   UNL     1       2.455  13.345  19.619  0.00  0.00    +0.000 C 
ATOM     17  C   UNL     1       3.356  14.372  20.312  0.00  0.00    +0.000 C 
BRANCH  16  18
ATOM     18  C   UNL     1       2.325  13.642  18.112  0.00  0.00    +0.000 C 
BRANCH  18  19
ATOM     19  O   UNL     1       2.488  12.471  17.307  0.00  0.00    +0.000 OA
ATOM     20  H   UNL     1       3.351  12.502  16.865  0.00  0.00    +0.000 HD
ENDBRANCH  18  19
ENDBRANCH  16  18
ENDBRANCH   4  16
BRANCH  15  21
ATOM     21  C   UNL     1      -1.969  10.408  18.280  0.00  0.00    +0.000 C 
BRANCH  21  22
ATOM     22  N   UNL     1      -3.021  10.952  17.377  0.00  0.00    +0.000 NA
ATOM     23  C   UNL     1      -2.591  11.015  15.976  0.00  0.00    +0.000 C 
BRANCH  22  24
ATOM     24  C   UNL     1      -4.312  10.258  17.464  0.00  0.00    +0.000 C 
BRANCH  24  25
ATOM     25  C   UNL     1      -5.459  11.154  17.814  0.00  0.00    +0.000 A 
ATOM     26  C   UNL     1      -6.333  10.875  18.846  0.00  0.00    +0.000 A 
ATOM     27  N   UNL     1      -7.331  11.697  19.225  0.00  0.00    +0.000 NA
ATOM     28  C   UNL     1      -7.443  12.835  18.526  0.00  0.00    +0.000 A 
ATOM     29  N   UNL     1      -6.676  13.204  17.487  0.00  0.00    +0.000 NA
ATOM     30  C   UNL     1      -5.690  12.348  17.160  0.00  0.00    +0.000 A 
ENDBRANCH  24  25
ENDBRANCH  22  24
ENDBRANCH  21  22
ENDBRANCH  15  21
TORSDOF 7
ENDMDL
MODEL 4
REMARK VINA RESULT:      -5.8      2.861      4.273
REMARK  Name = 
REMARK  10 active torsions:
REMARK  status: ('A' for Active; 'I' for Inactive)
REMARK    1  A    between atoms: C_1  and  C_2
REMARK    2  A    between atoms: N_4  and  C_5
REMARK    3  A    between atoms: C_5  and  C_6
REMARK    4  A    between atoms: C_5  and  C_7
REMARK    5  A    between atoms: C_7  and  O_8
REMARK    6  A    between atoms: C_19  and  C_20
REMARK    7  A    between atoms: C_20  and  N_21
REMARK    8  A    between atoms: N_21  and  C_22
REMARK    9  A    between atoms: N_21  and  C_23
REMARK   10  A    between atoms: C_23  and  C_24
REMARK                            x       y       z     vdW  Elec       q    Type
REMARK                         _______ _______ _______ _____ _____    ______ ____
ROOT
ATOM      1  C   UNL     1      -0.271   8.792  21.346  0.00  0.00    +0.000 C 
ATOM      2  C   UNL     1       0.546   9.976  20.796  0.00  0.00    +0.000 C 
ATOM      3  C   UNL     1      -0.231  11.280  21.105  0.00  0.00    +0.000 C 
ATOM      4  N   UNL     1       0.232  12.503  20.441  0.00  0.00    +0.000 N 
ATOM      5  C   UNL     1      -0.356  12.932  19.242  0.00  0.00    +0.000 C 
ATOM      6  O   UNL     1      -0.169  14.019  18.706  0.00  0.00    +0.000 OA
ATOM      7  C   UNL     1      -1.231  11.957  18.569  0.00  0.00    +0.000 A 
ATOM      8  C   UNL     1      -2.614  12.114  18.488  0.00  0.00    +0.000 A 
ATOM      9  C   UNL     1      -3.369  11.035  18.062  0.00  0.00    +0.000 A 
ATOM     10 BR   UNL     1      -5.251  11.133  18.041  0.00  0.00    +0.000 Br
ATOM     11  C   UNL     1      -2.725   9.850  17.713  0.00  0.00    +0.000 A 
ATOM     12  N   UNL     1      -1.383   9.679  17.778  0.00  0.00    +0.000 NA
ATOM     13  C   UNL     1      -0.675  10.736  18.218  0.00  0.00    +0.000 A 
ATOM     14  O   UNL     1       0.681  10.617  18.308  0.00  0.00    +0.000 OA
ATOM     15  C   UNL     1       1.142   9.753  19.350  0.00  0.00    +0.000 C 
ENDROOT
BRANCH   4  16
ATOM     16  C   UNL     1       1.313  13.278  21.079  0.00  0.00    +0.000 C 
ATOM     17  C   UNL     1       0.823  14.593  21.692  0.00  0.00    +0.000 C 
BRANCH  16  18
ATOM     18  C   UNL     1       2.517  13.510  20.145  0.00  0.00    +0.000 C 
BRANCH  18  19
ATOM     19  O   UNL     1       2.568  14.847  19.640  0.00  0.00    +0.000 OA
ATOM     20  H   UNL     1       2.001  15.418  20.184  0.00  0.00    +0.000 HD
ENDBRANCH  18  19
ENDBRANCH  16  18
ENDBRANCH   4  16
BRANCH  15  21
ATOM     21  C   UNL     1       1.263   8.285  18.830  0.00  0.00    +0.000 C 
BRANCH  21  22
ATOM     22  N   UNL     1       2.470   7.499  19.209  0.00  0.00    +0.000 NA
ATOM     23  C   UNL     1       2.201   6.516  20.263  0.00  0.00    +0.000 C 
BRANCH  22  24
ATOM     24  C   UNL     1       3.143   6.841  18.083  0.00  0.00    +0.000 C 
BRANCH  24  25
ATOM     25  C   UNL     1       2.952   5.356  18.046  0.00  0.00    +0.000 A 
ATOM     26  C   UNL     1       1.742   4.770  17.731  0.00  0.00    +0.000 A 
ATOM     27  N   UNL     1       1.561   3.438  17.624  0.00  0.00    +0.000 NA
ATOM     28  C   UNL     1       2.646   2.685  17.850  0.00  0.00    +0.000 A 
ATOM     29  N   UNL     1       3.865   3.134  18.190  0.00  0.00    +0.000 NA
ATOM     30  C   UNL     1       3.988   4.472  18.273  0.00  0.00    +0.000 A 
ENDBRANCH  24  25
ENDBRANCH  22  24
ENDBRANCH  21  22
ENDBRANCH  15  21
TORSDOF 7
ENDMDL
MODEL 5
REMARK VINA RESULT:      -5.8      0.931      1.323
REMARK  Name = 
REMARK  10 active torsions:
REMARK  status: ('A' for Active; 'I' for Inactive)
REMARK    1  A    between atoms: C_1  and  C_2
REMARK    2  A    between atoms: N_4  and  C_5
REMARK    3  A    between atoms: C_5  and  C_6
REMARK    4  A    between atoms: C_5  and  C_7
REMARK    5  A    between atoms: C_7  and  O_8
REMARK    6  A    between atoms: C_19  and  C_20
REMARK    7  A    between atoms: C_20  and  N_21
REMARK    8  A    between atoms: N_21  and  C_22
REMARK    9  A    between atoms: N_21  and  C_23
REMARK   10  A    between atoms: C_23  and  C_24
REMARK                            x       y       z     vdW  Elec       q    Type
REMARK                         _______ _______ _______ _____ _____    ______ ____
ROOT
ATOM      1  C   UNL     1      -1.317  11.369  18.479  0.00  0.00    +0.000 C 
ATOM      2  C   UNL     1      -1.297  11.565  20.006  0.00  0.00    +0.000 C 
ATOM      3  C   UNL     1      -1.690  13.034  20.305  0.00  0.00    +0.000 C 
ATOM      4  N   UNL     1      -1.479  13.513  21.675  0.00  0.00    +0.000 N 
ATOM      5  C   UNL     1      -0.304  14.196  22.022  0.00  0.00    +0.000 C 
ATOM      6  O   UNL     1      -0.108  14.786  23.079  0.00  0.00    +0.000 OA
ATOM      7  C   UNL     1       0.787  14.143  21.033  0.00  0.00    +0.000 A 
ATOM      8  C   UNL     1       1.190  15.256  20.295  0.00  0.00    +0.000 A 
ATOM      9  C   UNL     1       2.042  15.052  19.224  0.00  0.00    +0.000 A 
ATOM     10 BR   UNL     1       2.535  16.489  18.108  0.00  0.00    +0.000 Br
ATOM     11  C   UNL     1       2.479  13.761  18.937  0.00  0.00    +0.000 A 
ATOM     12  N   UNL     1       2.104  12.669  19.644  0.00  0.00    +0.000 NA
ATOM     13  C   UNL     1       1.256  12.892  20.666  0.00  0.00    +0.000 A 
ATOM     14  O   UNL     1       0.843  11.825  21.411  0.00  0.00    +0.000 OA
ATOM     15  C   UNL     1      -0.049  10.932  20.739  0.00  0.00    +0.000 C 
ENDROOT
BRANCH   4  16
ATOM     16  C   UNL     1      -2.544  13.277  22.669  0.00  0.00    +0.000 C 
ATOM     17  C   UNL     1      -2.441  11.902  23.337  0.00  0.00    +0.000 C 
BRANCH  16  18
ATOM     18  C   UNL     1      -3.957  13.521  22.104  0.00  0.00    +0.000 C 
BRANCH  18  19
ATOM     19  O   UNL     1      -4.818  12.392  22.277  0.00  0.00    +0.000 OA
ATOM     20  H   UNL     1      -4.786  12.102  23.203  0.00  0.00    +0.000 HD
ENDBRANCH  18  19
ENDBRANCH  16  18
ENDBRANCH   4  16
BRANCH  15  21
ATOM     21  C   UNL     1       0.751   9.822  19.986  0.00  0.00    +0.000 C 
BRANCH  21  22
ATOM     22  N   UNL     1       1.542   8.852  20.793  0.00  0.00    +0.000 NA
ATOM     23  C   UNL     1       1.300   8.979  22.234  0.00  0.00    +0.000 C 
BRANCH  22  24
ATOM     24  C   UNL     1       1.378   7.450  20.389  0.00  0.00    +0.000 C 
BRANCH  24  25
ATOM     25  C   UNL     1       2.449   6.955  19.468  0.00  0.00    +0.000 A 
ATOM     26  C   UNL     1       2.797   7.618  18.307  0.00  0.00    +0.000 A 
ATOM     27  N   UNL     1       3.802   7.231  17.497  0.00  0.00    +0.000 NA
ATOM     28  C   UNL     1       4.468   6.133  17.881  0.00  0.00    +0.000 A 
ATOM     29  N   UNL     1       4.208   5.390  18.968  0.00  0.00    +0.000 NA
ATOM     30  C   UNL     1       3.199   5.829  19.744  0.00  0.00    +0.000 A 
ENDBRANCH  24  25
ENDBRANCH  22  24
ENDBRANCH  21  22
ENDBRANCH  15  21
TORSDOF 7
ENDMDL
MODEL 6
REMARK VINA RESULT:      -5.7      4.879      7.097
REMARK  Name = 
REMARK  10 active torsions:
REMARK  status: ('A' for Active; 'I' for Inactive)
REMARK    1  A    between atoms: C_1  and  C_2
REMARK    2  A    between atoms: N_4  and  C_5
REMARK    3  A    between atoms: C_5  and  C_6
REMARK    4  A    between atoms: C_5  and  C_7
REMARK    5  A    between atoms: C_7  and  O_8
REMARK    6  A    between atoms: C_19  and  C_20
REMARK    7  A    between atoms: C_20  and  N_21
REMARK    8  A    between atoms: N_21  and  C_22
REMARK    9  A    between atoms: N_21  and  C_23
REMARK   10  A    between atoms: C_23  and  C_24
REMARK                            x       y       z     vdW  Elec       q    Type
REMARK                         _______ _______ _______ _____ _____    ______ ____
ROOT
ATOM      1  C   UNL     1      -0.552  11.254  22.755  0.00  0.00    +0.000 C 
ATOM      2  C   UNL     1      -1.470  12.480  22.911  0.00  0.00    +0.000 C 
ATOM      3  C   UNL     1      -2.934  12.009  22.722  0.00  0.00    +0.000 C 
ATOM      4  N   UNL     1      -3.954  13.053  22.567  0.00  0.00    +0.000 N 
ATOM      5  C   UNL     1      -4.363  13.469  21.292  0.00  0.00    +0.000 C 
ATOM      6  O   UNL     1      -5.322  14.195  21.054  0.00  0.00    +0.000 OA
ATOM      7  C   UNL     1      -3.526  13.016  20.168  0.00  0.00    +0.000 A 
ATOM      8  C   UNL     1      -3.960  12.076  19.234  0.00  0.00    +0.000 A 
ATOM      9  C   UNL     1      -3.024  11.535  18.371  0.00  0.00    +0.000 A 
ATOM     10 BR   UNL     1      -3.511  10.172  17.163  0.00  0.00    +0.000 Br
ATOM     11  C   UNL     1      -1.699  11.959  18.451  0.00  0.00    +0.000 A 
ATOM     12  N   UNL     1      -1.258  12.875  19.345  0.00  0.00    +0.000 NA
ATOM     13  C   UNL     1      -2.185  13.368  20.188  0.00  0.00    +0.000 A 
ATOM     14  O   UNL     1      -1.795  14.292  21.114  0.00  0.00    +0.000 OA
ATOM     15  C   UNL     1      -0.972  13.780  22.165  0.00  0.00    +0.000 C 
ENDROOT
BRANCH   4  16
ATOM     16  C   UNL     1      -4.549  13.634  23.786  0.00  0.00    +0.000 C 
ATOM     17  C   UNL     1      -3.639  14.665  24.460  0.00  0.00    +0.000 C 
BRANCH  16  18
ATOM     18  C   UNL     1      -5.025  12.566  24.790  0.00  0.00    +0.000 C 
BRANCH  18  19
ATOM     19  O   UNL     1      -6.127  11.802  24.294  0.00  0.00    +0.000 OA
ATOM     20  H   UNL     1      -6.431  11.190  24.984  0.00  0.00    +0.000 HD
ENDBRANCH  18  19
ENDBRANCH  16  18
ENDBRANCH   4  16
BRANCH  15  21
ATOM     21  C   UNL     1       0.537  13.858  21.767  0.00  0.00    +0.000 C 
BRANCH  21  22
ATOM     22  N   UNL     1       1.058  15.143  21.224  0.00  0.00    +0.000 NA
ATOM     23  C   UNL     1       2.082  15.749  22.081  0.00  0.00    +0.000 C 
BRANCH  22  24
ATOM     24  C   UNL     1       1.557  15.061  19.846  0.00  0.00    +0.000 C 
BRANCH  24  25
ATOM     25  C   UNL     1       1.107  16.189  18.970  0.00  0.00    +0.000 A 
ATOM     26  C   UNL     1       1.986  17.104  18.427  0.00  0.00    +0.000 A 
ATOM     27  N   UNL     1       1.617  18.087  17.581  0.00  0.00    +0.000 NA
ATOM     28  C   UNL     1       0.310  18.138  17.286  0.00  0.00    +0.000 A 
ATOM     29  N   UNL     1      -0.643  17.325  17.771  0.00  0.00    +0.000 NA
ATOM     30  C   UNL     1      -0.213  16.358  18.603  0.00  0.00    +0.000 A 
ENDBRANCH  24  25
ENDBRANCH  22  24
ENDBRANCH  21  22
ENDBRANCH  15  21
TORSDOF 7
ENDMDL
MODEL 7
REMARK VINA RESULT:      -5.7      7.161     10.072
REMARK  Name = 
REMARK  10 active torsions:
REMARK  status: ('A' for Active; 'I' for Inactive)
REMARK    1  A    between atoms: C_1  and  C_2
REMARK    2  A    between atoms: N_4  and  C_5
REMARK    3  A    between atoms: C_5  and  C_6
REMARK    4  A    between atoms: C_5  and  C_7
REMARK    5  A    between atoms: C_7  and  O_8
REMARK    6  A    between atoms: C_19  and  C_20
REMARK    7  A    between atoms: C_20  and  N_21
REMARK    8  A    between atoms: N_21  and  C_22
REMARK    9  A    between atoms: N_21  and  C_23
REMARK   10  A    between atoms: C_23  and  C_24
REMARK                            x       y       z     vdW  Elec       q    Type
REMARK                         _______ _______ _______ _____ _____    ______ ____
ROOT
ATOM      1  C   UNL     1       8.690  17.946  20.735  0.00  0.00    +0.000 C 
ATOM      2  C   UNL     1       9.204  16.551  20.337  0.00  0.00    +0.000 C 
ATOM      3  C   UNL     1       9.013  16.387  18.809  0.00  0.00    +0.000 C 
ATOM      4  N   UNL     1       9.189  15.039  18.257  0.00  0.00    +0.000 N 
ATOM      5  C   UNL     1       8.085  14.195  18.064  0.00  0.00    +0.000 C 
ATOM      6  O   UNL     1       8.100  13.132  17.453  0.00  0.00    +0.000 OA
ATOM      7  C   UNL     1       6.828  14.625  18.700  0.00  0.00    +0.000 A 
ATOM      8  C   UNL     1       5.728  15.072  17.969  0.00  0.00    +0.000 A 
ATOM      9  C   UNL     1       4.694  15.683  18.656  0.00  0.00    +0.000 A 
ATOM     10 BR   UNL     1       3.231  16.420  17.725  0.00  0.00    +0.000 Br
ATOM     11  C   UNL     1       4.779  15.810  20.041  0.00  0.00    +0.000 A 
ATOM     12  N   UNL     1       5.835  15.378  20.770  0.00  0.00    +0.000 NA
ATOM     13  C   UNL     1       6.837  14.808  20.074  0.00  0.00    +0.000 A 
ATOM     14  O   UNL     1       7.928  14.357  20.758  0.00  0.00    +0.000 OA
ATOM     15  C   UNL     1       8.762  15.382  21.304  0.00  0.00    +0.000 C 
ENDROOT
BRANCH   4  16
ATOM     16  C   UNL     1      10.551  14.607  17.893  0.00  0.00    +0.000 C 
ATOM     17  C   UNL     1      11.369  14.133  19.098  0.00  0.00    +0.000 C 
BRANCH  16  18
ATOM     18  C   UNL     1      11.319  15.665  17.076  0.00  0.00    +0.000 C 
BRANCH  18  19
ATOM     19  O   UNL     1      10.758  15.866  15.776  0.00  0.00    +0.000 OA
ATOM     20  H   UNL     1      11.452  15.758  15.106  0.00  0.00    +0.000 HD
ENDBRANCH  18  19
ENDBRANCH  16  18
ENDBRANCH   4  16
BRANCH  15  21
ATOM     21  C   UNL     1       8.287  15.767  22.742  0.00  0.00    +0.000 C 
BRANCH  21  22
ATOM     22  N   UNL     1       9.160  15.406  23.893  0.00  0.00    +0.000 NA
ATOM     23  C   UNL     1      10.083  16.483  24.266  0.00  0.00    +0.000 C 
BRANCH  22  24
ATOM     24  C   UNL     1       8.434  14.948  25.084  0.00  0.00    +0.000 C 
BRANCH  24  25
ATOM     25  C   UNL     1       7.655  13.687  24.871  0.00  0.00    +0.000 A 
ATOM     26  C   UNL     1       6.285  13.622  25.038  0.00  0.00    +0.000 A 
ATOM     27  N   UNL     1       5.552  12.519  24.788  0.00  0.00    +0.000 NA
ATOM     28  C   UNL     1       6.239  11.451  24.358  0.00  0.00    +0.000 A 
ATOM     29  N   UNL     1       7.569  11.382  24.184  0.00  0.00    +0.000 NA
ATOM     30  C   UNL     1       8.247  12.516  24.442  0.00  0.00    +0.000 A 
ENDBRANCH  24  25
ENDBRANCH  22  24
ENDBRANCH  21  22
ENDBRANCH  15  21
TORSDOF 7
ENDMDL
MODEL 8
REMARK VINA RESULT:      -5.7      2.478      3.847
REMARK  Name = 
REMARK  10 active torsions:
REMARK  status: ('A' for Active; 'I' for Inactive)
REMARK    1  A    between atoms: C_1  and  C_2
REMARK    2  A    between atoms: N_4  and  C_5
REMARK    3  A    between atoms: C_5  and  C_6
REMARK    4  A    between atoms: C_5  and  C_7
REMARK    5  A    between atoms: C_7  and  O_8
REMARK    6  A    between atoms: C_19  and  C_20
REMARK    7  A    between atoms: C_20  and  N_21
REMARK    8  A    between atoms: N_21  and  C_22
REMARK    9  A    between atoms: N_21  and  C_23
REMARK   10  A    between atoms: C_23  and  C_24
REMARK                            x       y       z     vdW  Elec       q    Type
REMARK                         _______ _______ _______ _____ _____    ______ ____
ROOT
ATOM      1  C   UNL     1       1.194  12.165  18.710  0.00  0.00    +0.000 C 
ATOM      2  C   UNL     1      -0.133  11.407  18.903  0.00  0.00    +0.000 C 
ATOM      3  C   UNL     1      -1.270  12.274  18.306  0.00  0.00    +0.000 C 
ATOM      4  N   UNL     1      -2.646  11.869  18.615  0.00  0.00    +0.000 N 
ATOM      5  C   UNL     1      -3.337  12.446  19.691  0.00  0.00    +0.000 C 
ATOM      6  O   UNL     1      -4.534  12.311  19.922  0.00  0.00    +0.000 OA
ATOM      7  C   UNL     1      -2.523  13.237  20.629  0.00  0.00    +0.000 A 
ATOM      8  C   UNL     1      -2.622  14.624  20.730  0.00  0.00    +0.000 A 
ATOM      9  C   UNL     1      -1.651  15.295  21.452  0.00  0.00    +0.000 A 
ATOM     10 BR   UNL     1      -1.650  17.178  21.533  0.00  0.00    +0.000 Br
ATOM     11  C   UNL     1      -0.631  14.568  22.062  0.00  0.00    +0.000 A 
ATOM     12  N   UNL     1      -0.520  13.221  21.982  0.00  0.00    +0.000 NA
ATOM     13  C   UNL     1      -1.465  12.594  21.254  0.00  0.00    +0.000 A 
ATOM     14  O   UNL     1      -1.399  11.236  21.135  0.00  0.00    +0.000 OA
ATOM     15  C   UNL     1      -0.322  10.754  20.328  0.00  0.00    +0.000 C 
ENDROOT
BRANCH   4  16
ATOM     16  C   UNL     1      -3.287  10.859  17.752  0.00  0.00    +0.000 C 
ATOM     17  C   UNL     1      -2.280   9.902  17.105  0.00  0.00    +0.000 C 
BRANCH  16  18
ATOM     18  C   UNL     1      -4.227  11.478  16.699  0.00  0.00    +0.000 C 
BRANCH  18  19
ATOM     19  O   UNL     1      -5.606  11.344  17.050  0.00  0.00    +0.000 OA
ATOM     20  H   UNL     1      -5.859  12.071  17.642  0.00  0.00    +0.000 HD
ENDBRANCH  18  19
ENDBRANCH  16  18
ENDBRANCH   4  16
BRANCH  15  21
ATOM     21  C   UNL     1       0.954  10.525  21.199  0.00  0.00    +0.000 C 
BRANCH  21  22
ATOM     22  N   UNL     1       1.066   9.254  21.967  0.00  0.00    +0.000 NA
ATOM     23  C   UNL     1       0.460   9.340  23.300  0.00  0.00    +0.000 C 
BRANCH  22  24
ATOM     24  C   UNL     1       0.546   8.074  21.266  0.00  0.00    +0.000 C 
BRANCH  24  25
ATOM     25  C   UNL     1       1.554   7.394  20.393  0.00  0.00    +0.000 A 
ATOM     26  C   UNL     1       2.014   6.116  20.643  0.00  0.00    +0.000 A 
ATOM     27  N   UNL     1       2.869   5.456  19.836  0.00  0.00    +0.000 NA
ATOM     28  C   UNL     1       3.268   6.123  18.744  0.00  0.00    +0.000 A 
ATOM     29  N   UNL     1       2.915   7.375  18.408  0.00  0.00    +0.000 NA
ATOM     30  C   UNL     1       2.053   7.981  19.246  0.00  0.00    +0.000 A 
ENDBRANCH  24  25
ENDBRANCH  22  24
ENDBRANCH  21  22
ENDBRANCH  15  21
TORSDOF 7
ENDMDL
MODEL 9
REMARK VINA RESULT:      -5.6      3.000      4.641
REMARK  Name = 
REMARK  10 active torsions:
REMARK  status: ('A' for Active; 'I' for Inactive)
REMARK    1  A    between atoms: C_1  and  C_2
REMARK    2  A    between atoms: N_4  and  C_5
REMARK    3  A    between atoms: C_5  and  C_6
REMARK    4  A    between atoms: C_5  and  C_7
REMARK    5  A    between atoms: C_7  and  O_8
REMARK    6  A    between atoms: C_19  and  C_20
REMARK    7  A    between atoms: C_20  and  N_21
REMARK    8  A    between atoms: N_21  and  C_22
REMARK    9  A    between atoms: N_21  and  C_23
REMARK   10  A    between atoms: C_23  and  C_24
REMARK                            x       y       z     vdW  Elec       q    Type
REMARK                         _______ _______ _______ _____ _____    ______ ____
ROOT
ATOM      1  C   UNL     1      -0.131   8.625  20.941  0.00  0.00    +0.000 C 
ATOM      2  C   UNL     1       0.645   9.802  20.323  0.00  0.00    +0.000 C 
ATOM      3  C   UNL     1      -0.032  11.117  20.785  0.00  0.00    +0.000 C 
ATOM      4  N   UNL     1       0.379  12.351  20.105  0.00  0.00    +0.000 N 
ATOM      5  C   UNL     1      -0.355  12.846  19.017  0.00  0.00    +0.000 C 
ATOM      6  O   UNL     1      -0.204  13.947  18.498  0.00  0.00    +0.000 OA
ATOM      7  C   UNL     1      -1.351  11.927  18.440  0.00  0.00    +0.000 A 
ATOM      8  C   UNL     1      -2.725  12.131  18.561  0.00  0.00    +0.000 A 
ATOM      9  C   UNL     1      -3.571  11.095  18.208  0.00  0.00    +0.000 A 
ATOM     10 BR   UNL     1      -5.433  11.254  18.457  0.00  0.00    +0.000 Br
ATOM     11  C   UNL     1      -3.028   9.905  17.730  0.00  0.00    +0.000 A 
ATOM     12  N   UNL     1      -1.697   9.688  17.599  0.00  0.00    +0.000 NA
ATOM     13  C   UNL     1      -0.896  10.704  17.972  0.00  0.00    +0.000 A 
ATOM     14  O   UNL     1       0.455  10.538  17.865  0.00  0.00    +0.000 OA
ATOM     15  C   UNL     1       1.024   9.619  18.801  0.00  0.00    +0.000 C 
ENDROOT
BRANCH   4  16
ATOM     16  C   UNL     1       1.567  13.064  20.611  0.00  0.00    +0.000 C 
ATOM     17  C   UNL     1       1.212  14.335  21.389  0.00  0.00    +0.000 C 
BRANCH  16  18
ATOM     18  C   UNL     1       2.607  13.353  19.511  0.00  0.00    +0.000 C 
BRANCH  18  19
ATOM     19  O   UNL     1       2.640  14.733  19.138  0.00  0.00    +0.000 OA
ATOM     20  H   UNL     1       2.934  14.810  18.215  0.00  0.00    +0.000 HD
ENDBRANCH  18  19
ENDBRANCH  16  18
ENDBRANCH   4  16
BRANCH  15  21
ATOM     21  C   UNL     1       1.017   8.170  18.218  0.00  0.00    +0.000 C 
BRANCH  21  22
ATOM     22  N   UNL     1       2.319   7.464  18.062  0.00  0.00    +0.000 NA
ATOM     23  C   UNL     1       3.403   8.358  17.642  0.00  0.00    +0.000 C 
BRANCH  22  24
ATOM     24  C   UNL     1       2.741   6.702  19.244  0.00  0.00    +0.000 C 
BRANCH  24  25
ATOM     25  C   UNL     1       2.081   5.364  19.369  0.00  0.00    +0.000 A 
ATOM     26  C   UNL     1       1.947   4.497  18.302  0.00  0.00    +0.000 A 
ATOM     27  N   UNL     1       1.420   3.261  18.402  0.00  0.00    +0.000 NA
ATOM     28  C   UNL     1       1.014   2.901  19.628  0.00  0.00    +0.000 A 
ATOM     29  N   UNL     1       1.065   3.661  20.734  0.00  0.00    +0.000 NA
ATOM     30  C   UNL     1       1.609   4.883  20.574  0.00  0.00    +0.000 A 
ENDBRANCH  24  25
ENDBRANCH  22  24
ENDBRANCH  21  22
ENDBRANCH  15  21
TORSDOF 7
ENDMDL
