MODEL 1
REMARK VINA RESULT:      -6.9      0.000      0.000
REMARK  Name = 
REMARK  8 active torsions:
REMARK  status: ('A' for Active; 'I' for Inactive)
REMARK    1  A    between atoms: C_1  and  O_2
REMARK    2  A    between atoms: O_2  and  C_3
REMARK    3  A    between atoms: C_6  and  C_7
REMARK    4  A    between atoms: C_7  and  C_8
REMARK    5  A    between atoms: C_8  and  N_9
REMARK    6  A    between atoms: C_10  and  C_12
REMARK    7  A    between atoms: C_19  and  O_20
REMARK    8  A    between atoms: O_20  and  C_21
REMARK                            x       y       z     vdW  Elec       q    Type
REMARK                         _______ _______ _______ _____ _____    ______ ____
ROOT
ATOM      1  C   UNL     1       3.846   7.037  17.478  0.00  0.00    +0.000 C 
ENDROOT
BRANCH   1   5
ATOM      2  C   UNL     1       1.644   4.289  19.985  0.00  0.00    +0.000 A 
ATOM      3  C   UNL     1       1.910   5.598  20.416  0.00  0.00    +0.000 A 
ATOM      4  C   UNL     1       2.640   6.483  19.621  0.00  0.00    +0.000 A 
ATOM      5  C   UNL     1       3.158   6.060  18.397  0.00  0.00    +0.000 A 
ATOM      6  C   UNL     1       2.974   4.725  18.015  0.00  0.00    +0.000 A 
ATOM      7  C   UNL     1       2.229   3.827  18.797  0.00  0.00    +0.000 A 
BRANCH   2   9
ATOM      8  C   UNL     1       1.526   2.640  21.677  0.00  0.00    +0.000 C 
ATOM      9  O   UNL     1       0.844   3.456  20.723  0.00  0.00    +0.000 OA
ENDBRANCH   2   9
BRANCH   7  10
ATOM     10  O   UNL     1       2.166   2.583  18.228  0.00  0.00    +0.000 OA
ATOM     11  C   UNL     1       3.366   1.852  18.032  0.00  0.00    +0.000 C 
ENDBRANCH   7  10
ENDBRANCH   1   5
BRANCH   1  12
ATOM     12  C   UNL     1       5.349   6.754  17.405  0.00  0.00    +0.000 C 
BRANCH  12  13
ATOM     13  N   UNL     1       5.770   6.349  16.074  0.00  0.00    +0.000 N 
ATOM     14  C   UNL     1       6.036   5.028  15.780  0.00  0.00    +0.000 C 
ATOM     15  O   UNL     1       5.928   4.120  16.597  0.00  0.00    +0.000 OA
ATOM     16  H   UNL     1       5.687   7.025  15.328  0.00  0.00    +0.000 HD
BRANCH  14  17
ATOM     17  C   UNL     1       6.444   4.722  14.382  0.00  0.00    +0.000 A 
ATOM     18  C   UNL     1       7.516   5.363  13.762  0.00  0.00    +0.000 A 
ATOM     19  C   UNL     1       7.824   4.999  12.463  0.00  0.00    +0.000 A 
ATOM     20  N   UNL     1       7.147   4.060  11.768  0.00  0.00    +0.000 NA
ATOM     21  C   UNL     1       6.128   3.439  12.398  0.00  0.00    +0.000 A 
ATOM     22  C   UNL     1       5.743   3.729  13.696  0.00  0.00    +0.000 A 
ENDBRANCH  14  17
ENDBRANCH  12  13
ENDBRANCH   1  12
TORSDOF 6
ENDMDL
MODEL 2
REMARK VINA RESULT:      -6.6      0.177      1.042
REMARK  Name = 
REMARK  8 active torsions:
REMARK  status: ('A' for Active; 'I' for Inactive)
REMARK    1  A    between atoms: C_1  and  O_2
REMARK    2  A    between atoms: O_2  and  C_3
REMARK    3  A    between atoms: C_6  and  C_7
REMARK    4  A    between atoms: C_7  and  C_8
REMARK    5  A    between atoms: C_8  and  N_9
REMARK    6  A    between atoms: C_10  and  C_12
REMARK    7  A    between atoms: C_19  and  O_20
REMARK    8  A    between atoms: O_20  and  C_21
REMARK                            x       y       z     vdW  Elec       q    Type
REMARK                         _______ _______ _______ _____ _____    ______ ____
ROOT
ATOM      1  C   UNL     1       3.895   6.984  17.555  0.00  0.00    +0.000 C 
ENDROOT
BRANCH   1   5
ATOM      2  C   UNL     1       1.621   4.361  20.131  0.00  0.00    +0.000 A 
ATOM      3  C   UNL     1       1.960   5.659  20.546  0.00  0.00    +0.000 A 
ATOM      4  C   UNL     1       2.713   6.502  19.728  0.00  0.00    +0.000 A 
ATOM      5  C   UNL     1       3.181   6.047  18.496  0.00  0.00    +0.000 A 
ATOM      6  C   UNL     1       2.924   4.720  18.127  0.00  0.00    +0.000 A 
ATOM      7  C   UNL     1       2.155   3.865  18.933  0.00  0.00    +0.000 A 
BRANCH   2   9
ATOM      8  C   UNL     1       1.462   2.603  21.705  0.00  0.00    +0.000 C 
ATOM      9  O   UNL     1       0.799   3.573  20.893  0.00  0.00    +0.000 OA
ENDBRANCH   2   9
BRANCH   7  10
ATOM     10  O   UNL     1       2.018   2.622  18.374  0.00  0.00    +0.000 OA
ATOM     11  C   UNL     1       3.107   2.064  17.656  0.00  0.00    +0.000 C 
ENDBRANCH   7  10
ENDBRANCH   1   5
BRANCH   1  12
ATOM     12  C   UNL     1       5.389   6.658  17.486  0.00  0.00    +0.000 C 
BRANCH  12  13
ATOM     13  N   UNL     1       5.806   6.259  16.152  0.00  0.00    +0.000 N 
ATOM     14  C   UNL     1       5.999   4.932  15.830  0.00  0.00    +0.000 C 
ATOM     15  O   UNL     1       5.826   4.014  16.624  0.00  0.00    +0.000 OA
ATOM     16  H   UNL     1       5.774   6.956  15.421  0.00  0.00    +0.000 HD
BRANCH  14  17
ATOM     17  C   UNL     1       6.410   4.634  14.432  0.00  0.00    +0.000 A 
ATOM     18  C   UNL     1       5.795   3.643  13.670  0.00  0.00    +0.000 A 
ATOM     19  C   UNL     1       6.241   3.450  12.374  0.00  0.00    +0.000 A 
ATOM     20  N   UNL     1       7.235   4.170  11.810  0.00  0.00    +0.000 NA
ATOM     21  C   UNL     1       7.800   5.138  12.561  0.00  0.00    +0.000 A 
ATOM     22  C   UNL     1       7.423   5.410  13.866  0.00  0.00    +0.000 A 
ENDBRANCH  14  17
ENDBRANCH  12  13
ENDBRANCH   1  12
TORSDOF 6
ENDMDL
MODEL 3
REMARK VINA RESULT:      -6.6      4.615      8.165
REMARK  Name = 
REMARK  8 active torsions:
REMARK  status: ('A' for Active; 'I' for Inactive)
REMARK    1  A    between atoms: C_1  and  O_2
REMARK    2  A    between atoms: O_2  and  C_3
REMARK    3  A    between atoms: C_6  and  C_7
REMARK    4  A    between atoms: C_7  and  C_8
REMARK    5  A    between atoms: C_8  and  N_9
REMARK    6  A    between atoms: C_10  and  C_12
REMARK    7  A    between atoms: C_19  and  O_20
REMARK    8  A    between atoms: O_20  and  C_21
REMARK                            x       y       z     vdW  Elec       q    Type
REMARK                         _______ _______ _______ _____ _____    ______ ____
ROOT
ATOM      1  C   UNL     1       2.456   7.245  18.429  0.00  0.00    +0.000 C 
ENDROOT
BRANCH   1   5
ATOM      2  C   UNL     1       5.394   4.715  16.518  0.00  0.00    +0.000 A 
ATOM      3  C   UNL     1       4.193   4.178  17.007  0.00  0.00    +0.000 A 
ATOM      4  C   UNL     1       3.250   4.986  17.644  0.00  0.00    +0.000 A 
ATOM      5  C   UNL     1       3.512   6.340  17.848  0.00  0.00    +0.000 A 
ATOM      6  C   UNL     1       4.752   6.853  17.446  0.00  0.00    +0.000 A 
ATOM      7  C   UNL     1       5.704   6.056  16.789  0.00  0.00    +0.000 A 
BRANCH   2   9
ATOM      8  C   UNL     1       6.140   4.018  14.385  0.00  0.00    +0.000 C 
ATOM      9  O   UNL     1       6.271   3.941  15.805  0.00  0.00    +0.000 OA
ENDBRANCH   2   9
BRANCH   7  10
ATOM     10  O   UNL     1       6.834   6.763  16.476  0.00  0.00    +0.000 OA
ATOM     11  C   UNL     1       7.490   7.503  17.494  0.00  0.00    +0.000 C 
ENDBRANCH   7  10
ENDBRANCH   1   5
BRANCH   1  12
ATOM     12  C   UNL     1       2.485   8.622  17.760  0.00  0.00    +0.000 C 
BRANCH  12  13
ATOM     13  N   UNL     1       1.156   9.191  17.613  0.00  0.00    +0.000 N 
ATOM     14  C   UNL     1       0.556   9.881  18.646  0.00  0.00    +0.000 C 
ATOM     15  O   UNL     1       1.093  10.070  19.732  0.00  0.00    +0.000 OA
ATOM     16  H   UNL     1       0.759   9.227  16.685  0.00  0.00    +0.000 HD
BRANCH  14  17
ATOM     17  C   UNL     1      -0.799  10.436  18.383  0.00  0.00    +0.000 A 
ATOM     18  C   UNL     1      -1.593   9.993  17.326  0.00  0.00    +0.000 A 
ATOM     19  C   UNL     1      -2.844  10.564  17.172  0.00  0.00    +0.000 A 
ATOM     20  N   UNL     1      -3.337  11.520  17.989  0.00  0.00    +0.000 NA
ATOM     21  C   UNL     1      -2.558  11.915  19.018  0.00  0.00    +0.000 A 
ATOM     22  C   UNL     1      -1.293  11.405  19.258  0.00  0.00    +0.000 A 
ENDBRANCH  14  17
ENDBRANCH  12  13
ENDBRANCH   1  12
TORSDOF 6
ENDMDL
MODEL 4
REMARK VINA RESULT:      -6.6      2.370      3.970
REMARK  Name = 
REMARK  8 active torsions:
REMARK  status: ('A' for Active; 'I' for Inactive)
REMARK    1  A    between atoms: C_1  and  O_2
REMARK    2  A    between atoms: O_2  and  C_3
REMARK    3  A    between atoms: C_6  and  C_7
REMARK    4  A    between atoms: C_7  and  C_8
REMARK    5  A    between atoms: C_8  and  N_9
REMARK    6  A    between atoms: C_10  and  C_12
REMARK    7  A    between atoms: C_19  and  O_20
REMARK    8  A    between atoms: O_20  and  C_21
REMARK                            x       y       z     vdW  Elec       q    Type
REMARK                         _______ _______ _______ _____ _____    ______ ____
ROOT
ATOM      1  C   UNL     1       1.810   2.365  18.264  0.00  0.00    +0.000 C 
ENDROOT
BRANCH   1   5
ATOM      2  C   UNL     1       1.990   6.243  20.166  0.00  0.00    +0.000 A 
ATOM      3  C   UNL     1       1.686   5.092  20.909  0.00  0.00    +0.000 A 
ATOM      4  C   UNL     1       1.604   3.840  20.298  0.00  0.00    +0.000 A 
ATOM      5  C   UNL     1       1.780   3.722  18.919  0.00  0.00    +0.000 A 
ATOM      6  C   UNL     1       1.988   4.885  18.166  0.00  0.00    +0.000 A 
ATOM      7  C   UNL     1       2.087   6.149  18.770  0.00  0.00    +0.000 A 
BRANCH   2   9
ATOM      8  C   UNL     1       0.976   8.211  20.998  0.00  0.00    +0.000 C 
ATOM      9  O   UNL     1       2.168   7.452  20.785  0.00  0.00    +0.000 OA
ENDBRANCH   2   9
BRANCH   7  10
ATOM     10  O   UNL     1       2.303   7.140  17.850  0.00  0.00    +0.000 OA
ATOM     11  C   UNL     1       3.636   7.488  17.509  0.00  0.00    +0.000 C 
ENDBRANCH   7  10
ENDBRANCH   1   5
BRANCH   1  12
ATOM     12  C   UNL     1       3.244   1.841  18.154  0.00  0.00    +0.000 C 
BRANCH  12  13
ATOM     13  N   UNL     1       4.146   2.822  17.574  0.00  0.00    +0.000 N 
ATOM     14  C   UNL     1       5.024   3.538  18.362  0.00  0.00    +0.000 C 
ATOM     15  O   UNL     1       5.113   3.392  19.575  0.00  0.00    +0.000 OA
ATOM     16  H   UNL     1       4.242   2.837  16.569  0.00  0.00    +0.000 HD
BRANCH  14  17
ATOM     17  C   UNL     1       5.913   4.505  17.664  0.00  0.00    +0.000 A 
ATOM     18  C   UNL     1       6.619   5.495  18.346  0.00  0.00    +0.000 A 
ATOM     19  C   UNL     1       7.429   6.340  17.608  0.00  0.00    +0.000 A 
ATOM     20  N   UNL     1       7.575   6.254  16.268  0.00  0.00    +0.000 NA
ATOM     21  C   UNL     1       6.899   5.274  15.634  0.00  0.00    +0.000 A 
ATOM     22  C   UNL     1       6.065   4.379  16.282  0.00  0.00    +0.000 A 
ENDBRANCH  14  17
ENDBRANCH  12  13
ENDBRANCH   1  12
TORSDOF 6
ENDMDL
MODEL 5
REMARK VINA RESULT:      -6.5      4.030      8.530
REMARK  Name = 
REMARK  8 active torsions:
REMARK  status: ('A' for Active; 'I' for Inactive)
REMARK    1  A    between atoms: C_1  and  O_2
REMARK    2  A    between atoms: O_2  and  C_3
REMARK    3  A    between atoms: C_6  and  C_7
REMARK    4  A    between atoms: C_7  and  C_8
REMARK    5  A    between atoms: C_8  and  N_9
REMARK    6  A    between atoms: C_10  and  C_12
REMARK    7  A    between atoms: C_19  and  O_20
REMARK    8  A    between atoms: O_20  and  C_21
REMARK                            x       y       z     vdW  Elec       q    Type
REMARK                         _______ _______ _______ _____ _____    ______ ____
ROOT
ATOM      1  C   UNL     1       3.223   5.822  18.749  0.00  0.00    +0.000 C 
ENDROOT
BRANCH   1   5
ATOM      2  C   UNL     1       6.462   5.250  15.944  0.00  0.00    +0.000 A 
ATOM      3  C   UNL     1       5.530   4.227  16.184  0.00  0.00    +0.000 A 
ATOM      4  C   UNL     1       4.495   4.397  17.104  0.00  0.00    +0.000 A 
ATOM      5  C   UNL     1       4.399   5.579  17.838  0.00  0.00    +0.000 A 
ATOM      6  C   UNL     1       5.386   6.559  17.667  0.00  0.00    +0.000 A 
ATOM      7  C   UNL     1       6.425   6.407  16.734  0.00  0.00    +0.000 A 
BRANCH   2   9
ATOM      8  C   UNL     1       6.961   4.532  13.746  0.00  0.00    +0.000 C 
ATOM      9  O   UNL     1       7.415   5.116  14.969  0.00  0.00    +0.000 OA
ENDBRANCH   2   9
BRANCH   7  10
ATOM     10  O   UNL     1       7.265   7.488  16.725  0.00  0.00    +0.000 OA
ATOM     11  C   UNL     1       7.876   7.899  17.937  0.00  0.00    +0.000 C 
ENDBRANCH   7  10
ENDBRANCH   1   5
BRANCH   1  12
ATOM     12  C   UNL     1       2.558   7.166  18.439  0.00  0.00    +0.000 C 
BRANCH  12  13
ATOM     13  N   UNL     1       1.959   7.769  19.618  0.00  0.00    +0.000 N 
ATOM     14  C   UNL     1       1.362   9.011  19.560  0.00  0.00    +0.000 C 
ATOM     15  O   UNL     1       1.285   9.674  18.532  0.00  0.00    +0.000 OA
ATOM     16  H   UNL     1       1.829   7.184  20.432  0.00  0.00    +0.000 HD
BRANCH  14  17
ATOM     17  C   UNL     1       0.766   9.528  20.821  0.00  0.00    +0.000 A 
ATOM     18  C   UNL     1       0.900   8.858  22.037  0.00  0.00    +0.000 A 
ATOM     19  C   UNL     1       0.318   9.426  23.157  0.00  0.00    +0.000 A 
ATOM     20  N   UNL     1      -0.366  10.590  23.136  0.00  0.00    +0.000 NA
ATOM     21  C   UNL     1      -0.462  11.230  21.951  0.00  0.00    +0.000 A 
ATOM     22  C   UNL     1       0.085  10.745  20.776  0.00  0.00    +0.000 A 
ENDBRANCH  14  17
ENDBRANCH  12  13
ENDBRANCH   1  12
TORSDOF 6
ENDMDL
MODEL 6
REMARK VINA RESULT:      -6.4      2.862      7.468
REMARK  Name = 
REMARK  8 active torsions:
REMARK  status: ('A' for Active; 'I' for Inactive)
REMARK    1  A    between atoms: C_1  and  O_2
REMARK    2  A    between atoms: O_2  and  C_3
REMARK    3  A    between atoms: C_6  and  C_7
REMARK    4  A    between atoms: C_7  and  C_8
REMARK    5  A    between atoms: C_8  and  N_9
REMARK    6  A    between atoms: C_10  and  C_12
REMARK    7  A    between atoms: C_19  and  O_20
REMARK    8  A    between atoms: O_20  and  C_21
REMARK                            x       y       z     vdW  Elec       q    Type
REMARK                         _______ _______ _______ _____ _____    ______ ____
ROOT
ATOM      1  C   UNL     1       4.017   3.907  18.000  0.00  0.00    +0.000 C 
ENDROOT
BRANCH   1   5
ATOM      2  C   UNL     1       6.980   5.041  15.063  0.00  0.00    +0.000 A 
ATOM      3  C   UNL     1       6.095   3.979  14.819  0.00  0.00    +0.000 A 
ATOM      4  C   UNL     1       5.151   3.593  15.771  0.00  0.00    +0.000 A 
ATOM      5  C   UNL     1       5.105   4.235  17.009  0.00  0.00    +0.000 A 
ATOM      6  C   UNL     1       6.052   5.229  17.287  0.00  0.00    +0.000 A 
ATOM      7  C   UNL     1       6.998   5.637  16.333  0.00  0.00    +0.000 A 
BRANCH   2   9
ATOM      8  C   UNL     1       7.567   4.992  12.773  0.00  0.00    +0.000 C 
ATOM      9  O   UNL     1       7.836   5.480  14.088  0.00  0.00    +0.000 OA
ENDBRANCH   2   9
BRANCH   7  10
ATOM     10  O   UNL     1       7.813   6.627  16.812  0.00  0.00    +0.000 OA
ATOM     11  C   UNL     1       7.238   7.715  17.517  0.00  0.00    +0.000 C 
ENDBRANCH   7  10
ENDBRANCH   1   5
BRANCH   1  12
ATOM     12  C   UNL     1       4.143   4.773  19.257  0.00  0.00    +0.000 C 
BRANCH  12  13
ATOM     13  N   UNL     1       3.554   6.090  19.080  0.00  0.00    +0.000 N 
ATOM     14  C   UNL     1       2.432   6.472  19.786  0.00  0.00    +0.000 C 
ATOM     15  O   UNL     1       1.872   5.750  20.603  0.00  0.00    +0.000 OA
ATOM     16  H   UNL     1       4.087   6.779  18.568  0.00  0.00    +0.000 HD
BRANCH  14  17
ATOM     17  C   UNL     1       1.921   7.847  19.539  0.00  0.00    +0.000 A 
ATOM     18  C   UNL     1       2.045   8.477  18.302  0.00  0.00    +0.000 A 
ATOM     19  C   UNL     1       1.527   9.754  18.170  0.00  0.00    +0.000 A 
ATOM     20  N   UNL     1       0.908  10.418  19.169  0.00  0.00    +0.000 NA
ATOM     21  C   UNL     1       0.781   9.778  20.351  0.00  0.00    +0.000 A 
ATOM     22  C   UNL     1       1.264   8.501  20.583  0.00  0.00    +0.000 A 
ENDBRANCH  14  17
ENDBRANCH  12  13
ENDBRANCH   1  12
TORSDOF 6
ENDMDL
MODEL 7
REMARK VINA RESULT:      -6.4      4.749      6.732
REMARK  Name = 
REMARK  8 active torsions:
REMARK  status: ('A' for Active; 'I' for Inactive)
REMARK    1  A    between atoms: C_1  and  O_2
REMARK    2  A    between atoms: O_2  and  C_3
REMARK    3  A    between atoms: C_6  and  C_7
REMARK    4  A    between atoms: C_7  and  C_8
REMARK    5  A    between atoms: C_8  and  N_9
REMARK    6  A    between atoms: C_10  and  C_12
REMARK    7  A    between atoms: C_19  and  O_20
REMARK    8  A    between atoms: O_20  and  C_21
REMARK                            x       y       z     vdW  Elec       q    Type
REMARK                         _______ _______ _______ _____ _____    ______ ____
ROOT
ATOM      1  C   UNL     1       7.768   6.182  18.819  0.00  0.00    +0.000 C 
ENDROOT
BRANCH   1   5
ATOM      2  C   UNL     1       4.137   4.148  17.649  0.00  0.00    +0.000 A 
ATOM      3  C   UNL     1       4.383   4.462  18.995  0.00  0.00    +0.000 A 
ATOM      4  C   UNL     1       5.563   5.099  19.383  0.00  0.00    +0.000 A 
ATOM      5  C   UNL     1       6.543   5.393  18.435  0.00  0.00    +0.000 A 
ATOM      6  C   UNL     1       6.337   4.992  17.108  0.00  0.00    +0.000 A 
ATOM      7  C   UNL     1       5.148   4.364  16.701  0.00  0.00    +0.000 A 
BRANCH   2   9
ATOM      8  C   UNL     1       2.673   2.293  17.735  0.00  0.00    +0.000 C 
ATOM      9  O   UNL     1       2.937   3.615  17.261  0.00  0.00    +0.000 OA
ENDBRANCH   2   9
BRANCH   7  10
ATOM     10  O   UNL     1       5.156   4.073  15.363  0.00  0.00    +0.000 OA
ATOM     11  C   UNL     1       6.391   4.066  14.665  0.00  0.00    +0.000 C 
ENDBRANCH   7  10
ENDBRANCH   1   5
BRANCH   1  12
ATOM     12  C   UNL     1       7.839   7.498  18.040  0.00  0.00    +0.000 C 
BRANCH  12  13
ATOM     13  N   UNL     1       8.714   8.469  18.675  0.00  0.00    +0.000 N 
ATOM     14  C   UNL     1       8.664   9.805  18.337  0.00  0.00    +0.000 C 
ATOM     15  O   UNL     1       7.887  10.261  17.506  0.00  0.00    +0.000 OA
ATOM     16  H   UNL     1       9.229   8.174  19.493  0.00  0.00    +0.000 HD
BRANCH  14  17
ATOM     17  C   UNL     1       9.594  10.714  19.060  0.00  0.00    +0.000 A 
ATOM     18  C   UNL     1      10.685  11.315  18.435  0.00  0.00    +0.000 A 
ATOM     19  C   UNL     1      11.484  12.154  19.191  0.00  0.00    +0.000 A 
ATOM     20  N   UNL     1      11.263  12.424  20.496  0.00  0.00    +0.000 NA
ATOM     21  C   UNL     1      10.187  11.847  21.072  0.00  0.00    +0.000 A 
ATOM     22  C   UNL     1       9.327  10.995  20.401  0.00  0.00    +0.000 A 
ENDBRANCH  14  17
ENDBRANCH  12  13
ENDBRANCH   1  12
TORSDOF 6
ENDMDL
MODEL 8
REMARK VINA RESULT:      -6.3      3.099      4.499
REMARK  Name = 
REMARK  8 active torsions:
REMARK  status: ('A' for Active; 'I' for Inactive)
REMARK    1  A    between atoms: C_1  and  O_2
REMARK    2  A    between atoms: O_2  and  C_3
REMARK    3  A    between atoms: C_6  and  C_7
REMARK    4  A    between atoms: C_7  and  C_8
REMARK    5  A    between atoms: C_8  and  N_9
REMARK    6  A    between atoms: C_10  and  C_12
REMARK    7  A    between atoms: C_19  and  O_20
REMARK    8  A    between atoms: O_20  and  C_21
REMARK                            x       y       z     vdW  Elec       q    Type
REMARK                         _______ _______ _______ _____ _____    ______ ____
ROOT
ATOM      1  C   UNL     1       2.290   3.498  17.500  0.00  0.00    +0.000 C 
ENDROOT
BRANCH   1   5
ATOM      2  C   UNL     1       1.911   6.773  20.297  0.00  0.00    +0.000 A 
ATOM      3  C   UNL     1       1.548   5.467  20.666  0.00  0.00    +0.000 A 
ATOM      4  C   UNL     1       1.647   4.410  19.761  0.00  0.00    +0.000 A 
ATOM      5  C   UNL     1       2.068   4.646  18.452  0.00  0.00    +0.000 A 
ATOM      6  C   UNL     1       2.336   5.964  18.060  0.00  0.00    +0.000 A 
ATOM      7  C   UNL     1       2.255   7.036  18.964  0.00  0.00    +0.000 A 
BRANCH   2   9
ATOM      8  C   UNL     1       0.680   8.511  21.324  0.00  0.00    +0.000 C 
ATOM      9  O   UNL     1       1.907   7.788  21.217  0.00  0.00    +0.000 OA
ENDBRANCH   2   9
BRANCH   7  10
ATOM     10  O   UNL     1       2.572   8.229  18.371  0.00  0.00    +0.000 OA
ATOM     11  C   UNL     1       1.553   8.965  17.714  0.00  0.00    +0.000 C 
ENDBRANCH   7  10
ENDBRANCH   1   5
BRANCH   1  12
ATOM     12  C   UNL     1       3.648   2.836  17.748  0.00  0.00    +0.000 C 
BRANCH  12  13
ATOM     13  N   UNL     1       4.666   3.796  18.141  0.00  0.00    +0.000 N 
ATOM     14  C   UNL     1       5.428   4.456  17.199  0.00  0.00    +0.000 C 
ATOM     15  O   UNL     1       5.297   4.293  15.991  0.00  0.00    +0.000 OA
ATOM     16  H   UNL     1       4.677   4.102  19.104  0.00  0.00    +0.000 HD
BRANCH  14  17
ATOM     17  C   UNL     1       6.431   5.429  17.711  0.00  0.00    +0.000 A 
ATOM     18  C   UNL     1       7.212   5.171  18.837  0.00  0.00    +0.000 A 
ATOM     19  C   UNL     1       8.125   6.135  19.226  0.00  0.00    +0.000 A 
ATOM     20  N   UNL     1       8.301   7.305  18.576  0.00  0.00    +0.000 NA
ATOM     21  C   UNL     1       7.548   7.521  17.477  0.00  0.00    +0.000 A 
ATOM     22  C   UNL     1       6.609   6.620  17.006  0.00  0.00    +0.000 A 
ENDBRANCH  14  17
ENDBRANCH  12  13
ENDBRANCH   1  12
TORSDOF 6
ENDMDL
MODEL 9
REMARK VINA RESULT:      -6.3      5.180      7.579
REMARK  Name = 
REMARK  8 active torsions:
REMARK  status: ('A' for Active; 'I' for Inactive)
REMARK    1  A    between atoms: C_1  and  O_2
REMARK    2  A    between atoms: O_2  and  C_3
REMARK    3  A    between atoms: C_6  and  C_7
REMARK    4  A    between atoms: C_7  and  C_8
REMARK    5  A    between atoms: C_8  and  N_9
REMARK    6  A    between atoms: C_10  and  C_12
REMARK    7  A    between atoms: C_19  and  O_20
REMARK    8  A    between atoms: O_20  and  C_21
REMARK                            x       y       z     vdW  Elec       q    Type
REMARK                         _______ _______ _______ _____ _____    ______ ____
ROOT
ATOM      1  C   UNL     1       2.513   8.274  17.678  0.00  0.00    +0.000 C 
ENDROOT
BRANCH   1   5
ATOM      2  C   UNL     1       2.659   4.494  19.770  0.00  0.00    +0.000 A 
ATOM      3  C   UNL     1       2.118   5.634  20.384  0.00  0.00    +0.000 A 
ATOM      4  C   UNL     1       2.088   6.863  19.722  0.00  0.00    +0.000 A 
ATOM      5  C   UNL     1       2.642   6.985  18.449  0.00  0.00    +0.000 A 
ATOM      6  C   UNL     1       3.268   5.869  17.878  0.00  0.00    +0.000 A 
ATOM      7  C   UNL     1       3.292   4.623  18.525  0.00  0.00    +0.000 A 
BRANCH   2   9
ATOM      8  C   UNL     1       1.727   3.197  21.515  0.00  0.00    +0.000 C 
ATOM      9  O   UNL     1       2.596   3.270  20.383  0.00  0.00    +0.000 OA
ENDBRANCH   2   9
BRANCH   7  10
ATOM     10  O   UNL     1       3.942   3.673  17.783  0.00  0.00    +0.000 OA
ATOM     11  C   UNL     1       4.656   4.072  16.624  0.00  0.00    +0.000 C 
ENDBRANCH   7  10
ENDBRANCH   1   5
BRANCH   1  12
ATOM     12  C   UNL     1       1.682   9.297  18.457  0.00  0.00    +0.000 C 
BRANCH  12  13
ATOM     13  N   UNL     1       0.374   9.513  17.861  0.00  0.00    +0.000 N 
ATOM     14  C   UNL     1      -0.459  10.516  18.312  0.00  0.00    +0.000 C 
ATOM     15  O   UNL     1      -0.158  11.286  19.217  0.00  0.00    +0.000 OA
ATOM     16  H   UNL     1       0.166   9.034  16.996  0.00  0.00    +0.000 HD
BRANCH  14  17
ATOM     17  C   UNL     1      -1.769  10.659  17.621  0.00  0.00    +0.000 A 
ATOM     18  C   UNL     1      -2.056  10.003  16.425  0.00  0.00    +0.000 A 
ATOM     19  C   UNL     1      -3.308  10.191  15.867  0.00  0.00    +0.000 A 
ATOM     20  N   UNL     1      -4.263  10.971  16.417  0.00  0.00    +0.000 NA
ATOM     21  C   UNL     1      -3.968  11.578  17.586  0.00  0.00    +0.000 A 
ATOM     22  C   UNL     1      -2.746  11.451  18.225  0.00  0.00    +0.000 A 
ENDBRANCH  14  17
ENDBRANCH  12  13
ENDBRANCH   1  12
TORSDOF 6
ENDMDL
