MODEL 1
REMARK VINA RESULT:      -7.9      0.000      0.000
REMARK  Name = 
REMARK  4 active torsions:
REMARK  status: ('A' for Active; 'I' for Inactive)
REMARK    1  A    between atoms: C_2  and  C_9
REMARK    2  A    between atoms: C_13  and  S_14
REMARK    3  A    between atoms: S_14  and  C_15
REMARK    4  A    between atoms: C_23  and  O_24
REMARK                            x       y       z     vdW  Elec       q    Type
REMARK                         _______ _______ _______ _____ _____    ______ ____
ROOT
ATOM      1  C   UNL     1       2.099   7.855  19.203  0.00  0.00    +0.000 A 
ATOM      2  C   UNL     1       2.130   6.739  20.018  0.00  0.00    +0.000 A 
ATOM      3  N   UNL     1       2.886   5.641  19.780  0.00  0.00    +0.000 NA
ATOM      4  C   UNL     1       3.658   5.597  18.675  0.00  0.00    +0.000 A 
ATOM      5  C   UNL     1       4.437   4.458  18.406  0.00  0.00    +0.000 A 
ATOM      6  C   UNL     1       5.216   4.365  17.244  0.00  0.00    +0.000 A 
ATOM      7  C   UNL     1       5.253   5.421  16.345  0.00  0.00    +0.000 A 
ATOM      8  C   UNL     1       4.510   6.570  16.603  0.00  0.00    +0.000 A 
ATOM      9  C   UNL     1       3.692   6.680  17.757  0.00  0.00    +0.000 A 
ATOM     10  C   UNL     1       2.894   7.815  18.055  0.00  0.00    +0.000 A 
ENDROOT
BRANCH   1  12
ATOM     11  O   UNL     1       0.908   9.797  18.743  0.00  0.00    +0.000 OA
ATOM     12  C   UNL     1       1.188   8.961  19.597  0.00  0.00    +0.000 C 
ATOM     13  N   UNL     1       0.754   8.946  20.902  0.00  0.00    +0.000 N 
ATOM     14  C   UNL     1      -0.065   9.914  21.409  0.00  0.00    +0.000 A 
ATOM     15  N   UNL     1      -0.660  10.904  20.794  0.00  0.00    +0.000 NA
ATOM     16  C   UNL     1      -1.348  11.670  21.712  0.00  0.00    +0.000 A 
ATOM     17  C   UNL     1      -1.265  11.243  23.020  0.00  0.00    +0.000 A 
ATOM     18  S   UNL     1      -0.321   9.809  23.096  0.00  0.00    +0.000 S 
ATOM     19  H   UNL     1       1.120   8.255  21.545  0.00  0.00    +0.000 HD
ENDBRANCH   1  12
BRANCH  10  20
ATOM     20  O   UNL     1       2.870   8.905  17.211  0.00  0.00    +0.000 OA
ATOM     21  H   UNL     1       2.110   8.819  16.608  0.00  0.00    +0.000 HD
ENDBRANCH  10  20
BRANCH   5  22
ATOM     22  S   UNL     1       4.418   3.008  19.472  0.00  0.00    +0.000 S 
BRANCH  22  23
ATOM     23  C   UNL     1       3.231   1.968  18.612  0.00  0.00    +0.000 C 
ATOM     24  F   UNL     1       2.745   2.488  17.461  0.00  0.00    +0.000 F 
ATOM     25  F   UNL     1       3.754   0.748  18.331  0.00  0.00    +0.000 F 
ATOM     26  F   UNL     1       2.153   1.748  19.414  0.00  0.00    +0.000 F 
ENDBRANCH  22  23
ENDBRANCH   5  22
TORSDOF 4
ENDMDL
MODEL 2
REMARK VINA RESULT:      -7.7      4.378      8.207
REMARK  Name = 
REMARK  4 active torsions:
REMARK  status: ('A' for Active; 'I' for Inactive)
REMARK    1  A    between atoms: C_2  and  C_9
REMARK    2  A    between atoms: C_13  and  S_14
REMARK    3  A    between atoms: S_14  and  C_15
REMARK    4  A    between atoms: C_23  and  O_24
REMARK                            x       y       z     vdW  Elec       q    Type
REMARK                         _______ _______ _______ _____ _____    ______ ____
ROOT
ATOM      1  C   UNL     1       2.326   7.506  18.692  0.00  0.00    +0.000 A 
ATOM      2  C   UNL     1       1.981   8.600  17.920  0.00  0.00    +0.000 A 
ATOM      3  N   UNL     1       1.321   9.686  18.388  0.00  0.00    +0.000 NA
ATOM      4  C   UNL     1       0.949   9.726  19.684  0.00  0.00    +0.000 A 
ATOM      5  C   UNL     1       0.251  10.840  20.181  0.00  0.00    +0.000 A 
ATOM      6  C   UNL     1      -0.187  10.891  21.512  0.00  0.00    +0.000 A 
ATOM      7  C   UNL     1       0.092   9.844  22.377  0.00  0.00    +0.000 A 
ATOM      8  C   UNL     1       0.806   8.741  21.914  0.00  0.00    +0.000 A 
ATOM      9  C   UNL     1       1.236   8.651  20.566  0.00  0.00    +0.000 A 
ATOM     10  C   UNL     1       1.942   7.539  20.034  0.00  0.00    +0.000 A 
ENDROOT
BRANCH   1  12
ATOM     11  O   UNL     1       2.399   5.339  17.857  0.00  0.00    +0.000 OA
ATOM     12  C   UNL     1       3.023   6.384  18.010  0.00  0.00    +0.000 C 
ATOM     13  N   UNL     1       4.319   6.629  17.622  0.00  0.00    +0.000 N 
ATOM     14  C   UNL     1       5.088   5.681  17.009  0.00  0.00    +0.000 A 
ATOM     15  N   UNL     1       4.755   4.489  16.584  0.00  0.00    +0.000 NA
ATOM     16  C   UNL     1       5.868   3.853  16.076  0.00  0.00    +0.000 A 
ATOM     17  C   UNL     1       7.038   4.581  16.123  0.00  0.00    +0.000 A 
ATOM     18  S   UNL     1       6.723   6.130  16.793  0.00  0.00    +0.000 S 
ATOM     19  H   UNL     1       4.764   7.502  17.878  0.00  0.00    +0.000 HD
ENDBRANCH   1  12
BRANCH  10  20
ATOM     20  O   UNL     1       2.254   6.455  20.826  0.00  0.00    +0.000 OA
ATOM     21  H   UNL     1       3.182   6.206  20.668  0.00  0.00    +0.000 HD
ENDBRANCH  10  20
BRANCH   5  22
ATOM     22  S   UNL     1      -0.217  12.226  19.133  0.00  0.00    +0.000 S 
BRANCH  22  23
ATOM     23  C   UNL     1      -1.804  11.662  18.507  0.00  0.00    +0.000 C 
ATOM     24  F   UNL     1      -2.018  10.329  18.611  0.00  0.00    +0.000 F 
ATOM     25  F   UNL     1      -2.833  12.298  19.119  0.00  0.00    +0.000 F 
ATOM     26  F   UNL     1      -1.903  11.958  17.182  0.00  0.00    +0.000 F 
ENDBRANCH  22  23
ENDBRANCH   5  22
TORSDOF 4
ENDMDL
MODEL 3
REMARK VINA RESULT:      -7.5      1.543      1.664
REMARK  Name = 
REMARK  4 active torsions:
REMARK  status: ('A' for Active; 'I' for Inactive)
REMARK    1  A    between atoms: C_2  and  C_9
REMARK    2  A    between atoms: C_13  and  S_14
REMARK    3  A    between atoms: S_14  and  C_15
REMARK    4  A    between atoms: C_23  and  O_24
REMARK                            x       y       z     vdW  Elec       q    Type
REMARK                         _______ _______ _______ _____ _____    ______ ____
ROOT
ATOM      1  C   UNL     1       1.979   7.973  19.432  0.00  0.00    +0.000 A 
ATOM      2  C   UNL     1       2.063   6.823  20.195  0.00  0.00    +0.000 A 
ATOM      3  N   UNL     1       2.817   5.746  19.871  0.00  0.00    +0.000 NA
ATOM      4  C   UNL     1       3.533   5.760  18.728  0.00  0.00    +0.000 A 
ATOM      5  C   UNL     1       4.310   4.644  18.371  0.00  0.00    +0.000 A 
ATOM      6  C   UNL     1       5.030   4.612  17.169  0.00  0.00    +0.000 A 
ATOM      7  C   UNL     1       5.010   5.706  16.317  0.00  0.00    +0.000 A 
ATOM      8  C   UNL     1       4.269   6.833  16.662  0.00  0.00    +0.000 A 
ATOM      9  C   UNL     1       3.510   6.882  17.859  0.00  0.00    +0.000 A 
ATOM     10  C   UNL     1       2.715   7.994  18.246  0.00  0.00    +0.000 A 
ENDROOT
BRANCH   1  12
ATOM     11  O   UNL     1       1.149   9.355  21.106  0.00  0.00    +0.000 OA
ATOM     12  C   UNL     1       1.077   9.049  19.920  0.00  0.00    +0.000 C 
ATOM     13  N   UNL     1       0.232   9.596  18.984  0.00  0.00    +0.000 N 
ATOM     14  C   UNL     1      -0.669  10.574  19.297  0.00  0.00    +0.000 A 
ATOM     15  N   UNL     1      -0.825  11.231  20.417  0.00  0.00    +0.000 NA
ATOM     16  C   UNL     1      -1.895  12.092  20.302  0.00  0.00    +0.000 A 
ATOM     17  C   UNL     1      -2.540  12.075  19.083  0.00  0.00    +0.000 A 
ATOM     18  S   UNL     1      -1.751  10.968  18.033  0.00  0.00    +0.000 S 
ATOM     19  H   UNL     1       0.196   9.205  18.050  0.00  0.00    +0.000 HD
ENDBRANCH   1  12
BRANCH  10  20
ATOM     20  O   UNL     1       2.637   9.118  17.453  0.00  0.00    +0.000 OA
ATOM     21  H   UNL     1       3.346   9.734  17.710  0.00  0.00    +0.000 HD
ENDBRANCH  10  20
BRANCH   5  22
ATOM     22  S   UNL     1       4.359   3.149  19.371  0.00  0.00    +0.000 S 
BRANCH  22  23
ATOM     23  C   UNL     1       3.164   2.120  18.508  0.00  0.00    +0.000 C 
ATOM     24  F   UNL     1       2.523   2.728  17.483  0.00  0.00    +0.000 F 
ATOM     25  F   UNL     1       3.739   0.989  18.029  0.00  0.00    +0.000 F 
ATOM     26  F   UNL     1       2.195   1.720  19.377  0.00  0.00    +0.000 F 
ENDBRANCH  22  23
ENDBRANCH   5  22
TORSDOF 4
ENDMDL
MODEL 4
REMARK VINA RESULT:      -7.5      2.608      3.132
REMARK  Name = 
REMARK  4 active torsions:
REMARK  status: ('A' for Active; 'I' for Inactive)
REMARK    1  A    between atoms: C_2  and  C_9
REMARK    2  A    between atoms: C_13  and  S_14
REMARK    3  A    between atoms: S_14  and  C_15
REMARK    4  A    between atoms: C_23  and  O_24
REMARK                            x       y       z     vdW  Elec       q    Type
REMARK                         _______ _______ _______ _____ _____    ______ ____
ROOT
ATOM      1  C   UNL     1       1.113   9.365  19.633  0.00  0.00    +0.000 A 
ATOM      2  C   UNL     1       0.990   8.527  20.726  0.00  0.00    +0.000 A 
ATOM      3  N   UNL     1       1.537   7.292  20.806  0.00  0.00    +0.000 NA
ATOM      4  C   UNL     1       2.243   6.812  19.762  0.00  0.00    +0.000 A 
ATOM      5  C   UNL     1       2.806   5.526  19.824  0.00  0.00    +0.000 A 
ATOM      6  C   UNL     1       3.507   4.984  18.738  0.00  0.00    +0.000 A 
ATOM      7  C   UNL     1       3.685   5.729  17.582  0.00  0.00    +0.000 A 
ATOM      8  C   UNL     1       3.159   7.016  17.506  0.00  0.00    +0.000 A 
ATOM      9  C   UNL     1       2.422   7.579  18.580  0.00  0.00    +0.000 A 
ATOM     10  C   UNL     1       1.841   8.874  18.546  0.00  0.00    +0.000 A 
ENDROOT
BRANCH   1  12
ATOM     11  O   UNL     1      -0.768  10.677  20.002  0.00  0.00    +0.000 OA
ATOM     12  C   UNL     1       0.421  10.678  19.700  0.00  0.00    +0.000 C 
ATOM     13  N   UNL     1       1.189  11.778  19.400  0.00  0.00    +0.000 N 
ATOM     14  C   UNL     1       0.678  13.045  19.395  0.00  0.00    +0.000 A 
ATOM     15  N   UNL     1      -0.507  13.464  19.761  0.00  0.00    +0.000 NA
ATOM     16  C   UNL     1      -0.607  14.820  19.535  0.00  0.00    +0.000 A 
ATOM     17  C   UNL     1       0.516  15.415  18.998  0.00  0.00    +0.000 A 
ATOM     18  S   UNL     1       1.751  14.237  18.806  0.00  0.00    +0.000 S 
ATOM     19  H   UNL     1       2.141  11.655  19.077  0.00  0.00    +0.000 HD
ENDBRANCH   1  12
BRANCH  10  20
ATOM     20  O   UNL     1       1.966   9.677  17.433  0.00  0.00    +0.000 OA
ATOM     21  H   UNL     1       1.185  10.256  17.373  0.00  0.00    +0.000 HD
ENDBRANCH  10  20
BRANCH   5  22
ATOM     22  S   UNL     1       2.586   4.450  21.249  0.00  0.00    +0.000 S 
BRANCH  22  23
ATOM     23  C   UNL     1       1.362   3.294  20.620  0.00  0.00    +0.000 C 
ATOM     24  F   UNL     1       1.840   2.370  19.755  0.00  0.00    +0.000 F 
ATOM     25  F   UNL     1       0.736   2.637  21.628  0.00  0.00    +0.000 F 
ATOM     26  F   UNL     1       0.394   3.977  19.948  0.00  0.00    +0.000 F 
ENDBRANCH  22  23
ENDBRANCH   5  22
TORSDOF 4
ENDMDL
MODEL 5
REMARK VINA RESULT:      -7.4      4.667      8.346
REMARK  Name = 
REMARK  4 active torsions:
REMARK  status: ('A' for Active; 'I' for Inactive)
REMARK    1  A    between atoms: C_2  and  C_9
REMARK    2  A    between atoms: C_13  and  S_14
REMARK    3  A    between atoms: S_14  and  C_15
REMARK    4  A    between atoms: C_23  and  O_24
REMARK                            x       y       z     vdW  Elec       q    Type
REMARK                         _______ _______ _______ _____ _____    ______ ____
ROOT
ATOM      1  C   UNL     1       2.336   7.569  18.638  0.00  0.00    +0.000 A 
ATOM      2  C   UNL     1       2.040   8.665  17.849  0.00  0.00    +0.000 A 
ATOM      3  N   UNL     1       1.398   9.772  18.290  0.00  0.00    +0.000 NA
ATOM      4  C   UNL     1       0.995   9.835  19.576  0.00  0.00    +0.000 A 
ATOM      5  C   UNL     1       0.314  10.971  20.046  0.00  0.00    +0.000 A 
ATOM      6  C   UNL     1      -0.155  11.047  21.364  0.00  0.00    +0.000 A 
ATOM      7  C   UNL     1       0.074  10.000  22.245  0.00  0.00    +0.000 A 
ATOM      8  C   UNL     1       0.768   8.874  21.810  0.00  0.00    +0.000 A 
ATOM      9  C   UNL     1       1.230   8.761  20.474  0.00  0.00    +0.000 A 
ATOM     10  C   UNL     1       1.919   7.625  19.970  0.00  0.00    +0.000 A 
ENDROOT
BRANCH   1  12
ATOM     11  O   UNL     1       2.388   5.378  17.868  0.00  0.00    +0.000 OA
ATOM     12  C   UNL     1       3.019   6.423  17.984  0.00  0.00    +0.000 C 
ATOM     13  N   UNL     1       4.314   6.648  17.578  0.00  0.00    +0.000 N 
ATOM     14  C   UNL     1       5.071   5.677  16.987  0.00  0.00    +0.000 A 
ATOM     15  N   UNL     1       4.727   4.475  16.600  0.00  0.00    +0.000 NA
ATOM     16  C   UNL     1       5.830   3.817  16.101  0.00  0.00    +0.000 A 
ATOM     17  C   UNL     1       7.006   4.537  16.116  0.00  0.00    +0.000 A 
ATOM     18  S   UNL     1       6.707   6.108  16.743  0.00  0.00    +0.000 S 
ATOM     19  H   UNL     1       4.767   7.525  17.803  0.00  0.00    +0.000 HD
ENDBRANCH   1  12
BRANCH  10  20
ATOM     20  O   UNL     1       2.182   6.540  20.779  0.00  0.00    +0.000 OA
ATOM     21  H   UNL     1       1.547   5.832  20.571  0.00  0.00    +0.000 HD
ENDBRANCH  10  20
BRANCH   5  22
ATOM     22  S   UNL     1      -0.089  12.360  18.974  0.00  0.00    +0.000 S 
BRANCH  22  23
ATOM     23  C   UNL     1       1.479  13.238  18.946  0.00  0.00    +0.000 C 
ATOM     24  F   UNL     1       1.377  14.587  18.964  0.00  0.00    +0.000 F 
ATOM     25  F   UNL     1       2.274  12.865  19.979  0.00  0.00    +0.000 F 
ATOM     26  F   UNL     1       2.156  12.924  17.807  0.00  0.00    +0.000 F 
ENDBRANCH  22  23
ENDBRANCH   5  22
TORSDOF 4
ENDMDL
MODEL 6
REMARK VINA RESULT:      -7.4      4.254      8.100
REMARK  Name = 
REMARK  4 active torsions:
REMARK  status: ('A' for Active; 'I' for Inactive)
REMARK    1  A    between atoms: C_2  and  C_9
REMARK    2  A    between atoms: C_13  and  S_14
REMARK    3  A    between atoms: S_14  and  C_15
REMARK    4  A    between atoms: C_23  and  O_24
REMARK                            x       y       z     vdW  Elec       q    Type
REMARK                         _______ _______ _______ _____ _____    ______ ____
ROOT
ATOM      1  C   UNL     1       1.974   7.984  18.900  0.00  0.00    +0.000 A 
ATOM      2  C   UNL     1       1.544   8.891  17.949  0.00  0.00    +0.000 A 
ATOM      3  N   UNL     1       0.772   9.970  18.217  0.00  0.00    +0.000 NA
ATOM      4  C   UNL     1       0.367  10.194  19.484  0.00  0.00    +0.000 A 
ATOM      5  C   UNL     1      -0.447  11.302  19.777  0.00  0.00    +0.000 A 
ATOM      6  C   UNL     1      -0.920  11.536  21.075  0.00  0.00    +0.000 A 
ATOM      7  C   UNL     1      -0.563  10.684  22.110  0.00  0.00    +0.000 A 
ATOM      8  C   UNL     1       0.264   9.595  21.850  0.00  0.00    +0.000 A 
ATOM      9  C   UNL     1       0.734   9.319  20.540  0.00  0.00    +0.000 A 
ATOM     10  C   UNL     1       1.556   8.208  20.213  0.00  0.00    +0.000 A 
ENDROOT
BRANCH   1  12
ATOM     11  O   UNL     1       3.816   7.091  17.800  0.00  0.00    +0.000 OA
ATOM     12  C   UNL     1       2.792   6.837  18.426  0.00  0.00    +0.000 C 
ATOM     13  N   UNL     1       2.307   5.587  18.730  0.00  0.00    +0.000 N 
ATOM     14  C   UNL     1       2.940   4.443  18.335  0.00  0.00    +0.000 A 
ATOM     15  N   UNL     1       4.100   4.297  17.747  0.00  0.00    +0.000 NA
ATOM     16  C   UNL     1       4.319   2.961  17.484  0.00  0.00    +0.000 A 
ATOM     17  C   UNL     1       3.312   2.107  17.883  0.00  0.00    +0.000 A 
ATOM     18  S   UNL     1       2.066   3.008  18.648  0.00  0.00    +0.000 S 
ATOM     19  H   UNL     1       1.403   5.493  19.177  0.00  0.00    +0.000 HD
ENDBRANCH   1  12
BRANCH  10  20
ATOM     20  O   UNL     1       1.951   7.311  21.182  0.00  0.00    +0.000 OA
ATOM     21  H   UNL     1       1.389   6.518  21.126  0.00  0.00    +0.000 HD
ENDBRANCH  10  20
BRANCH   5  22
ATOM     22  S   UNL     1      -1.020  12.436  18.502  0.00  0.00    +0.000 S 
BRANCH  22  23
ATOM     23  C   UNL     1      -2.396  11.507  17.811  0.00  0.00    +0.000 C 
ATOM     24  F   UNL     1      -2.466  10.214  18.204  0.00  0.00    +0.000 F 
ATOM     25  F   UNL     1      -3.584  12.095  18.097  0.00  0.00    +0.000 F 
ATOM     26  F   UNL     1      -2.294  11.486  16.454  0.00  0.00    +0.000 F 
ENDBRANCH  22  23
ENDBRANCH   5  22
TORSDOF 4
ENDMDL
MODEL 7
REMARK VINA RESULT:      -7.3      2.509      3.226
REMARK  Name = 
REMARK  4 active torsions:
REMARK  status: ('A' for Active; 'I' for Inactive)
REMARK    1  A    between atoms: C_2  and  C_9
REMARK    2  A    between atoms: C_13  and  S_14
REMARK    3  A    between atoms: S_14  and  C_15
REMARK    4  A    between atoms: C_23  and  O_24
REMARK                            x       y       z     vdW  Elec       q    Type
REMARK                         _______ _______ _______ _____ _____    ______ ____
ROOT
ATOM      1  C   UNL     1       2.144   7.686  19.217  0.00  0.00    +0.000 A 
ATOM      2  C   UNL     1       2.961   7.728  18.102  0.00  0.00    +0.000 A 
ATOM      3  N   UNL     1       3.730   6.697  17.680  0.00  0.00    +0.000 NA
ATOM      4  C   UNL     1       3.732   5.544  18.380  0.00  0.00    +0.000 A 
ATOM      5  C   UNL     1       4.536   4.469  17.963  0.00  0.00    +0.000 A 
ATOM      6  C   UNL     1       4.592   3.274  18.694  0.00  0.00    +0.000 A 
ATOM      7  C   UNL     1       3.823   3.122  19.838  0.00  0.00    +0.000 A 
ATOM      8  C   UNL     1       2.999   4.163  20.257  0.00  0.00    +0.000 A 
ATOM      9  C   UNL     1       2.944   5.392  19.551  0.00  0.00    +0.000 A 
ATOM     10  C   UNL     1       2.143   6.496  19.948  0.00  0.00    +0.000 A 
ENDROOT
BRANCH   1  12
ATOM     11  O   UNL     1       1.351   9.811  18.711  0.00  0.00    +0.000 OA
ATOM     12  C   UNL     1       1.390   8.921  19.555  0.00  0.00    +0.000 C 
ATOM     13  N   UNL     1       0.813   8.949  20.803  0.00  0.00    +0.000 N 
ATOM     14  C   UNL     1       0.113  10.030  21.258  0.00  0.00    +0.000 A 
ATOM     15  N   UNL     1      -0.235  11.121  20.624  0.00  0.00    +0.000 NA
ATOM     16  C   UNL     1      -0.887  11.970  21.492  0.00  0.00    +0.000 A 
ATOM     17  C   UNL     1      -1.026  11.505  22.783  0.00  0.00    +0.000 A 
ATOM     18  S   UNL     1      -0.348   9.932  22.901  0.00  0.00    +0.000 S 
ATOM     19  H   UNL     1       0.983   8.192  21.453  0.00  0.00    +0.000 HD
ENDBRANCH   1  12
BRANCH  10  20
ATOM     20  O   UNL     1       1.354   6.428  21.076  0.00  0.00    +0.000 OA
ATOM     21  H   UNL     1       1.563   5.609  21.558  0.00  0.00    +0.000 HD
ENDBRANCH  10  20
BRANCH   5  22
ATOM     22  S   UNL     1       5.618   4.579  16.529  0.00  0.00    +0.000 S 
BRANCH  22  23
ATOM     23  C   UNL     1       7.140   5.155  17.293  0.00  0.00    +0.000 C 
ATOM     24  F   UNL     1       8.143   4.246  17.322  0.00  0.00    +0.000 F 
ATOM     25  F   UNL     1       7.608   6.273  16.684  0.00  0.00    +0.000 F 
ATOM     26  F   UNL     1       6.899   5.495  18.589  0.00  0.00    +0.000 F 
ENDBRANCH  22  23
ENDBRANCH   5  22
TORSDOF 4
ENDMDL
MODEL 8
REMARK VINA RESULT:      -7.3      1.800      2.420
REMARK  Name = 
REMARK  4 active torsions:
REMARK  status: ('A' for Active; 'I' for Inactive)
REMARK    1  A    between atoms: C_2  and  C_9
REMARK    2  A    between atoms: C_13  and  S_14
REMARK    3  A    between atoms: S_14  and  C_15
REMARK    4  A    between atoms: C_23  and  O_24
REMARK                            x       y       z     vdW  Elec       q    Type
REMARK                         _______ _______ _______ _____ _____    ______ ____
ROOT
ATOM      1  C   UNL     1       1.102   9.304  19.645  0.00  0.00    +0.000 A 
ATOM      2  C   UNL     1       0.985   8.458  20.732  0.00  0.00    +0.000 A 
ATOM      3  N   UNL     1       1.550   7.229  20.808  0.00  0.00    +0.000 NA
ATOM      4  C   UNL     1       2.267   6.766  19.763  0.00  0.00    +0.000 A 
ATOM      5  C   UNL     1       2.848   5.488  19.820  0.00  0.00    +0.000 A 
ATOM      6  C   UNL     1       3.562   4.962  18.734  0.00  0.00    +0.000 A 
ATOM      7  C   UNL     1       3.734   5.718  17.584  0.00  0.00    +0.000 A 
ATOM      8  C   UNL     1       3.191   6.998  17.514  0.00  0.00    +0.000 A 
ATOM      9  C   UNL     1       2.440   7.543  18.587  0.00  0.00    +0.000 A 
ATOM     10  C   UNL     1       1.841   8.830  18.559  0.00  0.00    +0.000 A 
ENDROOT
BRANCH   1  12
ATOM     11  O   UNL     1       0.555  11.394  18.790  0.00  0.00    +0.000 OA
ATOM     12  C   UNL     1       0.391  10.607  19.717  0.00  0.00    +0.000 C 
ATOM     13  N   UNL     1      -0.381  10.809  20.836  0.00  0.00    +0.000 N 
ATOM     14  C   UNL     1      -1.069  11.970  21.048  0.00  0.00    +0.000 A 
ATOM     15  N   UNL     1      -1.230  12.996  20.252  0.00  0.00    +0.000 NA
ATOM     16  C   UNL     1      -1.956  13.973  20.900  0.00  0.00    +0.000 A 
ATOM     17  C   UNL     1      -2.339  13.668  22.189  0.00  0.00    +0.000 A 
ATOM     18  S   UNL     1      -1.802  12.086  22.587  0.00  0.00    +0.000 S 
ATOM     19  H   UNL     1      -0.375  10.124  21.582  0.00  0.00    +0.000 HD
ENDBRANCH   1  12
BRANCH  10  20
ATOM     20  O   UNL     1       1.960   9.642  17.452  0.00  0.00    +0.000 OA
ATOM     21  H   UNL     1       2.523  10.403  17.678  0.00  0.00    +0.000 HD
ENDBRANCH  10  20
BRANCH   5  22
ATOM     22  S   UNL     1       2.637   4.400  21.238  0.00  0.00    +0.000 S 
BRANCH  22  23
ATOM     23  C   UNL     1       1.366   3.285  20.628  0.00  0.00    +0.000 C 
ATOM     24  F   UNL     1       1.790   2.383  19.711  0.00  0.00    +0.000 F 
ATOM     25  F   UNL     1       0.776   2.603  21.641  0.00  0.00    +0.000 F 
ATOM     26  F   UNL     1       0.381   4.004  20.023  0.00  0.00    +0.000 F 
ENDBRANCH  22  23
ENDBRANCH   5  22
TORSDOF 4
ENDMDL
MODEL 9
REMARK VINA RESULT:      -7.2      1.167      1.470
REMARK  Name = 
REMARK  4 active torsions:
REMARK  status: ('A' for Active; 'I' for Inactive)
REMARK    1  A    between atoms: C_2  and  C_9
REMARK    2  A    between atoms: C_13  and  S_14
REMARK    3  A    between atoms: S_14  and  C_15
REMARK    4  A    between atoms: C_23  and  O_24
REMARK                            x       y       z     vdW  Elec       q    Type
REMARK                         _______ _______ _______ _____ _____    ______ ____
ROOT
ATOM      1  C   UNL     1       1.652   8.387  19.502  0.00  0.00    +0.000 A 
ATOM      2  C   UNL     1       1.527   7.343  20.401  0.00  0.00    +0.000 A 
ATOM      3  N   UNL     1       2.127   6.138  20.259  0.00  0.00    +0.000 NA
ATOM      4  C   UNL     1       2.893   5.904  19.174  0.00  0.00    +0.000 A 
ATOM      5  C   UNL     1       3.511   4.654  19.005  0.00  0.00    +0.000 A 
ATOM      6  C   UNL     1       4.276   4.366  17.866  0.00  0.00    +0.000 A 
ATOM      7  C   UNL     1       4.462   5.335  16.890  0.00  0.00    +0.000 A 
ATOM      8  C   UNL     1       3.881   6.590  17.048  0.00  0.00    +0.000 A 
ATOM      9  C   UNL     1       3.079   6.898  18.177  0.00  0.00    +0.000 A 
ATOM     10  C   UNL     1       2.441   8.151  18.374  0.00  0.00    +0.000 A 
ENDROOT
BRANCH   1  12
ATOM     11  O   UNL     1       0.911  10.518  18.946  0.00  0.00    +0.000 OA
ATOM     12  C   UNL     1       0.898   9.633  19.797  0.00  0.00    +0.000 C 
ATOM     13  N   UNL     1       0.262   9.677  21.015  0.00  0.00    +0.000 N 
ATOM     14  C   UNL     1      -0.445  10.770  21.429  0.00  0.00    +0.000 A 
ATOM     15  N   UNL     1      -0.749  11.860  20.772  0.00  0.00    +0.000 NA
ATOM     16  C   UNL     1      -1.432  12.723  21.602  0.00  0.00    +0.000 A 
ATOM     17  C   UNL     1      -1.639  12.269  22.888  0.00  0.00    +0.000 A 
ATOM     18  S   UNL     1      -0.987  10.688  23.048  0.00  0.00    +0.000 S 
ATOM     19  H   UNL     1       0.391   8.922  21.677  0.00  0.00    +0.000 HD
ENDBRANCH   1  12
BRANCH  10  20
ATOM     20  O   UNL     1       2.570   9.165  17.449  0.00  0.00    +0.000 OA
ATOM     21  H   UNL     1       3.505   9.432  17.404  0.00  0.00    +0.000 HD
ENDBRANCH  10  20
BRANCH   5  22
ATOM     22  S   UNL     1       3.288   3.307  20.177  0.00  0.00    +0.000 S 
BRANCH  22  23
ATOM     23  C   UNL     1       1.629   2.758  19.757  0.00  0.00    +0.000 C 
ATOM     24  F   UNL     1       0.721   2.872  20.755  0.00  0.00    +0.000 F 
ATOM     25  F   UNL     1       1.147   3.420  18.677  0.00  0.00    +0.000 F 
ATOM     26  F   UNL     1       1.656   1.440  19.420  0.00  0.00    +0.000 F 
ENDBRANCH  22  23
ENDBRANCH   5  22
TORSDOF 4
ENDMDL
