MODEL 1
REMARK VINA RESULT:      -7.1      0.000      0.000
REMARK  Name = 
REMARK  6 active torsions:
REMARK  status: ('A' for Active; 'I' for Inactive)
REMARK    1  A    between atoms: C_2  and  C_3
REMARK    2  A    between atoms: C_3  and  C_4
REMARK    3  A    between atoms: C_4  and  C_5
REMARK    4  A    between atoms: C_5  and  C_6
REMARK    5  A    between atoms: N_12  and  C_13
REMARK    6  A    between atoms: C_13  and  C_14
REMARK                            x       y       z     vdW  Elec       q    Type
REMARK                         _______ _______ _______ _____ _____    ______ ____
ROOT
ATOM      1  O   UNL     1       7.094   4.495  18.601  0.00  0.00    +0.000 OA
ATOM      2  C   UNL     1       6.182   5.149  18.105  0.00  0.00    +0.000 C 
ATOM      3  N   UNL     1       6.243   5.707  16.854  0.00  0.00    +0.000 N 
ATOM      4  H   UNL     1       5.495   6.294  16.510  0.00  0.00    +0.000 HD
ENDROOT
BRANCH   2   5
ATOM      5  C   UNL     1       4.889   5.429  18.846  0.00  0.00    +0.000 C 
BRANCH   5   6
ATOM      6  C   UNL     1       3.963   6.321  18.023  0.00  0.00    +0.000 C 
BRANCH   6   7
ATOM      7  C   UNL     1       2.576   6.453  18.661  0.00  0.00    +0.000 C 
BRANCH   7   8
ATOM      8  C   UNL     1       2.002   5.111  19.033  0.00  0.00    +0.000 A 
ATOM      9  C   UNL     1       1.810   4.129  18.051  0.00  0.00    +0.000 A 
ATOM     10  C   UNL     1       1.263   2.891  18.390  0.00  0.00    +0.000 A 
ATOM     11  C   UNL     1       0.900   2.625  19.709  0.00  0.00    +0.000 A 
ATOM     12  C   UNL     1       1.081   3.598  20.690  0.00  0.00    +0.000 A 
ATOM     13  C   UNL     1       1.627   4.837  20.355  0.00  0.00    +0.000 A 
ENDBRANCH   7   8
ENDBRANCH   6   7
ENDBRANCH   5   6
ENDBRANCH   2   5
BRANCH   3  14
ATOM     14  C   UNL     1       7.421   5.605  16.017  0.00  0.00    +0.000 C 
BRANCH  14  15
ATOM     15  C   UNL     1       7.095   4.996  14.673  0.00  0.00    +0.000 A 
ATOM     16  C   UNL     1       6.073   4.055  14.553  0.00  0.00    +0.000 A 
ATOM     17  C   UNL     1       5.793   3.522  13.299  0.00  0.00    +0.000 A 
ATOM     18  C   UNL     1       6.542   3.930  12.202  0.00  0.00    +0.000 A 
ATOM     19  C   UNL     1       7.557   4.849  12.410  0.00  0.00    +0.000 A 
ATOM     20  N   UNL     1       7.856   5.382  13.615  0.00  0.00    +0.000 NA
ENDBRANCH  14  15
ENDBRANCH   3  14
TORSDOF 6
ENDMDL
MODEL 2
REMARK VINA RESULT:      -7.1      4.664      7.391
REMARK  Name = 
REMARK  6 active torsions:
REMARK  status: ('A' for Active; 'I' for Inactive)
REMARK    1  A    between atoms: C_2  and  C_3
REMARK    2  A    between atoms: C_3  and  C_4
REMARK    3  A    between atoms: C_4  and  C_5
REMARK    4  A    between atoms: C_5  and  C_6
REMARK    5  A    between atoms: N_12  and  C_13
REMARK    6  A    between atoms: C_13  and  C_14
REMARK                            x       y       z     vdW  Elec       q    Type
REMARK                         _______ _______ _______ _____ _____    ______ ____
ROOT
ATOM      1  O   UNL     1       5.804   7.190  17.788  0.00  0.00    +0.000 OA
ATOM      2  C   UNL     1       6.954   6.896  17.480  0.00  0.00    +0.000 C 
ATOM      3  N   UNL     1       7.267   5.914  16.576  0.00  0.00    +0.000 N 
ATOM      4  H   UNL     1       8.230   5.658  16.400  0.00  0.00    +0.000 HD
ENDROOT
BRANCH   2   5
ATOM      5  C   UNL     1       8.159   7.582  18.093  0.00  0.00    +0.000 C 
BRANCH   5   6
ATOM      6  C   UNL     1       8.118   9.089  17.853  0.00  0.00    +0.000 C 
BRANCH   6   7
ATOM      7  C   UNL     1       8.929   9.859  18.899  0.00  0.00    +0.000 C 
BRANCH   7   8
ATOM      8  C   UNL     1       9.554  11.101  18.319  0.00  0.00    +0.000 A 
ATOM      9  C   UNL     1      10.941  11.169  18.126  0.00  0.00    +0.000 A 
ATOM     10  C   UNL     1      11.524  12.324  17.604  0.00  0.00    +0.000 A 
ATOM     11  C   UNL     1      10.729  13.421  17.275  0.00  0.00    +0.000 A 
ATOM     12  C   UNL     1       9.350  13.365  17.471  0.00  0.00    +0.000 A 
ATOM     13  C   UNL     1       8.764  12.211  17.993  0.00  0.00    +0.000 A 
ENDBRANCH   7   8
ENDBRANCH   6   7
ENDBRANCH   5   6
ENDBRANCH   2   5
BRANCH   3  14
ATOM     14  C   UNL     1       6.255   5.102  15.932  0.00  0.00    +0.000 C 
BRANCH  14  15
ATOM     15  C   UNL     1       6.621   4.796  14.497  0.00  0.00    +0.000 A 
ATOM     16  C   UNL     1       5.937   3.809  13.789  0.00  0.00    +0.000 A 
ATOM     17  C   UNL     1       6.292   3.561  12.467  0.00  0.00    +0.000 A 
ATOM     18  C   UNL     1       7.324   4.293  11.889  0.00  0.00    +0.000 A 
ATOM     19  C   UNL     1       7.969   5.237  12.668  0.00  0.00    +0.000 A 
ATOM     20  N   UNL     1       7.651   5.499  13.955  0.00  0.00    +0.000 NA
ENDBRANCH  14  15
ENDBRANCH   3  14
TORSDOF 6
ENDMDL
MODEL 3
REMARK VINA RESULT:      -7.0      4.589      8.018
REMARK  Name = 
REMARK  6 active torsions:
REMARK  status: ('A' for Active; 'I' for Inactive)
REMARK    1  A    between atoms: C_2  and  C_3
REMARK    2  A    between atoms: C_3  and  C_4
REMARK    3  A    between atoms: C_4  and  C_5
REMARK    4  A    between atoms: C_5  and  C_6
REMARK    5  A    between atoms: N_12  and  C_13
REMARK    6  A    between atoms: C_13  and  C_14
REMARK                            x       y       z     vdW  Elec       q    Type
REMARK                         _______ _______ _______ _____ _____    ______ ____
ROOT
ATOM      1  O   UNL     1       8.175   5.443  18.751  0.00  0.00    +0.000 OA
ATOM      2  C   UNL     1       7.285   6.063  18.179  0.00  0.00    +0.000 C 
ATOM      3  N   UNL     1       6.000   5.600  18.053  0.00  0.00    +0.000 N 
ATOM      4  H   UNL     1       5.313   6.114  17.517  0.00  0.00    +0.000 HD
ENDROOT
BRANCH   2   5
ATOM      5  C   UNL     1       7.525   7.410  17.527  0.00  0.00    +0.000 C 
BRANCH   5   6
ATOM      6  C   UNL     1       8.408   8.298  18.401  0.00  0.00    +0.000 C 
BRANCH   6   7
ATOM      7  C   UNL     1       8.360   9.765  17.962  0.00  0.00    +0.000 C 
BRANCH   7   8
ATOM      8  C   UNL     1       9.418  10.588  18.649  0.00  0.00    +0.000 A 
ATOM      9  C   UNL     1       9.323  10.857  20.021  0.00  0.00    +0.000 A 
ATOM     10  C   UNL     1      10.293  11.633  20.657  0.00  0.00    +0.000 A 
ATOM     11  C   UNL     1      11.362  12.151  19.927  0.00  0.00    +0.000 A 
ATOM     12  C   UNL     1      11.461  11.894  18.561  0.00  0.00    +0.000 A 
ATOM     13  C   UNL     1      10.493  11.119  17.923  0.00  0.00    +0.000 A 
ENDBRANCH   7   8
ENDBRANCH   6   7
ENDBRANCH   5   6
ENDBRANCH   2   5
BRANCH   3  14
ATOM     14  C   UNL     1       5.590   4.305  18.555  0.00  0.00    +0.000 C 
BRANCH  14  15
ATOM     15  C   UNL     1       4.102   4.096  18.398  0.00  0.00    +0.000 A 
ATOM     16  C   UNL     1       3.277   5.151  18.012  0.00  0.00    +0.000 A 
ATOM     17  C   UNL     1       1.912   4.920  17.868  0.00  0.00    +0.000 A 
ATOM     18  C   UNL     1       1.404   3.651  18.122  0.00  0.00    +0.000 A 
ATOM     19  C   UNL     1       2.287   2.664  18.525  0.00  0.00    +0.000 A 
ATOM     20  N   UNL     1       3.616   2.857  18.678  0.00  0.00    +0.000 NA
ENDBRANCH  14  15
ENDBRANCH   3  14
TORSDOF 6
ENDMDL
MODEL 4
REMARK VINA RESULT:      -7.0      2.994      4.304
REMARK  Name = 
REMARK  6 active torsions:
REMARK  status: ('A' for Active; 'I' for Inactive)
REMARK    1  A    between atoms: C_2  and  C_3
REMARK    2  A    between atoms: C_3  and  C_4
REMARK    3  A    between atoms: C_4  and  C_5
REMARK    4  A    between atoms: C_5  and  C_6
REMARK    5  A    between atoms: N_12  and  C_13
REMARK    6  A    between atoms: C_13  and  C_14
REMARK                            x       y       z     vdW  Elec       q    Type
REMARK                         _______ _______ _______ _____ _____    ______ ____
ROOT
ATOM      1  O   UNL     1       4.789   1.898  20.367  0.00  0.00    +0.000 OA
ATOM      2  C   UNL     1       4.503   2.385  19.278  0.00  0.00    +0.000 C 
ATOM      3  N   UNL     1       5.097   3.513  18.774  0.00  0.00    +0.000 N 
ATOM      4  H   UNL     1       4.785   3.919  17.901  0.00  0.00    +0.000 HD
ENDROOT
BRANCH   2   5
ATOM      5  C   UNL     1       3.433   1.794  18.381  0.00  0.00    +0.000 C 
BRANCH   5   6
ATOM      6  C   UNL     1       2.069   1.807  19.067  0.00  0.00    +0.000 C 
BRANCH   6   7
ATOM      7  C   UNL     1       1.144   2.881  18.485  0.00  0.00    +0.000 C 
BRANCH   7   8
ATOM      8  C   UNL     1       1.579   4.267  18.884  0.00  0.00    +0.000 A 
ATOM      9  C   UNL     1       1.531   4.663  20.227  0.00  0.00    +0.000 A 
ATOM     10  C   UNL     1       1.918   5.952  20.597  0.00  0.00    +0.000 A 
ATOM     11  C   UNL     1       2.350   6.856  19.628  0.00  0.00    +0.000 A 
ATOM     12  C   UNL     1       2.394   6.473  18.289  0.00  0.00    +0.000 A 
ATOM     13  C   UNL     1       2.008   5.185  17.916  0.00  0.00    +0.000 A 
ENDBRANCH   7   8
ENDBRANCH   6   7
ENDBRANCH   5   6
ENDBRANCH   2   5
BRANCH   3  14
ATOM     14  C   UNL     1       6.097   4.258  19.511  0.00  0.00    +0.000 C 
BRANCH  14  15
ATOM     15  C   UNL     1       6.548   5.483  18.749  0.00  0.00    +0.000 A 
ATOM     16  C   UNL     1       7.756   6.105  19.064  0.00  0.00    +0.000 A 
ATOM     17  C   UNL     1       8.145   7.225  18.336  0.00  0.00    +0.000 A 
ATOM     18  C   UNL     1       7.320   7.701  17.324  0.00  0.00    +0.000 A 
ATOM     19  C   UNL     1       6.126   7.041  17.091  0.00  0.00    +0.000 A 
ATOM     20  N   UNL     1       5.717   5.954  17.783  0.00  0.00    +0.000 NA
ENDBRANCH  14  15
ENDBRANCH   3  14
TORSDOF 6
ENDMDL
MODEL 5
REMARK VINA RESULT:      -7.0      2.608      4.532
REMARK  Name = 
REMARK  6 active torsions:
REMARK  status: ('A' for Active; 'I' for Inactive)
REMARK    1  A    between atoms: C_2  and  C_3
REMARK    2  A    between atoms: C_3  and  C_4
REMARK    3  A    between atoms: C_4  and  C_5
REMARK    4  A    between atoms: C_5  and  C_6
REMARK    5  A    between atoms: N_12  and  C_13
REMARK    6  A    between atoms: C_13  and  C_14
REMARK                            x       y       z     vdW  Elec       q    Type
REMARK                         _______ _______ _______ _____ _____    ______ ____
ROOT
ATOM      1  O   UNL     1       4.059   2.855  18.917  0.00  0.00    +0.000 OA
ATOM      2  C   UNL     1       3.407   3.589  18.182  0.00  0.00    +0.000 C 
ATOM      3  N   UNL     1       3.912   4.162  17.044  0.00  0.00    +0.000 N 
ATOM      4  H   UNL     1       3.360   4.814  16.501  0.00  0.00    +0.000 HD
ENDROOT
BRANCH   2   5
ATOM      5  C   UNL     1       1.966   3.958  18.476  0.00  0.00    +0.000 C 
BRANCH   5   6
ATOM      6  C   UNL     1       1.841   4.668  19.822  0.00  0.00    +0.000 C 
BRANCH   6   7
ATOM      7  C   UNL     1       2.886   5.775  19.986  0.00  0.00    +0.000 C 
BRANCH   7   8
ATOM      8  C   UNL     1       2.376   7.104  19.491  0.00  0.00    +0.000 A 
ATOM      9  C   UNL     1       1.634   7.935  20.340  0.00  0.00    +0.000 A 
ATOM     10  C   UNL     1       1.146   9.159  19.879  0.00  0.00    +0.000 A 
ATOM     11  C   UNL     1       1.392   9.558  18.566  0.00  0.00    +0.000 A 
ATOM     12  C   UNL     1       2.123   8.734  17.712  0.00  0.00    +0.000 A 
ATOM     13  C   UNL     1       2.611   7.510  18.171  0.00  0.00    +0.000 A 
ENDBRANCH   7   8
ENDBRANCH   6   7
ENDBRANCH   5   6
ENDBRANCH   2   5
BRANCH   3  14
ATOM     14  C   UNL     1       5.288   3.981  16.629  0.00  0.00    +0.000 C 
BRANCH  14  15
ATOM     15  C   UNL     1       6.198   5.005  17.268  0.00  0.00    +0.000 A 
ATOM     16  C   UNL     1       6.206   6.323  16.815  0.00  0.00    +0.000 A 
ATOM     17  C   UNL     1       7.050   7.242  17.433  0.00  0.00    +0.000 A 
ATOM     18  C   UNL     1       7.868   6.823  18.475  0.00  0.00    +0.000 A 
ATOM     19  C   UNL     1       7.819   5.490  18.847  0.00  0.00    +0.000 A 
ATOM     20  N   UNL     1       7.015   4.574  18.265  0.00  0.00    +0.000 NA
ENDBRANCH  14  15
ENDBRANCH   3  14
TORSDOF 6
ENDMDL
MODEL 6
REMARK VINA RESULT:      -6.9      1.574      2.186
REMARK  Name = 
REMARK  6 active torsions:
REMARK  status: ('A' for Active; 'I' for Inactive)
REMARK    1  A    between atoms: C_2  and  C_3
REMARK    2  A    between atoms: C_3  and  C_4
REMARK    3  A    between atoms: C_4  and  C_5
REMARK    4  A    between atoms: C_5  and  C_6
REMARK    5  A    between atoms: N_12  and  C_13
REMARK    6  A    between atoms: C_13  and  C_14
REMARK                            x       y       z     vdW  Elec       q    Type
REMARK                         _______ _______ _______ _____ _____    ______ ____
ROOT
ATOM      1  O   UNL     1       4.758   6.644  16.489  0.00  0.00    +0.000 OA
ATOM      2  C   UNL     1       4.785   5.469  16.841  0.00  0.00    +0.000 C 
ATOM      3  N   UNL     1       5.874   4.654  16.674  0.00  0.00    +0.000 N 
ATOM      4  H   UNL     1       5.832   3.673  16.918  0.00  0.00    +0.000 HD
ENDROOT
BRANCH   2   5
ATOM      5  C   UNL     1       3.593   4.787  17.482  0.00  0.00    +0.000 C 
BRANCH   5   6
ATOM      6  C   UNL     1       3.493   3.326  17.049  0.00  0.00    +0.000 C 
BRANCH   6   7
ATOM      7  C   UNL     1       2.220   2.657  17.576  0.00  0.00    +0.000 C 
BRANCH   7   8
ATOM      8  C   UNL     1       2.151   2.692  19.080  0.00  0.00    +0.000 A 
ATOM      9  C   UNL     1       0.961   3.054  19.725  0.00  0.00    +0.000 A 
ATOM     10  C   UNL     1       0.899   3.102  21.118  0.00  0.00    +0.000 A 
ATOM     11  C   UNL     1       2.027   2.794  21.877  0.00  0.00    +0.000 A 
ATOM     12  C   UNL     1       3.217   2.439  21.245  0.00  0.00    +0.000 A 
ATOM     13  C   UNL     1       3.281   2.390  19.852  0.00  0.00    +0.000 A 
ENDBRANCH   7   8
ENDBRANCH   6   7
ENDBRANCH   5   6
ENDBRANCH   2   5
BRANCH   3  14
ATOM     14  C   UNL     1       7.087   5.105  16.022  0.00  0.00    +0.000 C 
BRANCH  14  15
ATOM     15  C   UNL     1       7.071   4.791  14.544  0.00  0.00    +0.000 A 
ATOM     16  C   UNL     1       6.217   3.812  14.039  0.00  0.00    +0.000 A 
ATOM     17  C   UNL     1       6.222   3.556  12.671  0.00  0.00    +0.000 A 
ATOM     18  C   UNL     1       7.081   4.272  11.846  0.00  0.00    +0.000 A 
ATOM     19  C   UNL     1       7.916   5.210  12.430  0.00  0.00    +0.000 A 
ATOM     20  N   UNL     1       7.938   5.478  13.754  0.00  0.00    +0.000 NA
ENDBRANCH  14  15
ENDBRANCH   3  14
TORSDOF 6
ENDMDL
MODEL 7
REMARK VINA RESULT:      -6.9      2.101      6.786
REMARK  Name = 
REMARK  6 active torsions:
REMARK  status: ('A' for Active; 'I' for Inactive)
REMARK    1  A    between atoms: C_2  and  C_3
REMARK    2  A    between atoms: C_3  and  C_4
REMARK    3  A    between atoms: C_4  and  C_5
REMARK    4  A    between atoms: C_5  and  C_6
REMARK    5  A    between atoms: N_12  and  C_13
REMARK    6  A    between atoms: C_13  and  C_14
REMARK                            x       y       z     vdW  Elec       q    Type
REMARK                         _______ _______ _______ _____ _____    ______ ____
ROOT
ATOM      1  O   UNL     1       6.920   5.225  19.787  0.00  0.00    +0.000 OA
ATOM      2  C   UNL     1       6.559   4.593  18.800  0.00  0.00    +0.000 C 
ATOM      3  N   UNL     1       5.519   3.699  18.812  0.00  0.00    +0.000 N 
ATOM      4  H   UNL     1       5.296   3.151  17.992  0.00  0.00    +0.000 HD
ENDROOT
BRANCH   2   5
ATOM      5  C   UNL     1       7.250   4.723  17.457  0.00  0.00    +0.000 C 
BRANCH   5   6
ATOM      6  C   UNL     1       6.538   5.738  16.565  0.00  0.00    +0.000 C 
BRANCH   6   7
ATOM      7  C   UNL     1       5.474   5.079  15.682  0.00  0.00    +0.000 C 
BRANCH   7   8
ATOM      8  C   UNL     1       6.030   4.681  14.339  0.00  0.00    +0.000 A 
ATOM      9  C   UNL     1       5.358   3.740  13.548  0.00  0.00    +0.000 A 
ATOM     10  C   UNL     1       5.880   3.357  12.311  0.00  0.00    +0.000 A 
ATOM     11  C   UNL     1       7.078   3.908  11.858  0.00  0.00    +0.000 A 
ATOM     12  C   UNL     1       7.756   4.840  12.642  0.00  0.00    +0.000 A 
ATOM     13  C   UNL     1       7.237   5.223  13.878  0.00  0.00    +0.000 A 
ENDBRANCH   7   8
ENDBRANCH   6   7
ENDBRANCH   5   6
ENDBRANCH   2   5
BRANCH   3  14
ATOM     14  C   UNL     1       4.777   3.390  20.016  0.00  0.00    +0.000 C 
BRANCH  14  15
ATOM     15  C   UNL     1       3.307   3.193  19.726  0.00  0.00    +0.000 A 
ATOM     16  C   UNL     1       2.340   3.758  20.557  0.00  0.00    +0.000 A 
ATOM     17  C   UNL     1       0.996   3.564  20.254  0.00  0.00    +0.000 A 
ATOM     18  C   UNL     1       0.650   2.807  19.141  0.00  0.00    +0.000 A 
ATOM     19  C   UNL     1       1.669   2.259  18.382  0.00  0.00    +0.000 A 
ATOM     20  N   UNL     1       2.983   2.425  18.652  0.00  0.00    +0.000 NA
ENDBRANCH  14  15
ENDBRANCH   3  14
TORSDOF 6
ENDMDL
MODEL 8
REMARK VINA RESULT:      -6.9      0.913      1.424
REMARK  Name = 
REMARK  6 active torsions:
REMARK  status: ('A' for Active; 'I' for Inactive)
REMARK    1  A    between atoms: C_2  and  C_3
REMARK    2  A    between atoms: C_3  and  C_4
REMARK    3  A    between atoms: C_4  and  C_5
REMARK    4  A    between atoms: C_5  and  C_6
REMARK    5  A    between atoms: N_12  and  C_13
REMARK    6  A    between atoms: C_13  and  C_14
REMARK                            x       y       z     vdW  Elec       q    Type
REMARK                         _______ _______ _______ _____ _____    ______ ____
ROOT
ATOM      1  O   UNL     1       6.239   4.504  19.367  0.00  0.00    +0.000 OA
ATOM      2  C   UNL     1       5.491   5.321  18.841  0.00  0.00    +0.000 C 
ATOM      3  N   UNL     1       5.789   5.980  17.677  0.00  0.00    +0.000 N 
ATOM      4  H   UNL     1       5.173   6.695  17.312  0.00  0.00    +0.000 HD
ENDROOT
BRANCH   2   5
ATOM      5  C   UNL     1       4.156   5.706  19.447  0.00  0.00    +0.000 C 
BRANCH   5   6
ATOM      6  C   UNL     1       3.309   6.503  18.458  0.00  0.00    +0.000 C 
BRANCH   6   7
ATOM      7  C   UNL     1       2.095   5.706  17.969  0.00  0.00    +0.000 C 
BRANCH   7   8
ATOM      8  C   UNL     1       1.864   4.473  18.803  0.00  0.00    +0.000 A 
ATOM      9  C   UNL     1       1.375   4.586  20.111  0.00  0.00    +0.000 A 
ATOM     10  C   UNL     1       1.175   3.446  20.890  0.00  0.00    +0.000 A 
ATOM     11  C   UNL     1       1.467   2.186  20.372  0.00  0.00    +0.000 A 
ATOM     12  C   UNL     1       1.961   2.064  19.074  0.00  0.00    +0.000 A 
ATOM     13  C   UNL     1       2.162   3.202  18.293  0.00  0.00    +0.000 A 
ENDBRANCH   7   8
ENDBRANCH   6   7
ENDBRANCH   5   6
ENDBRANCH   2   5
BRANCH   3  14
ATOM     14  C   UNL     1       7.046   5.796  16.981  0.00  0.00    +0.000 C 
BRANCH  14  15
ATOM     15  C   UNL     1       6.839   5.189  15.613  0.00  0.00    +0.000 A 
ATOM     16  C   UNL     1       5.760   4.340  15.373  0.00  0.00    +0.000 A 
ATOM     17  C   UNL     1       5.595   3.806  14.098  0.00  0.00    +0.000 A 
ATOM     18  C   UNL     1       6.510   4.123  13.102  0.00  0.00    +0.000 A 
ATOM     19  C   UNL     1       7.568   4.954  13.428  0.00  0.00    +0.000 A 
ATOM     20  N   UNL     1       7.759   5.484  14.657  0.00  0.00    +0.000 NA
ENDBRANCH  14  15
ENDBRANCH   3  14
TORSDOF 6
ENDMDL
MODEL 9
REMARK VINA RESULT:      -6.9      4.915      7.634
REMARK  Name = 
REMARK  6 active torsions:
REMARK  status: ('A' for Active; 'I' for Inactive)
REMARK    1  A    between atoms: C_2  and  C_3
REMARK    2  A    between atoms: C_3  and  C_4
REMARK    3  A    between atoms: C_4  and  C_5
REMARK    4  A    between atoms: C_5  and  C_6
REMARK    5  A    between atoms: N_12  and  C_13
REMARK    6  A    between atoms: C_13  and  C_14
REMARK                            x       y       z     vdW  Elec       q    Type
REMARK                         _______ _______ _______ _____ _____    ______ ____
ROOT
ATOM      1  O   UNL     1       6.213   7.860  17.082  0.00  0.00    +0.000 OA
ATOM      2  C   UNL     1       7.227   7.218  17.336  0.00  0.00    +0.000 C 
ATOM      3  N   UNL     1       7.382   5.893  17.023  0.00  0.00    +0.000 N 
ATOM      4  H   UNL     1       8.209   5.384  17.310  0.00  0.00    +0.000 HD
ENDROOT
BRANCH   2   5
ATOM      5  C   UNL     1       8.415   7.830  18.051  0.00  0.00    +0.000 C 
BRANCH   5   6
ATOM      6  C   UNL     1       8.338   9.355  18.047  0.00  0.00    +0.000 C 
BRANCH   6   7
ATOM      7  C   UNL     1       8.885   9.961  19.342  0.00  0.00    +0.000 C 
BRANCH   7   8
ATOM      8  C   UNL     1       9.985  10.955  19.074  0.00  0.00    +0.000 A 
ATOM      9  C   UNL     1      10.733  11.484  20.134  0.00  0.00    +0.000 A 
ATOM     10  C   UNL     1      11.742  12.417  19.889  0.00  0.00    +0.000 A 
ATOM     11  C   UNL     1      12.008  12.831  18.585  0.00  0.00    +0.000 A 
ATOM     12  C   UNL     1      11.265  12.315  17.525  0.00  0.00    +0.000 A 
ATOM     13  C   UNL     1      10.256  11.383  17.767  0.00  0.00    +0.000 A 
ENDBRANCH   7   8
ENDBRANCH   6   7
ENDBRANCH   5   6
ENDBRANCH   2   5
BRANCH   3  14
ATOM     14  C   UNL     1       6.333   5.116  16.395  0.00  0.00    +0.000 C 
BRANCH  14  15
ATOM     15  C   UNL     1       6.646   4.832  14.945  0.00  0.00    +0.000 A 
ATOM     16  C   UNL     1       5.900   3.895  14.231  0.00  0.00    +0.000 A 
ATOM     17  C   UNL     1       6.209   3.666  12.894  0.00  0.00    +0.000 A 
ATOM     18  C   UNL     1       7.257   4.366  12.306  0.00  0.00    +0.000 A 
ATOM     19  C   UNL     1       7.964   5.260  13.091  0.00  0.00    +0.000 A 
ATOM     20  N   UNL     1       7.692   5.502  14.392  0.00  0.00    +0.000 NA
ENDBRANCH  14  15
ENDBRANCH   3  14
TORSDOF 6
ENDMDL
