MODEL 1
REMARK VINA RESULT:      -7.0      0.000      0.000
REMARK  Name = 
REMARK  3 active torsions:
REMARK  status: ('A' for Active; 'I' for Inactive)
REMARK    1  A    between atoms: C_10  and  N_11
REMARK    2  A    between atoms: N_11  and  C_12
REMARK    3  A    between atoms: C_12  and  C_13
REMARK                            x       y       z     vdW  Elec       q    Type
REMARK                         _______ _______ _______ _____ _____    ______ ____
ROOT
ATOM      1  C   UNL     1       0.345  10.215  20.115  0.00  0.00    +0.000 A 
ATOM      2  C   UNL     1       0.451   9.307  21.185  0.00  0.00    +0.000 A 
ATOM      3  C   UNL     1       1.193   8.123  21.036  0.00  0.00    +0.000 A 
ATOM      4  C   UNL     1       1.836   7.878  19.819  0.00  0.00    +0.000 A 
ATOM      5  C   UNL     1       1.728   8.758  18.778  0.00  0.00    +0.000 A 
ATOM      6  C   UNL     1       0.978   9.933  18.894  0.00  0.00    +0.000 A 
ATOM      7  C   UNL     1       2.463   8.272  17.601  0.00  0.00    +0.000 C 
ATOM      8  C   UNL     1       3.267   7.047  18.093  0.00  0.00    +0.000 C 
ATOM      9  C   UNL     1       2.711   6.708  19.521  0.00  0.00    +0.000 C 
ATOM     10  C   UNL     1       2.499   5.756  18.363  0.00  0.00    +0.000 C 
ENDROOT
BRANCH  10  11
ATOM     11  N   UNL     1       3.394   4.590  18.465  0.00  0.00    +0.000 NA
ATOM     12  H   UNL     1       2.965   3.911  19.135  0.00  0.00    +0.000 HD
BRANCH  11  13
ATOM     13  C   UNL     1       3.609   3.879  17.192  0.00  0.00    +0.000 C 
BRANCH  13  14
ATOM     14  C   UNL     1       5.045   4.037  16.657  0.00  0.00    +0.000 C 
ATOM     15  C   UNL     1       5.119   4.993  15.454  0.00  0.00    +0.000 C 
ATOM     16  C   UNL     1       6.560   5.006  14.923  0.00  0.00    +0.000 C 
ATOM     17  N   UNL     1       7.505   5.446  15.962  0.00  0.00    +0.000 NA
ATOM     18  C   UNL     1       7.432   4.597  17.164  0.00  0.00    +0.000 C 
ATOM     19  C   UNL     1       6.005   4.561  17.739  0.00  0.00    +0.000 C 
ATOM     20  H   UNL     1       7.299   6.438  16.223  0.00  0.00    +0.000 HD
ENDBRANCH  13  14
ENDBRANCH  11  13
ENDBRANCH  10  11
TORSDOF 3
ENDMDL
MODEL 2
REMARK VINA RESULT:      -7.0      3.326      4.601
REMARK  Name = 
REMARK  3 active torsions:
REMARK  status: ('A' for Active; 'I' for Inactive)
REMARK    1  A    between atoms: C_10  and  N_11
REMARK    2  A    between atoms: N_11  and  C_12
REMARK    3  A    between atoms: C_12  and  C_13
REMARK                            x       y       z     vdW  Elec       q    Type
REMARK                         _______ _______ _______ _____ _____    ______ ____
ROOT
ATOM      1  C   UNL     1       1.600   2.961  21.497  0.00  0.00    +0.000 A 
ATOM      2  C   UNL     1       2.220   4.223  21.515  0.00  0.00    +0.000 A 
ATOM      3  C   UNL     1       2.849   4.718  20.359  0.00  0.00    +0.000 A 
ATOM      4  C   UNL     1       2.827   3.943  19.196  0.00  0.00    +0.000 A 
ATOM      5  C   UNL     1       2.229   2.714  19.181  0.00  0.00    +0.000 A 
ATOM      6  C   UNL     1       1.615   2.191  20.324  0.00  0.00    +0.000 A 
ATOM      7  C   UNL     1       2.359   2.082  17.860  0.00  0.00    +0.000 C 
ATOM      8  C   UNL     1       2.934   3.177  16.933  0.00  0.00    +0.000 C 
ATOM      9  C   UNL     1       3.388   4.349  17.875  0.00  0.00    +0.000 C 
ATOM     10  C   UNL     1       4.406   3.543  17.096  0.00  0.00    +0.000 C 
ENDROOT
BRANCH  10  11
ATOM     11  N   UNL     1       4.917   4.308  15.945  0.00  0.00    +0.000 NA
ATOM     12  H   UNL     1       4.404   5.219  15.909  0.00  0.00    +0.000 HD
BRANCH  11  13
ATOM     13  C   UNL     1       6.357   4.615  16.014  0.00  0.00    +0.000 C 
BRANCH  13  14
ATOM     14  C   UNL     1       6.709   5.561  17.178  0.00  0.00    +0.000 C 
ATOM     15  C   UNL     1       7.612   4.886  18.226  0.00  0.00    +0.000 C 
ATOM     16  C   UNL     1       7.823   5.860  19.394  0.00  0.00    +0.000 C 
ATOM     17  N   UNL     1       8.448   7.112  18.936  0.00  0.00    +0.000 NA
ATOM     18  C   UNL     1       7.651   7.769  17.886  0.00  0.00    +0.000 C 
ATOM     19  C   UNL     1       7.421   6.833  16.687  0.00  0.00    +0.000 C 
ATOM     20  H   UNL     1       9.407   6.909  18.570  0.00  0.00    +0.000 HD
ENDBRANCH  13  14
ENDBRANCH  11  13
ENDBRANCH  10  11
TORSDOF 3
ENDMDL
MODEL 3
REMARK VINA RESULT:      -6.9      3.406      4.258
REMARK  Name = 
REMARK  3 active torsions:
REMARK  status: ('A' for Active; 'I' for Inactive)
REMARK    1  A    between atoms: C_10  and  N_11
REMARK    2  A    between atoms: N_11  and  C_12
REMARK    3  A    between atoms: C_12  and  C_13
REMARK                            x       y       z     vdW  Elec       q    Type
REMARK                         _______ _______ _______ _____ _____    ______ ____
ROOT
ATOM      1  C   UNL     1       0.990   3.151  21.220  0.00  0.00    +0.000 A 
ATOM      2  C   UNL     1       2.247   2.630  21.579  0.00  0.00    +0.000 A 
ATOM      3  C   UNL     1       3.345   2.771  20.713  0.00  0.00    +0.000 A 
ATOM      4  C   UNL     1       3.167   3.454  19.506  0.00  0.00    +0.000 A 
ATOM      5  C   UNL     1       1.945   3.954  19.155  0.00  0.00    +0.000 A 
ATOM      6  C   UNL     1       0.832   3.808  19.989  0.00  0.00    +0.000 A 
ATOM      7  C   UNL     1       2.001   4.601  17.835  0.00  0.00    +0.000 C 
ATOM      8  C   UNL     1       3.500   4.655  17.465  0.00  0.00    +0.000 C 
ATOM      9  C   UNL     1       4.239   3.745  18.510  0.00  0.00    +0.000 C 
ATOM     10  C   UNL     1       4.176   3.352  17.050  0.00  0.00    +0.000 C 
ENDROOT
BRANCH  10  11
ATOM     11  N   UNL     1       5.469   3.588  16.383  0.00  0.00    +0.000 NA
ATOM     12  H   UNL     1       5.484   3.027  15.499  0.00  0.00    +0.000 HD
BRANCH  11  13
ATOM     13  C   UNL     1       5.713   4.994  16.016  0.00  0.00    +0.000 C 
BRANCH  13  14
ATOM     14  C   UNL     1       6.875   5.624  16.809  0.00  0.00    +0.000 C 
ATOM     15  C   UNL     1       6.619   7.103  17.146  0.00  0.00    +0.000 C 
ATOM     16  C   UNL     1       7.865   7.673  17.838  0.00  0.00    +0.000 C 
ATOM     17  N   UNL     1       8.173   6.932  19.072  0.00  0.00    +0.000 NA
ATOM     18  C   UNL     1       8.370   5.495  18.813  0.00  0.00    +0.000 C 
ATOM     19  C   UNL     1       7.140   4.876  18.127  0.00  0.00    +0.000 C 
ATOM     20  H   UNL     1       7.395   7.059  19.758  0.00  0.00    +0.000 HD
ENDBRANCH  13  14
ENDBRANCH  11  13
ENDBRANCH  10  11
TORSDOF 3
ENDMDL
MODEL 4
REMARK VINA RESULT:      -6.9      3.132      7.306
REMARK  Name = 
REMARK  3 active torsions:
REMARK  status: ('A' for Active; 'I' for Inactive)
REMARK    1  A    between atoms: C_10  and  N_11
REMARK    2  A    between atoms: N_11  and  C_12
REMARK    3  A    between atoms: C_12  and  C_13
REMARK                            x       y       z     vdW  Elec       q    Type
REMARK                         _______ _______ _______ _____ _____    ______ ____
ROOT
ATOM      1  C   UNL     1       7.416   4.338  11.930  0.00  0.00    +0.000 A 
ATOM      2  C   UNL     1       6.289   3.498  11.969  0.00  0.00    +0.000 A 
ATOM      3  C   UNL     1       5.505   3.421  13.133  0.00  0.00    +0.000 A 
ATOM      4  C   UNL     1       5.854   4.208  14.234  0.00  0.00    +0.000 A 
ATOM      5  C   UNL     1       6.953   5.019  14.198  0.00  0.00    +0.000 A 
ATOM      6  C   UNL     1       7.762   5.097  13.059  0.00  0.00    +0.000 A 
ATOM      7  C   UNL     1       7.131   5.721  15.477  0.00  0.00    +0.000 C 
ATOM      8  C   UNL     1       5.851   5.427  16.291  0.00  0.00    +0.000 C 
ATOM      9  C   UNL     1       5.094   4.292  15.514  0.00  0.00    +0.000 C 
ATOM     10  C   UNL     1       5.691   4.028  16.881  0.00  0.00    +0.000 C 
ENDROOT
BRANCH  10  11
ATOM     11  N   UNL     1       4.643   3.981  17.916  0.00  0.00    +0.000 NA
ATOM     12  H   UNL     1       5.076   4.259  18.827  0.00  0.00    +0.000 HD
BRANCH  11  13
ATOM     13  C   UNL     1       3.509   4.889  17.670  0.00  0.00    +0.000 C 
BRANCH  13  14
ATOM     14  C   UNL     1       2.221   4.442  18.389  0.00  0.00    +0.000 C 
ATOM     15  C   UNL     1       1.953   2.935  18.226  0.00  0.00    +0.000 C 
ATOM     16  C   UNL     1       0.605   2.601  18.880  0.00  0.00    +0.000 C 
ATOM     17  N   UNL     1       0.606   2.950  20.310  0.00  0.00    +0.000 NA
ATOM     18  C   UNL     1       0.917   4.374  20.525  0.00  0.00    +0.000 C 
ATOM     19  C   UNL     1       2.268   4.754  19.895  0.00  0.00    +0.000 C 
ATOM     20  H   UNL     1       1.309   2.360  20.811  0.00  0.00    +0.000 HD
ENDBRANCH  13  14
ENDBRANCH  11  13
ENDBRANCH  10  11
TORSDOF 3
ENDMDL
MODEL 5
REMARK VINA RESULT:      -6.9      3.939      5.877
REMARK  Name = 
REMARK  3 active torsions:
REMARK  status: ('A' for Active; 'I' for Inactive)
REMARK    1  A    between atoms: C_10  and  N_11
REMARK    2  A    between atoms: N_11  and  C_12
REMARK    3  A    between atoms: C_12  and  C_13
REMARK                            x       y       z     vdW  Elec       q    Type
REMARK                         _______ _______ _______ _____ _____    ______ ____
ROOT
ATOM      1  C   UNL     1       8.165   7.329  18.430  0.00  0.00    +0.000 A 
ATOM      2  C   UNL     1       8.079   6.196  19.259  0.00  0.00    +0.000 A 
ATOM      3  C   UNL     1       7.148   5.181  18.975  0.00  0.00    +0.000 A 
ATOM      4  C   UNL     1       6.330   5.313  17.849  0.00  0.00    +0.000 A 
ATOM      5  C   UNL     1       6.410   6.417  17.048  0.00  0.00    +0.000 A 
ATOM      6  C   UNL     1       7.313   7.450  17.321  0.00  0.00    +0.000 A 
ATOM      7  C   UNL     1       5.436   6.341  15.949  0.00  0.00    +0.000 C 
ATOM      8  C   UNL     1       4.855   4.911  16.010  0.00  0.00    +0.000 C 
ATOM      9  C   UNL     1       5.342   4.303  17.374  0.00  0.00    +0.000 C 
ATOM     10  C   UNL     1       3.875   4.590  17.135  0.00  0.00    +0.000 C 
ENDROOT
BRANCH  10  11
ATOM     11  N   UNL     1       3.126   3.347  16.879  0.00  0.00    +0.000 NA
ATOM     12  H   UNL     1       3.336   3.039  15.901  0.00  0.00    +0.000 HD
BRANCH  11  13
ATOM     13  C   UNL     1       3.479   2.233  17.777  0.00  0.00    +0.000 C 
BRANCH  13  14
ATOM     14  C   UNL     1       2.681   2.255  19.095  0.00  0.00    +0.000 C 
ATOM     15  C   UNL     1       3.542   2.692  20.293  0.00  0.00    +0.000 C 
ATOM     16  C   UNL     1       2.699   2.583  21.571  0.00  0.00    +0.000 C 
ATOM     17  N   UNL     1       1.499   3.431  21.491  0.00  0.00    +0.000 NA
ATOM     18  C   UNL     1       0.667   3.092  20.323  0.00  0.00    +0.000 C 
ATOM     19  C   UNL     1       1.468   3.198  19.014  0.00  0.00    +0.000 C 
ATOM     20  H   UNL     1       1.785   4.435  21.435  0.00  0.00    +0.000 HD
ENDBRANCH  13  14
ENDBRANCH  11  13
ENDBRANCH  10  11
TORSDOF 3
ENDMDL
MODEL 6
REMARK VINA RESULT:      -6.8      3.998      7.352
REMARK  Name = 
REMARK  3 active torsions:
REMARK  status: ('A' for Active; 'I' for Inactive)
REMARK    1  A    between atoms: C_10  and  N_11
REMARK    2  A    between atoms: N_11  and  C_12
REMARK    3  A    between atoms: C_12  and  C_13
REMARK                            x       y       z     vdW  Elec       q    Type
REMARK                         _______ _______ _______ _____ _____    ______ ____
ROOT
ATOM      1  C   UNL     1       6.960   3.870  12.001  0.00  0.00    +0.000 A 
ATOM      2  C   UNL     1       5.647   3.378  12.120  0.00  0.00    +0.000 A 
ATOM      3  C   UNL     1       4.928   3.561  13.314  0.00  0.00    +0.000 A 
ATOM      4  C   UNL     1       5.534   4.257  14.365  0.00  0.00    +0.000 A 
ATOM      5  C   UNL     1       6.811   4.729  14.251  0.00  0.00    +0.000 A 
ATOM      6  C   UNL     1       7.555   4.541  13.082  0.00  0.00    +0.000 A 
ATOM      7  C   UNL     1       7.237   5.397  15.490  0.00  0.00    +0.000 C 
ATOM      8  C   UNL     1       5.966   5.497  16.363  0.00  0.00    +0.000 C 
ATOM      9  C   UNL     1       4.889   4.592  15.667  0.00  0.00    +0.000 C 
ATOM     10  C   UNL     1       5.454   4.219  17.021  0.00  0.00    +0.000 C 
ENDROOT
BRANCH  10  11
ATOM     11  N   UNL     1       4.485   4.500  18.095  0.00  0.00    +0.000 NA
ATOM     12  H   UNL     1       3.522   4.418  17.691  0.00  0.00    +0.000 HD
BRANCH  11  13
ATOM     13  C   UNL     1       4.563   3.573  19.237  0.00  0.00    +0.000 C 
BRANCH  13  14
ATOM     14  C   UNL     1       3.194   2.970  19.610  0.00  0.00    +0.000 C 
ATOM     15  C   UNL     1       2.640   3.547  20.924  0.00  0.00    +0.000 C 
ATOM     16  C   UNL     1       1.334   2.818  21.270  0.00  0.00    +0.000 C 
ATOM     17  N   UNL     1       0.335   2.978  20.200  0.00  0.00    +0.000 NA
ATOM     18  C   UNL     1       0.841   2.493  18.904  0.00  0.00    +0.000 C 
ATOM     19  C   UNL     1       2.146   3.205  18.509  0.00  0.00    +0.000 C 
ATOM     20  H   UNL     1       0.073   3.987  20.117  0.00  0.00    +0.000 HD
ENDBRANCH  13  14
ENDBRANCH  11  13
ENDBRANCH  10  11
TORSDOF 3
ENDMDL
MODEL 7
REMARK VINA RESULT:      -6.8      2.578      3.839
REMARK  Name = 
REMARK  3 active torsions:
REMARK  status: ('A' for Active; 'I' for Inactive)
REMARK    1  A    between atoms: C_10  and  N_11
REMARK    2  A    between atoms: N_11  and  C_12
REMARK    3  A    between atoms: C_12  and  C_13
REMARK                            x       y       z     vdW  Elec       q    Type
REMARK                         _______ _______ _______ _____ _____    ______ ____
ROOT
ATOM      1  C   UNL     1       1.200   2.401  21.178  0.00  0.00    +0.000 A 
ATOM      2  C   UNL     1       1.965   3.317  21.923  0.00  0.00    +0.000 A 
ATOM      3  C   UNL     1       2.456   4.486  21.318  0.00  0.00    +0.000 A 
ATOM      4  C   UNL     1       2.151   4.728  19.975  0.00  0.00    +0.000 A 
ATOM      5  C   UNL     1       1.413   3.835  19.249  0.00  0.00    +0.000 A 
ATOM      6  C   UNL     1       0.932   2.654  19.823  0.00  0.00    +0.000 A 
ATOM      7  C   UNL     1       1.251   4.293  17.862  0.00  0.00    +0.000 C 
ATOM      8  C   UNL     1       1.799   5.737  17.836  0.00  0.00    +0.000 C 
ATOM      9  C   UNL     1       2.538   5.946  19.205  0.00  0.00    +0.000 C 
ATOM     10  C   UNL     1       3.312   5.924  17.904  0.00  0.00    +0.000 C 
ENDROOT
BRANCH  10  11
ATOM     11  N   UNL     1       3.720   7.283  17.508  0.00  0.00    +0.000 NA
ATOM     12  H   UNL     1       3.675   7.894  18.357  0.00  0.00    +0.000 HD
BRANCH  11  13
ATOM     13  C   UNL     1       5.091   7.371  16.974  0.00  0.00    +0.000 C 
BRANCH  13  14
ATOM     14  C   UNL     1       5.838   6.024  17.025  0.00  0.00    +0.000 C 
ATOM     15  C   UNL     1       6.240   5.526  15.626  0.00  0.00    +0.000 C 
ATOM     16  C   UNL     1       6.880   4.137  15.764  0.00  0.00    +0.000 C 
ATOM     17  N   UNL     1       8.068   4.182  16.632  0.00  0.00    +0.000 NA
ATOM     18  C   UNL     1       7.747   4.710  17.970  0.00  0.00    +0.000 C 
ATOM     19  C   UNL     1       7.112   6.108  17.884  0.00  0.00    +0.000 C 
ATOM     20  H   UNL     1       8.802   4.780  16.188  0.00  0.00    +0.000 HD
ENDBRANCH  13  14
ENDBRANCH  11  13
ENDBRANCH  10  11
TORSDOF 3
ENDMDL
MODEL 8
REMARK VINA RESULT:      -6.8      4.032      5.924
REMARK  Name = 
REMARK  3 active torsions:
REMARK  status: ('A' for Active; 'I' for Inactive)
REMARK    1  A    between atoms: C_10  and  N_11
REMARK    2  A    between atoms: N_11  and  C_12
REMARK    3  A    between atoms: C_12  and  C_13
REMARK                            x       y       z     vdW  Elec       q    Type
REMARK                         _______ _______ _______ _____ _____    ______ ____
ROOT
ATOM      1  C   UNL     1       7.898   7.878  18.076  0.00  0.00    +0.000 A 
ATOM      2  C   UNL     1       8.255   6.786  18.888  0.00  0.00    +0.000 A 
ATOM      3  C   UNL     1       7.648   5.534  18.695  0.00  0.00    +0.000 A 
ATOM      4  C   UNL     1       6.704   5.393  17.674  0.00  0.00    +0.000 A 
ATOM      5  C   UNL     1       6.352   6.456  16.890  0.00  0.00    +0.000 A 
ATOM      6  C   UNL     1       6.926   7.717  17.075  0.00  0.00    +0.000 A 
ATOM      7  C   UNL     1       5.326   6.070  15.910  0.00  0.00    +0.000 C 
ATOM      8  C   UNL     1       5.216   4.532  16.011  0.00  0.00    +0.000 C 
ATOM      9  C   UNL     1       6.018   4.123  17.297  0.00  0.00    +0.000 C 
ATOM     10  C   UNL     1       4.515   3.950  17.236  0.00  0.00    +0.000 C 
ENDROOT
BRANCH  10  11
ATOM     11  N   UNL     1       4.153   2.534  17.045  0.00  0.00    +0.000 NA
ATOM     12  H   UNL     1       4.969   2.048  16.606  0.00  0.00    +0.000 HD
BRANCH  11  13
ATOM     13  C   UNL     1       3.832   1.819  18.293  0.00  0.00    +0.000 C 
BRANCH  13  14
ATOM     14  C   UNL     1       2.908   2.628  19.223  0.00  0.00    +0.000 C 
ATOM     15  C   UNL     1       1.424   2.277  19.023  0.00  0.00    +0.000 C 
ATOM     16  C   UNL     1       0.576   3.200  19.908  0.00  0.00    +0.000 C 
ATOM     17  N   UNL     1       0.931   3.049  21.329  0.00  0.00    +0.000 NA
ATOM     18  C   UNL     1       2.360   3.317  21.567  0.00  0.00    +0.000 C 
ATOM     19  C   UNL     1       3.252   2.405  20.707  0.00  0.00    +0.000 C 
ATOM     20  H   UNL     1       0.701   2.078  21.643  0.00  0.00    +0.000 HD
ENDBRANCH  13  14
ENDBRANCH  11  13
ENDBRANCH  10  11
TORSDOF 3
ENDMDL
MODEL 9
REMARK VINA RESULT:      -6.7      3.325      7.322
REMARK  Name = 
REMARK  3 active torsions:
REMARK  status: ('A' for Active; 'I' for Inactive)
REMARK    1  A    between atoms: C_10  and  N_11
REMARK    2  A    between atoms: N_11  and  C_12
REMARK    3  A    between atoms: C_12  and  C_13
REMARK                            x       y       z     vdW  Elec       q    Type
REMARK                         _______ _______ _______ _____ _____    ______ ____
ROOT
ATOM      1  C   UNL     1       7.462   4.559  12.033  0.00  0.00    +0.000 A 
ATOM      2  C   UNL     1       6.371   3.674  11.961  0.00  0.00    +0.000 A 
ATOM      3  C   UNL     1       5.582   3.431  13.098  0.00  0.00    +0.000 A 
ATOM      4  C   UNL     1       5.890   4.098  14.288  0.00  0.00    +0.000 A 
ATOM      5  C   UNL     1       6.954   4.952  14.359  0.00  0.00    +0.000 A 
ATOM      6  C   UNL     1       7.768   5.195  13.247  0.00  0.00    +0.000 A 
ATOM      7  C   UNL     1       7.094   5.507  15.713  0.00  0.00    +0.000 C 
ATOM      8  C   UNL     1       5.821   5.069  16.472  0.00  0.00    +0.000 C 
ATOM      9  C   UNL     1       5.118   4.002  15.560  0.00  0.00    +0.000 C 
ATOM     10  C   UNL     1       5.715   3.606  16.893  0.00  0.00    +0.000 C 
ENDROOT
BRANCH  10  11
ATOM     11  N   UNL     1       4.662   3.396  17.903  0.00  0.00    +0.000 NA
ATOM     12  H   UNL     1       5.012   2.690  18.592  0.00  0.00    +0.000 HD
BRANCH  11  13
ATOM     13  C   UNL     1       4.299   4.607  18.659  0.00  0.00    +0.000 C 
BRANCH  13  14
ATOM     14  C   UNL     1       3.246   4.335  19.751  0.00  0.00    +0.000 C 
ATOM     15  C   UNL     1       1.808   4.500  19.229  0.00  0.00    +0.000 C 
ATOM     16  C   UNL     1       0.834   4.315  20.401  0.00  0.00    +0.000 C 
ATOM     17  N   UNL     1       0.987   2.986  21.015  0.00  0.00    +0.000 NA
ATOM     18  C   UNL     1       2.366   2.754  21.480  0.00  0.00    +0.000 C 
ATOM     19  C   UNL     1       3.379   2.918  20.334  0.00  0.00    +0.000 C 
ATOM     20  H   UNL     1       0.725   2.249  20.321  0.00  0.00    +0.000 HD
ENDBRANCH  13  14
ENDBRANCH  11  13
ENDBRANCH  10  11
TORSDOF 3
ENDMDL
