MODEL 1
REMARK VINA RESULT:      -8.0      0.000      0.000
REMARK  Name = 
REMARK  7 active torsions:
REMARK  status: ('A' for Active; 'I' for Inactive)
REMARK    1  A    between atoms: C_1  and  C_2
REMARK    2  A    between atoms: C_6  and  C_7
REMARK    3  A    between atoms: C_11  and  C_12
REMARK    4  A    between atoms: N_14  and  C_15
REMARK    5  A    between atoms: N_18  and  C_19
REMARK    6  A    between atoms: C_19  and  C_20
REMARK    7  A    between atoms: C_20  and  N_21
REMARK                            x       y       z     vdW  Elec       q    Type
REMARK                         _______ _______ _______ _____ _____    ______ ____
ROOT
ATOM      1  C   UNL     1       0.624  12.823  21.216  0.00  0.00    +0.000 C 
ATOM      2  O   UNL     1       0.794  13.833  21.896  0.00  0.00    +0.000 OA
ATOM      3  N   UNL     1       0.703  12.869  19.832  0.00  0.00    +0.000 N 
ATOM      4  H   UNL     1       1.077  13.692  19.380  0.00  0.00    +0.000 HD
ENDROOT
BRANCH   1   9
ATOM      5  C   UNL     1      -1.004  11.285  22.372  0.00  0.00    +0.000 A 
ATOM      6  O   UNL     1      -0.997  10.048  22.936  0.00  0.00    +0.000 OA
ATOM      7  C   UNL     1       0.286   9.626  22.701  0.00  0.00    +0.000 A 
ATOM      8  N   UNL     1       1.084  10.469  22.078  0.00  0.00    +0.000 NA
ATOM      9  C   UNL     1       0.243  11.548  21.818  0.00  0.00    +0.000 A 
BRANCH   5  15
ATOM     10  C   UNL     1      -5.123  12.615  24.824  0.00  0.00    +0.000 C 
ATOM     11  C   UNL     1      -4.291  12.668  23.579  0.00  0.00    +0.000 A 
ATOM     12  C   UNL     1      -4.764  13.280  22.418  0.00  0.00    +0.000 A 
ATOM     13  C   UNL     1      -3.989  13.276  21.256  0.00  0.00    +0.000 A 
ATOM     14  C   UNL     1      -2.732  12.663  21.240  0.00  0.00    +0.000 A 
ATOM     15  C   UNL     1      -2.233  12.058  22.395  0.00  0.00    +0.000 A 
ATOM     16  C   UNL     1      -3.024  12.069  23.559  0.00  0.00    +0.000 A 
ENDBRANCH   5  15
ENDBRANCH   1   9
BRANCH   3  17
ATOM     17  C   UNL     1       0.509  11.712  19.095  0.00  0.00    +0.000 A 
ATOM     18  C   UNL     1      -0.675  11.133  18.590  0.00  0.00    +0.000 A 
ATOM     19  N   UNL     1      -0.446   9.991  17.930  0.00  0.00    +0.000 NA
ATOM     20  N   UNL     1       0.881   9.811  18.058  0.00  0.00    +0.000 N 
ATOM     21  C   UNL     1       1.495  10.836  18.726  0.00  0.00    +0.000 A 
BRANCH  20  22
ATOM     22  C   UNL     1       1.484   8.606  17.525  0.00  0.00    +0.000 C 
BRANCH  22  23
ATOM     23  C   UNL     1       2.493   8.011  18.443  0.00  0.00    +0.000 C 
BRANCH  23  24
ATOM     24  N   UNL     1       3.125   6.763  18.002  0.00  0.00    +0.000 N 
ATOM     25  C   UNL     1       4.359   6.871  17.332  0.00  0.00    +0.000 A 
ATOM     26  C   UNL     1       4.727   5.643  16.855  0.00  0.00    +0.000 A 
ATOM     27  C   UNL     1       3.745   4.738  17.341  0.00  0.00    +0.000 A 
ATOM     28  C   UNL     1       3.657   3.378  17.139  0.00  0.00    +0.000 A 
ATOM     29  C   UNL     1       2.446   2.738  17.519  0.00  0.00    +0.000 A 
ATOM     30  C   UNL     1       1.557   2.994  18.584  0.00  0.00    +0.000 A 
ATOM     31  C   UNL     1       1.691   4.423  18.712  0.00  0.00    +0.000 A 
ATOM     32  C   UNL     1       2.762   5.377  18.108  0.00  0.00    +0.000 A 
ENDBRANCH  23  24
ENDBRANCH  22  23
ENDBRANCH  20  22
ENDBRANCH   3  17
TORSDOF 6
ENDMDL
MODEL 2
REMARK VINA RESULT:      -8.0      3.363     10.049
REMARK  Name = 
REMARK  7 active torsions:
REMARK  status: ('A' for Active; 'I' for Inactive)
REMARK    1  A    between atoms: C_1  and  C_2
REMARK    2  A    between atoms: C_6  and  C_7
REMARK    3  A    between atoms: C_11  and  C_12
REMARK    4  A    between atoms: N_14  and  C_15
REMARK    5  A    between atoms: N_18  and  C_19
REMARK    6  A    between atoms: C_19  and  C_20
REMARK    7  A    between atoms: C_20  and  N_21
REMARK                            x       y       z     vdW  Elec       q    Type
REMARK                         _______ _______ _______ _____ _____    ______ ____
ROOT
ATOM      1  C   UNL     1       2.225   2.773  17.964  0.00  0.00    +0.000 C 
ATOM      2  O   UNL     1       2.087   1.886  17.124  0.00  0.00    +0.000 OA
ATOM      3  N   UNL     1       1.283   3.781  18.103  0.00  0.00    +0.000 N 
ATOM      4  H   UNL     1       0.388   3.695  17.640  0.00  0.00    +0.000 HD
ENDROOT
BRANCH   1   9
ATOM      5  C   UNL     1       4.571   3.565  18.436  0.00  0.00    +0.000 A 
ATOM      6  O   UNL     1       5.533   3.365  19.375  0.00  0.00    +0.000 OA
ATOM      7  C   UNL     1       4.908   2.524  20.260  0.00  0.00    +0.000 A 
ATOM      8  N   UNL     1       3.677   2.160  19.967  0.00  0.00    +0.000 NA
ATOM      9  C   UNL     1       3.424   2.865  18.792  0.00  0.00    +0.000 A 
BRANCH   5  15
ATOM     10  C   UNL     1       6.020   4.069  13.704  0.00  0.00    +0.000 C 
ATOM     11  C   UNL     1       5.626   4.699  15.006  0.00  0.00    +0.000 A 
ATOM     12  C   UNL     1       5.710   6.078  15.196  0.00  0.00    +0.000 A 
ATOM     13  C   UNL     1       5.381   6.638  16.432  0.00  0.00    +0.000 A 
ATOM     14  C   UNL     1       4.962   5.828  17.492  0.00  0.00    +0.000 A 
ATOM     15  C   UNL     1       4.856   4.447  17.318  0.00  0.00    +0.000 A 
ATOM     16  C   UNL     1       5.191   3.896  16.067  0.00  0.00    +0.000 A 
ENDBRANCH   5  15
ENDBRANCH   1   9
BRANCH   3  17
ATOM     17  C   UNL     1       1.466   4.765  19.060  0.00  0.00    +0.000 A 
ATOM     18  C   UNL     1       1.362   4.708  20.466  0.00  0.00    +0.000 A 
ATOM     19  N   UNL     1       1.604   5.889  21.047  0.00  0.00    +0.000 NA
ATOM     20  N   UNL     1       1.813   6.717  20.007  0.00  0.00    +0.000 N 
ATOM     21  C   UNL     1       1.766   6.076  18.799  0.00  0.00    +0.000 A 
BRANCH  20  22
ATOM     22  C   UNL     1       2.029   8.128  20.259  0.00  0.00    +0.000 C 
BRANCH  22  23
ATOM     23  C   UNL     1       0.839   8.961  19.940  0.00  0.00    +0.000 C 
BRANCH  23  24
ATOM     24  N   UNL     1       0.200   9.650  21.067  0.00  0.00    +0.000 N 
ATOM     25  C   UNL     1       0.434   9.129  22.354  0.00  0.00    +0.000 A 
ATOM     26  C   UNL     1      -0.353   9.786  23.260  0.00  0.00    +0.000 A 
ATOM     27  C   UNL     1      -1.006  10.810  22.524  0.00  0.00    +0.000 A 
ATOM     28  C   UNL     1      -1.909  11.748  22.974  0.00  0.00    +0.000 A 
ATOM     29  C   UNL     1      -2.611  12.503  21.995  0.00  0.00    +0.000 A 
ATOM     30  C   UNL     1      -2.208  12.981  20.730  0.00  0.00    +0.000 A 
ATOM     31  C   UNL     1      -1.294  11.943  20.325  0.00  0.00    +0.000 A 
ATOM     32  C   UNL     1      -0.650  10.805  21.169  0.00  0.00    +0.000 A 
ENDBRANCH  23  24
ENDBRANCH  22  23
ENDBRANCH  20  22
ENDBRANCH   3  17
TORSDOF 6
ENDMDL
MODEL 3
REMARK VINA RESULT:      -8.0      6.512     10.307
REMARK  Name = 
REMARK  7 active torsions:
REMARK  status: ('A' for Active; 'I' for Inactive)
REMARK    1  A    between atoms: C_1  and  C_2
REMARK    2  A    between atoms: C_6  and  C_7
REMARK    3  A    between atoms: C_11  and  C_12
REMARK    4  A    between atoms: N_14  and  C_15
REMARK    5  A    between atoms: N_18  and  C_19
REMARK    6  A    between atoms: C_19  and  C_20
REMARK    7  A    between atoms: C_20  and  N_21
REMARK                            x       y       z     vdW  Elec       q    Type
REMARK                         _______ _______ _______ _____ _____    ______ ____
ROOT
ATOM      1  C   UNL     1       5.362   4.700  16.540  0.00  0.00    +0.000 C 
ATOM      2  O   UNL     1       4.844   3.777  15.914  0.00  0.00    +0.000 OA
ATOM      3  N   UNL     1       6.740   4.794  16.668  0.00  0.00    +0.000 N 
ATOM      4  H   UNL     1       7.336   4.208  16.099  0.00  0.00    +0.000 HD
ENDROOT
BRANCH   1   9
ATOM      5  C   UNL     1       3.791   5.411  18.378  0.00  0.00    +0.000 A 
ATOM      6  O   UNL     1       3.091   6.521  18.733  0.00  0.00    +0.000 OA
ATOM      7  C   UNL     1       3.469   7.426  17.774  0.00  0.00    +0.000 A 
ATOM      8  N   UNL     1       4.305   6.998  16.851  0.00  0.00    +0.000 NA
ATOM      9  C   UNL     1       4.559   5.690  17.254  0.00  0.00    +0.000 A 
BRANCH   5  15
ATOM     10  C   UNL     1       1.221   2.851  21.782  0.00  0.00    +0.000 C 
ATOM     11  C   UNL     1       2.436   2.982  20.913  0.00  0.00    +0.000 A 
ATOM     12  C   UNL     1       3.501   2.088  21.020  0.00  0.00    +0.000 A 
ATOM     13  C   UNL     1       4.642   2.256  20.233  0.00  0.00    +0.000 A 
ATOM     14  C   UNL     1       4.732   3.319  19.328  0.00  0.00    +0.000 A 
ATOM     15  C   UNL     1       3.671   4.216  19.194  0.00  0.00    +0.000 A 
ATOM     16  C   UNL     1       2.527   4.035  19.994  0.00  0.00    +0.000 A 
ENDBRANCH   5  15
ENDBRANCH   1   9
BRANCH   3  17
ATOM     17  C   UNL     1       7.293   5.848  17.377  0.00  0.00    +0.000 A 
ATOM     18  C   UNL     1       7.784   5.907  18.699  0.00  0.00    +0.000 A 
ATOM     19  N   UNL     1       8.232   7.125  19.025  0.00  0.00    +0.000 NA
ATOM     20  N   UNL     1       7.979   7.861  17.927  0.00  0.00    +0.000 N 
ATOM     21  C   UNL     1       7.441   7.125  16.906  0.00  0.00    +0.000 A 
BRANCH  20  22
ATOM     22  C   UNL     1       8.264   9.282  17.949  0.00  0.00    +0.000 C 
BRANCH  22  23
ATOM     23  C   UNL     1       9.091   9.687  19.118  0.00  0.00    +0.000 C 
BRANCH  23  24
ATOM     24  N   UNL     1       9.610  11.059  19.109  0.00  0.00    +0.000 N 
ATOM     25  C   UNL     1      10.322  11.468  17.966  0.00  0.00    +0.000 A 
ATOM     26  C   UNL     1      10.865  12.705  18.186  0.00  0.00    +0.000 A 
ATOM     27  C   UNL     1      10.381  13.110  19.460  0.00  0.00    +0.000 A 
ATOM     28  C   UNL     1      10.637  14.278  20.143  0.00  0.00    +0.000 A 
ATOM     29  C   UNL     1      10.238  14.339  21.507  0.00  0.00    +0.000 A 
ATOM     30  C   UNL     1       9.129  13.776  22.173  0.00  0.00    +0.000 A 
ATOM     31  C   UNL     1       8.946  12.562  21.419  0.00  0.00    +0.000 A 
ATOM     32  C   UNL     1       9.549  12.147  20.046  0.00  0.00    +0.000 A 
ENDBRANCH  23  24
ENDBRANCH  22  23
ENDBRANCH  20  22
ENDBRANCH   3  17
TORSDOF 6
ENDMDL
MODEL 4
REMARK VINA RESULT:      -8.0      6.481     10.449
REMARK  Name = 
REMARK  7 active torsions:
REMARK  status: ('A' for Active; 'I' for Inactive)
REMARK    1  A    between atoms: C_1  and  C_2
REMARK    2  A    between atoms: C_6  and  C_7
REMARK    3  A    between atoms: C_11  and  C_12
REMARK    4  A    between atoms: N_14  and  C_15
REMARK    5  A    between atoms: N_18  and  C_19
REMARK    6  A    between atoms: C_19  and  C_20
REMARK    7  A    between atoms: C_20  and  N_21
REMARK                            x       y       z     vdW  Elec       q    Type
REMARK                         _______ _______ _______ _____ _____    ______ ____
ROOT
ATOM      1  C   UNL     1       5.424   5.194  16.004  0.00  0.00    +0.000 C 
ATOM      2  O   UNL     1       4.923   4.380  15.231  0.00  0.00    +0.000 OA
ATOM      3  N   UNL     1       6.793   5.231  16.217  0.00  0.00    +0.000 N 
ATOM      4  H   UNL     1       7.408   4.713  15.605  0.00  0.00    +0.000 HD
ENDROOT
BRANCH   1   9
ATOM      5  C   UNL     1       3.740   5.686  17.814  0.00  0.00    +0.000 A 
ATOM      6  O   UNL     1       3.052   6.759  18.287  0.00  0.00    +0.000 OA
ATOM      7  C   UNL     1       3.534   7.782  17.511  0.00  0.00    +0.000 A 
ATOM      8  N   UNL     1       4.425   7.463  16.594  0.00  0.00    +0.000 NA
ATOM      9  C   UNL     1       4.602   6.098  16.805  0.00  0.00    +0.000 A 
BRANCH   5  15
ATOM     10  C   UNL     1       0.556   2.035  18.947  0.00  0.00    +0.000 C 
ATOM     11  C   UNL     1       1.936   2.615  19.032  0.00  0.00    +0.000 A 
ATOM     12  C   UNL     1       2.921   2.025  19.823  0.00  0.00    +0.000 A 
ATOM     13  C   UNL     1       4.186   2.609  19.923  0.00  0.00    +0.000 A 
ATOM     14  C   UNL     1       4.482   3.788  19.233  0.00  0.00    +0.000 A 
ATOM     15  C   UNL     1       3.515   4.387  18.422  0.00  0.00    +0.000 A 
ATOM     16  C   UNL     1       2.245   3.788  18.331  0.00  0.00    +0.000 A 
ENDBRANCH   5  15
ENDBRANCH   1   9
BRANCH   3  17
ATOM     17  C   UNL     1       7.327   6.162  17.094  0.00  0.00    +0.000 A 
ATOM     18  C   UNL     1       7.705   6.036  18.447  0.00  0.00    +0.000 A 
ATOM     19  N   UNL     1       8.173   7.182  18.957  0.00  0.00    +0.000 NA
ATOM     20  N   UNL     1       8.045   8.056  17.943  0.00  0.00    +0.000 N 
ATOM     21  C   UNL     1       7.567   7.478  16.798  0.00  0.00    +0.000 A 
BRANCH  20  22
ATOM     22  C   UNL     1       8.386   9.447  18.163  0.00  0.00    +0.000 C 
BRANCH  22  23
ATOM     23  C   UNL     1       9.217   9.652  19.381  0.00  0.00    +0.000 C 
BRANCH  23  24
ATOM     24  N   UNL     1       9.686  11.019  19.632  0.00  0.00    +0.000 N 
ATOM     25  C   UNL     1       9.544  11.515  20.942  0.00  0.00    +0.000 A 
ATOM     26  C   UNL     1       9.880  12.841  20.965  0.00  0.00    +0.000 A 
ATOM     27  C   UNL     1      10.344  13.138  19.655  0.00  0.00    +0.000 A 
ATOM     28  C   UNL     1      10.798  14.340  19.157  0.00  0.00    +0.000 A 
ATOM     29  C   UNL     1      10.969  14.441  17.749  0.00  0.00    +0.000 A 
ATOM     30  C   UNL     1      11.378  13.487  16.795  0.00  0.00    +0.000 A 
ATOM     31  C   UNL     1      10.849  12.278  17.374  0.00  0.00    +0.000 A 
ATOM     32  C   UNL     1      10.299  12.023  18.807  0.00  0.00    +0.000 A 
ENDBRANCH  23  24
ENDBRANCH  22  23
ENDBRANCH  20  22
ENDBRANCH   3  17
TORSDOF 6
ENDMDL
MODEL 5
REMARK VINA RESULT:      -8.0      3.616      9.808
REMARK  Name = 
REMARK  7 active torsions:
REMARK  status: ('A' for Active; 'I' for Inactive)
REMARK    1  A    between atoms: C_1  and  C_2
REMARK    2  A    between atoms: C_6  and  C_7
REMARK    3  A    between atoms: C_11  and  C_12
REMARK    4  A    between atoms: N_14  and  C_15
REMARK    5  A    between atoms: N_18  and  C_19
REMARK    6  A    between atoms: C_19  and  C_20
REMARK    7  A    between atoms: C_20  and  N_21
REMARK                            x       y       z     vdW  Elec       q    Type
REMARK                         _______ _______ _______ _____ _____    ______ ____
ROOT
ATOM      1  C   UNL     1       2.263   2.699  18.013  0.00  0.00    +0.000 C 
ATOM      2  O   UNL     1       2.160   1.793  17.188  0.00  0.00    +0.000 OA
ATOM      3  N   UNL     1       1.287   3.678  18.127  0.00  0.00    +0.000 N 
ATOM      4  H   UNL     1       0.399   3.555  17.660  0.00  0.00    +0.000 HD
ENDROOT
BRANCH   1   9
ATOM      5  C   UNL     1       4.583   3.564  18.482  0.00  0.00    +0.000 A 
ATOM      6  O   UNL     1       5.542   3.414  19.434  0.00  0.00    +0.000 OA
ATOM      7  C   UNL     1       4.931   2.584  20.338  0.00  0.00    +0.000 A 
ATOM      8  N   UNL     1       3.712   2.180  20.045  0.00  0.00    +0.000 NA
ATOM      9  C   UNL     1       3.452   2.845  18.849  0.00  0.00    +0.000 A 
BRANCH   5  15
ATOM     10  C   UNL     1       6.084   3.973  13.757  0.00  0.00    +0.000 C 
ATOM     11  C   UNL     1       5.651   4.628  15.034  0.00  0.00    +0.000 A 
ATOM     12  C   UNL     1       5.688   6.015  15.183  0.00  0.00    +0.000 A 
ATOM     13  C   UNL     1       5.323   6.600  16.397  0.00  0.00    +0.000 A 
ATOM     14  C   UNL     1       4.916   5.809  17.476  0.00  0.00    +0.000 A 
ATOM     15  C   UNL     1       4.856   4.421  17.342  0.00  0.00    +0.000 A 
ATOM     16  C   UNL     1       5.227   3.843  16.113  0.00  0.00    +0.000 A 
ENDBRANCH   5  15
ENDBRANCH   1   9
BRANCH   3  17
ATOM     17  C   UNL     1       1.431   4.684  19.069  0.00  0.00    +0.000 A 
ATOM     18  C   UNL     1       1.301   4.652  20.473  0.00  0.00    +0.000 A 
ATOM     19  N   UNL     1       1.507   5.850  21.034  0.00  0.00    +0.000 NA
ATOM     20  N   UNL     1       1.717   6.662  19.982  0.00  0.00    +0.000 N 
ATOM     21  C   UNL     1       1.707   5.996  18.786  0.00  0.00    +0.000 A 
BRANCH  20  22
ATOM     22  C   UNL     1       1.897   8.081  20.211  0.00  0.00    +0.000 C 
BRANCH  22  23
ATOM     23  C   UNL     1       0.998   8.614  21.269  0.00  0.00    +0.000 C 
BRANCH  23  24
ATOM     24  N   UNL     1       0.212   9.805  20.924  0.00  0.00    +0.000 N 
ATOM     25  C   UNL     1       0.112  10.812  21.901  0.00  0.00    +0.000 A 
ATOM     26  C   UNL     1      -0.774  11.767  21.481  0.00  0.00    +0.000 A 
ATOM     27  C   UNL     1      -1.144  11.387  20.163  0.00  0.00    +0.000 A 
ATOM     28  C   UNL     1      -2.017  12.015  19.301  0.00  0.00    +0.000 A 
ATOM     29  C   UNL     1      -2.410  11.304  18.135  0.00  0.00    +0.000 A 
ATOM     30  C   UNL     1      -1.700  10.398  17.319  0.00  0.00    +0.000 A 
ATOM     31  C   UNL     1      -0.837   9.775  18.290  0.00  0.00    +0.000 A 
ATOM     32  C   UNL     1      -0.511  10.207  19.749  0.00  0.00    +0.000 A 
ENDBRANCH  23  24
ENDBRANCH  22  23
ENDBRANCH  20  22
ENDBRANCH   3  17
TORSDOF 6
ENDMDL
MODEL 6
REMARK VINA RESULT:      -7.9      0.900      1.574
REMARK  Name = 
REMARK  7 active torsions:
REMARK  status: ('A' for Active; 'I' for Inactive)
REMARK    1  A    between atoms: C_1  and  C_2
REMARK    2  A    between atoms: C_6  and  C_7
REMARK    3  A    between atoms: C_11  and  C_12
REMARK    4  A    between atoms: N_14  and  C_15
REMARK    5  A    between atoms: N_18  and  C_19
REMARK    6  A    between atoms: C_19  and  C_20
REMARK    7  A    between atoms: C_20  and  N_21
REMARK                            x       y       z     vdW  Elec       q    Type
REMARK                         _______ _______ _______ _____ _____    ______ ____
ROOT
ATOM      1  C   UNL     1       0.929  12.553  21.040  0.00  0.00    +0.000 C 
ATOM      2  O   UNL     1       1.091  13.583  21.692  0.00  0.00    +0.000 OA
ATOM      3  N   UNL     1       1.056  12.551  19.660  0.00  0.00    +0.000 N 
ATOM      4  H   UNL     1       1.458  13.353  19.194  0.00  0.00    +0.000 HD
ENDROOT
BRANCH   1   9
ATOM      5  C   UNL     1      -0.747  11.092  22.226  0.00  0.00    +0.000 A 
ATOM      6  O   UNL     1      -0.778   9.869  22.819  0.00  0.00    +0.000 OA
ATOM      7  C   UNL     1       0.492   9.403  22.598  0.00  0.00    +0.000 A 
ATOM      8  N   UNL     1       1.317  10.207  21.958  0.00  0.00    +0.000 NA
ATOM      9  C   UNL     1       0.509  11.304  21.671  0.00  0.00    +0.000 A 
BRANCH   5  15
ATOM     10  C   UNL     1      -4.802  12.643  24.656  0.00  0.00    +0.000 C 
ATOM     11  C   UNL     1      -3.980  12.620  23.403  0.00  0.00    +0.000 A 
ATOM     12  C   UNL     1      -4.445  13.199  22.222  0.00  0.00    +0.000 A 
ATOM     13  C   UNL     1      -3.682  13.125  21.055  0.00  0.00    +0.000 A 
ATOM     14  C   UNL     1      -2.444  12.473  21.053  0.00  0.00    +0.000 A 
ATOM     15  C   UNL     1      -1.952  11.902  22.228  0.00  0.00    +0.000 A 
ATOM     16  C   UNL     1      -2.732  11.983  23.397  0.00  0.00    +0.000 A 
ENDBRANCH   5  15
ENDBRANCH   1   9
BRANCH   3  17
ATOM     17  C   UNL     1       0.870  11.373  18.954  0.00  0.00    +0.000 A 
ATOM     18  C   UNL     1      -0.313  10.746  18.511  0.00  0.00    +0.000 A 
ATOM     19  N   UNL     1      -0.074   9.598  17.866  0.00  0.00    +0.000 NA
ATOM     20  N   UNL     1       1.263   9.464  17.941  0.00  0.00    +0.000 N 
ATOM     21  C   UNL     1       1.869  10.522  18.562  0.00  0.00    +0.000 A 
BRANCH  20  22
ATOM     22  C   UNL     1       1.883   8.268  17.408  0.00  0.00    +0.000 C 
BRANCH  22  23
ATOM     23  C   UNL     1       2.841   7.641  18.359  0.00  0.00    +0.000 C 
BRANCH  23  24
ATOM     24  N   UNL     1       2.371   6.446  19.070  0.00  0.00    +0.000 N 
ATOM     25  C   UNL     1       1.867   6.631  20.371  0.00  0.00    +0.000 A 
ATOM     26  C   UNL     1       1.624   5.412  20.943  0.00  0.00    +0.000 A 
ATOM     27  C   UNL     1       1.884   4.457  19.923  0.00  0.00    +0.000 A 
ATOM     28  C   UNL     1       1.792   3.084  19.989  0.00  0.00    +0.000 A 
ATOM     29  C   UNL     1       2.347   2.338  18.913  0.00  0.00    +0.000 A 
ATOM     30  C   UNL     1       2.422   2.620  17.533  0.00  0.00    +0.000 A 
ATOM     31  C   UNL     1       2.539   4.057  17.554  0.00  0.00    +0.000 A 
ATOM     32  C   UNL     1       2.294   5.054  18.723  0.00  0.00    +0.000 A 
ENDBRANCH  23  24
ENDBRANCH  22  23
ENDBRANCH  20  22
ENDBRANCH   3  17
TORSDOF 6
ENDMDL
MODEL 7
REMARK VINA RESULT:      -7.9      6.544     10.509
REMARK  Name = 
REMARK  7 active torsions:
REMARK  status: ('A' for Active; 'I' for Inactive)
REMARK    1  A    between atoms: C_1  and  C_2
REMARK    2  A    between atoms: C_6  and  C_7
REMARK    3  A    between atoms: C_11  and  C_12
REMARK    4  A    between atoms: N_14  and  C_15
REMARK    5  A    between atoms: N_18  and  C_19
REMARK    6  A    between atoms: C_19  and  C_20
REMARK    7  A    between atoms: C_20  and  N_21
REMARK                            x       y       z     vdW  Elec       q    Type
REMARK                         _______ _______ _______ _____ _____    ______ ____
ROOT
ATOM      1  C   UNL     1       5.374   4.970  16.152  0.00  0.00    +0.000 C 
ATOM      2  O   UNL     1       4.865   4.113  15.432  0.00  0.00    +0.000 OA
ATOM      3  N   UNL     1       6.740   4.989  16.386  0.00  0.00    +0.000 N 
ATOM      4  H   UNL     1       7.352   4.412  15.825  0.00  0.00    +0.000 HD
ENDROOT
BRANCH   1   9
ATOM      5  C   UNL     1       3.561   5.626  17.776  0.00  0.00    +0.000 A 
ATOM      6  O   UNL     1       2.934   6.761  18.182  0.00  0.00    +0.000 OA
ATOM      7  C   UNL     1       3.594   7.731  17.473  0.00  0.00    +0.000 A 
ATOM      8  N   UNL     1       4.543   7.326  16.653  0.00  0.00    +0.000 NA
ATOM      9  C   UNL     1       4.563   5.951  16.868  0.00  0.00    +0.000 A 
BRANCH   5  15
ATOM     10  C   UNL     1       4.728   1.620  20.486  0.00  0.00    +0.000 C 
ATOM     11  C   UNL     1       3.741   2.355  19.629  0.00  0.00    +0.000 A 
ATOM     12  C   UNL     1       2.542   1.761  19.237  0.00  0.00    +0.000 A 
ATOM     13  C   UNL     1       1.658   2.447  18.402  0.00  0.00    +0.000 A 
ATOM     14  C   UNL     1       1.960   3.736  17.950  0.00  0.00    +0.000 A 
ATOM     15  C   UNL     1       3.148   4.355  18.344  0.00  0.00    +0.000 A 
ATOM     16  C   UNL     1       4.029   3.652  19.186  0.00  0.00    +0.000 A 
ENDBRANCH   5  15
ENDBRANCH   1   9
BRANCH   3  17
ATOM     17  C   UNL     1       7.283   5.969  17.201  0.00  0.00    +0.000 A 
ATOM     18  C   UNL     1       7.707   5.914  18.546  0.00  0.00    +0.000 A 
ATOM     19  N   UNL     1       8.169   7.090  18.987  0.00  0.00    +0.000 NA
ATOM     20  N   UNL     1       7.992   7.914  17.938  0.00  0.00    +0.000 N 
ATOM     21  C   UNL     1       7.489   7.274  16.837  0.00  0.00    +0.000 A 
BRANCH  20  22
ATOM     22  C   UNL     1       8.312   9.320  18.082  0.00  0.00    +0.000 C 
BRANCH  22  23
ATOM     23  C   UNL     1       9.234   9.587  19.220  0.00  0.00    +0.000 C 
BRANCH  23  24
ATOM     24  N   UNL     1       9.556  10.994  19.486  0.00  0.00    +0.000 N 
ATOM     25  C   UNL     1       9.207  11.504  20.751  0.00  0.00    +0.000 A 
ATOM     26  C   UNL     1       9.430  12.853  20.775  0.00  0.00    +0.000 A 
ATOM     27  C   UNL     1      10.035  13.160  19.526  0.00  0.00    +0.000 A 
ATOM     28  C   UNL     1      10.452  14.385  19.052  0.00  0.00    +0.000 A 
ATOM     29  C   UNL     1      10.794  14.471  17.674  0.00  0.00    +0.000 A 
ATOM     30  C   UNL     1      11.398  13.533  16.809  0.00  0.00    +0.000 A 
ATOM     31  C   UNL     1      10.897  12.297  17.355  0.00  0.00    +0.000 A 
ATOM     32  C   UNL     1      10.188  12.028  18.714  0.00  0.00    +0.000 A 
ENDBRANCH  23  24
ENDBRANCH  22  23
ENDBRANCH  20  22
ENDBRANCH   3  17
TORSDOF 6
ENDMDL
MODEL 8
REMARK VINA RESULT:      -7.8      1.479      2.706
REMARK  Name = 
REMARK  7 active torsions:
REMARK  status: ('A' for Active; 'I' for Inactive)
REMARK    1  A    between atoms: C_1  and  C_2
REMARK    2  A    between atoms: C_6  and  C_7
REMARK    3  A    between atoms: C_11  and  C_12
REMARK    4  A    between atoms: N_14  and  C_15
REMARK    5  A    between atoms: N_18  and  C_19
REMARK    6  A    between atoms: C_19  and  C_20
REMARK    7  A    between atoms: C_20  and  N_21
REMARK                            x       y       z     vdW  Elec       q    Type
REMARK                         _______ _______ _______ _____ _____    ______ ____
ROOT
ATOM      1  C   UNL     1      -0.309  10.630  22.216  0.00  0.00    +0.000 C 
ATOM      2  O   UNL     1      -0.749  10.728  23.360  0.00  0.00    +0.000 OA
ATOM      3  N   UNL     1      -0.067   9.389  21.646  0.00  0.00    +0.000 N 
ATOM      4  H   UNL     1      -0.419   8.555  22.097  0.00  0.00    +0.000 HD
ENDROOT
BRANCH   1   9
ATOM      5  C   UNL     1      -0.827  12.574  20.698  0.00  0.00    +0.000 A 
ATOM      6  O   UNL     1      -0.143  13.525  20.009  0.00  0.00    +0.000 OA
ATOM      7  C   UNL     1       1.156  13.267  20.362  0.00  0.00    +0.000 A 
ATOM      8  N   UNL     1       1.360  12.248  21.172  0.00  0.00    +0.000 NA
ATOM      9  C   UNL     1       0.066  11.805  21.435  0.00  0.00    +0.000 A 
BRANCH   5  15
ATOM     10  C   UNL     1      -4.861  11.765  17.900  0.00  0.00    +0.000 C 
ATOM     11  C   UNL     1      -4.262  12.200  19.204  0.00  0.00    +0.000 A 
ATOM     12  C   UNL     1      -5.053  12.734  20.221  0.00  0.00    +0.000 A 
ATOM     13  C   UNL     1      -4.467  13.175  21.409  0.00  0.00    +0.000 A 
ATOM     14  C   UNL     1      -3.084  13.087  21.596  0.00  0.00    +0.000 A 
ATOM     15  C   UNL     1      -2.275  12.542  20.598  0.00  0.00    +0.000 A 
ATOM     16  C   UNL     1      -2.879  12.101  19.405  0.00  0.00    +0.000 A 
ENDBRANCH   5  15
ENDBRANCH   1   9
BRANCH   3  17
ATOM     17  C   UNL     1       0.426   9.312  20.354  0.00  0.00    +0.000 A 
ATOM     18  C   UNL     1      -0.071   9.850  19.148  0.00  0.00    +0.000 A 
ATOM     19  N   UNL     1       0.694   9.539  18.094  0.00  0.00    +0.000 NA
ATOM     20  N   UNL     1       1.655   8.757  18.619  0.00  0.00    +0.000 N 
ATOM     21  C   UNL     1       1.546   8.619  19.976  0.00  0.00    +0.000 A 
BRANCH  20  22
ATOM     22  C   UNL     1       2.636   8.157  17.738  0.00  0.00    +0.000 C 
BRANCH  22  23
ATOM     23  C   UNL     1       3.554   7.225  18.446  0.00  0.00    +0.000 C 
BRANCH  23  24
ATOM     24  N   UNL     1       3.394   5.796  18.151  0.00  0.00    +0.000 N 
ATOM     25  C   UNL     1       4.193   5.259  17.125  0.00  0.00    +0.000 A 
ATOM     26  C   UNL     1       3.809   3.970  16.876  0.00  0.00    +0.000 A 
ATOM     27  C   UNL     1       2.820   3.674  17.852  0.00  0.00    +0.000 A 
ATOM     28  C   UNL     1       2.113   2.505  18.031  0.00  0.00    +0.000 A 
ATOM     29  C   UNL     1       1.001   2.542  18.916  0.00  0.00    +0.000 A 
ATOM     30  C   UNL     1       0.789   3.268  20.108  0.00  0.00    +0.000 A 
ATOM     31  C   UNL     1       1.533   4.470  19.830  0.00  0.00    +0.000 A 
ATOM     32  C   UNL     1       2.570   4.758  18.705  0.00  0.00    +0.000 A 
ENDBRANCH  23  24
ENDBRANCH  22  23
ENDBRANCH  20  22
ENDBRANCH   3  17
TORSDOF 6
ENDMDL
MODEL 9
REMARK VINA RESULT:      -7.8      4.010     10.530
REMARK  Name = 
REMARK  7 active torsions:
REMARK  status: ('A' for Active; 'I' for Inactive)
REMARK    1  A    between atoms: C_1  and  C_2
REMARK    2  A    between atoms: C_6  and  C_7
REMARK    3  A    between atoms: C_11  and  C_12
REMARK    4  A    between atoms: N_14  and  C_15
REMARK    5  A    between atoms: N_18  and  C_19
REMARK    6  A    between atoms: C_19  and  C_20
REMARK    7  A    between atoms: C_20  and  N_21
REMARK                            x       y       z     vdW  Elec       q    Type
REMARK                         _______ _______ _______ _____ _____    ______ ____
ROOT
ATOM      1  C   UNL     1       6.622   4.468  17.206  0.00  0.00    +0.000 C 
ATOM      2  O   UNL     1       7.823   4.346  16.972  0.00  0.00    +0.000 OA
ATOM      3  N   UNL     1       5.924   3.488  17.895  0.00  0.00    +0.000 N 
ATOM      4  H   UNL     1       6.430   2.751  18.367  0.00  0.00    +0.000 HD
ENDROOT
BRANCH   1   9
ATOM      5  C   UNL     1       5.702   5.900  15.347  0.00  0.00    +0.000 A 
ATOM      6  O   UNL     1       5.018   7.067  15.218  0.00  0.00    +0.000 OA
ATOM      7  C   UNL     1       4.798   7.425  16.523  0.00  0.00    +0.000 A 
ATOM      8  N   UNL     1       5.289   6.627  17.449  0.00  0.00    +0.000 NA
ATOM      9  C   UNL     1       5.852   5.599  16.696  0.00  0.00    +0.000 A 
BRANCH   5  15
ATOM     10  C   UNL     1       4.482   2.737  11.706  0.00  0.00    +0.000 C 
ATOM     11  C   UNL     1       5.516   3.581  12.389  0.00  0.00    +0.000 A 
ATOM     12  C   UNL     1       6.855   3.536  12.001  0.00  0.00    +0.000 A 
ATOM     13  C   UNL     1       7.809   4.297  12.681  0.00  0.00    +0.000 A 
ATOM     14  C   UNL     1       7.436   5.112  13.755  0.00  0.00    +0.000 A 
ATOM     15  C   UNL     1       6.099   5.184  14.148  0.00  0.00    +0.000 A 
ATOM     16  C   UNL     1       5.148   4.412  13.454  0.00  0.00    +0.000 A 
ENDBRANCH   5  15
ENDBRANCH   1   9
BRANCH   3  17
ATOM     17  C   UNL     1       4.571   3.656  18.144  0.00  0.00    +0.000 A 
ATOM     18  C   UNL     1       3.454   3.478  17.301  0.00  0.00    +0.000 A 
ATOM     19  N   UNL     1       2.298   3.757  17.917  0.00  0.00    +0.000 NA
ATOM     20  N   UNL     1       2.681   4.165  19.141  0.00  0.00    +0.000 N 
ATOM     21  C   UNL     1       4.035   4.092  19.327  0.00  0.00    +0.000 A 
BRANCH  20  22
ATOM     22  C   UNL     1       1.676   4.634  20.074  0.00  0.00    +0.000 C 
BRANCH  22  23
ATOM     23  C   UNL     1       2.122   5.821  20.853  0.00  0.00    +0.000 C 
BRANCH  23  24
ATOM     24  N   UNL     1       1.753   7.135  20.314  0.00  0.00    +0.000 N 
ATOM     25  C   UNL     1       2.148   7.420  18.993  0.00  0.00    +0.000 A 
ATOM     26  C   UNL     1       1.866   8.728  18.706  0.00  0.00    +0.000 A 
ATOM     27  C   UNL     1       1.181   9.227  19.846  0.00  0.00    +0.000 A 
ATOM     28  C   UNL     1       0.684  10.494  20.063  0.00  0.00    +0.000 A 
ATOM     29  C   UNL     1       0.263  10.814  21.383  0.00  0.00    +0.000 A 
ATOM     30  C   UNL     1      -0.345  10.022  22.379  0.00  0.00    +0.000 A 
ATOM     31  C   UNL     1       0.240   8.735  22.099  0.00  0.00    +0.000 A 
ATOM     32  C   UNL     1       1.033   8.258  20.848  0.00  0.00    +0.000 A 
ENDBRANCH  23  24
ENDBRANCH  22  23
ENDBRANCH  20  22
ENDBRANCH   3  17
TORSDOF 6
ENDMDL
