MODEL 1
REMARK VINA RESULT:      -6.9      0.000      0.000
REMARK  Name = 
REMARK  5 active torsions:
REMARK  status: ('A' for Active; 'I' for Inactive)
REMARK    1  A    between atoms: C_1  and  N_2
REMARK    2  A    between atoms: C_6  and  S_7
REMARK    3  A    between atoms: S_7  and  C_8
REMARK    4  A    between atoms: C_8  and  C_9
REMARK    5  A    between atoms: N_11  and  C_12
REMARK                            x       y       z     vdW  Elec       q    Type
REMARK                         _______ _______ _______ _____ _____    ______ ____
ROOT
ATOM      1  C   UNL     1       2.468   4.869  19.650  0.00  0.00    +0.000 C 
ATOM      2  O   UNL     1       1.338   4.583  19.256  0.00  0.00    +0.000 OA
ATOM      3  N   UNL     1       2.963   6.153  19.832  0.00  0.00    +0.000 N 
ATOM      4  H   UNL     1       3.981   6.223  19.884  0.00  0.00    +0.000 HD
ENDROOT
BRANCH   3   5
ATOM      5  C   UNL     1       2.246   7.350  19.616  0.00  0.00    +0.000 A 
ATOM      6  C   UNL     1       2.239   8.020  18.378  0.00  0.00    +0.000 A 
ATOM      7  C   UNL     1       1.590   9.248  18.222  0.00  0.00    +0.000 A 
ATOM      8  C   UNL     1       0.949   9.774  19.323  0.00  0.00    +0.000 A 
ATOM      9  C   UNL     1       0.910   9.121  20.538  0.00  0.00    +0.000 A 
ATOM     10  C   UNL     1       1.537   7.893  20.701  0.00  0.00    +0.000 A 
ATOM     11  C   UNL     1       0.175   9.959  21.506  0.00  0.00    +0.000 C 
ATOM     12  O   UNL     1      -0.200  11.118  20.731  0.00  0.00    +0.000 OA
ATOM     13  C   UNL     1       0.244  11.044  19.440  0.00  0.00    +0.000 C 
ATOM     14  O   UNL     1       0.090  11.873  18.570  0.00  0.00    +0.000 OA
ENDBRANCH   3   5
BRANCH   1  15
ATOM     15  C   UNL     1       3.476   3.773  19.943  0.00  0.00    +0.000 C 
BRANCH  15  16
ATOM     16  S   UNL     1       4.364   3.313  18.430  0.00  0.00    +0.000 S 
BRANCH  16  22
ATOM     17  C   UNL     1       6.331   4.176  16.054  0.00  0.00    +0.000 C 
ATOM     18  N   UNL     1       6.503   4.656  17.404  0.00  0.00    +0.000 N 
ATOM     19  C   UNL     1       7.499   5.499  17.823  0.00  0.00    +0.000 A 
ATOM     20  C   UNL     1       7.264   5.695  19.163  0.00  0.00    +0.000 A 
ATOM     21  N   UNL     1       6.132   5.030  19.565  0.00  0.00    +0.000 NA
ATOM     22  C   UNL     1       5.721   4.383  18.495  0.00  0.00    +0.000 A 
ENDBRANCH  16  22
ENDBRANCH  15  16
ENDBRANCH   1  15
TORSDOF 4
ENDMDL
MODEL 2
REMARK VINA RESULT:      -6.9      3.374      6.810
REMARK  Name = 
REMARK  5 active torsions:
REMARK  status: ('A' for Active; 'I' for Inactive)
REMARK    1  A    between atoms: C_1  and  N_2
REMARK    2  A    between atoms: C_6  and  S_7
REMARK    3  A    between atoms: S_7  and  C_8
REMARK    4  A    between atoms: C_8  and  C_9
REMARK    5  A    between atoms: N_11  and  C_12
REMARK                            x       y       z     vdW  Elec       q    Type
REMARK                         _______ _______ _______ _____ _____    ______ ____
ROOT
ATOM      1  C   UNL     1       3.102   6.013  19.001  0.00  0.00    +0.000 C 
ATOM      2  O   UNL     1       2.612   6.697  18.103  0.00  0.00    +0.000 OA
ATOM      3  N   UNL     1       4.298   5.313  18.928  0.00  0.00    +0.000 N 
ATOM      4  H   UNL     1       4.418   4.583  19.632  0.00  0.00    +0.000 HD
ENDROOT
BRANCH   3   5
ATOM      5  C   UNL     1       5.168   5.284  17.816  0.00  0.00    +0.000 A 
ATOM      6  C   UNL     1       6.334   6.070  17.742  0.00  0.00    +0.000 A 
ATOM      7  C   UNL     1       7.128   6.083  16.592  0.00  0.00    +0.000 A 
ATOM      8  C   UNL     1       6.731   5.291  15.535  0.00  0.00    +0.000 A 
ATOM      9  C   UNL     1       5.612   4.484  15.595  0.00  0.00    +0.000 A 
ATOM     10  C   UNL     1       4.826   4.450  16.739  0.00  0.00    +0.000 A 
ATOM     11  C   UNL     1       5.453   3.793  14.301  0.00  0.00    +0.000 C 
ATOM     12  O   UNL     1       6.575   4.269  13.525  0.00  0.00    +0.000 OA
ATOM     13  C   UNL     1       7.347   5.157  14.222  0.00  0.00    +0.000 C 
ATOM     14  O   UNL     1       8.340   5.726  13.823  0.00  0.00    +0.000 OA
ENDBRANCH   3   5
BRANCH   1  15
ATOM     15  C   UNL     1       2.368   5.842  20.319  0.00  0.00    +0.000 C 
BRANCH  15  16
ATOM     16  S   UNL     1       1.016   4.647  20.136  0.00  0.00    +0.000 S 
BRANCH  16  22
ATOM     17  C   UNL     1       3.041   2.410  21.211  0.00  0.00    +0.000 C 
ATOM     18  N   UNL     1       2.665   2.499  19.820  0.00  0.00    +0.000 N 
ATOM     19  C   UNL     1       3.122   1.677  18.824  0.00  0.00    +0.000 A 
ATOM     20  C   UNL     1       2.495   2.115  17.681  0.00  0.00    +0.000 A 
ATOM     21  N   UNL     1       1.640   3.153  17.958  0.00  0.00    +0.000 NA
ATOM     22  C   UNL     1       1.796   3.387  19.244  0.00  0.00    +0.000 A 
ENDBRANCH  16  22
ENDBRANCH  15  16
ENDBRANCH   1  15
TORSDOF 4
ENDMDL
MODEL 3
REMARK VINA RESULT:      -6.7      3.478      6.544
REMARK  Name = 
REMARK  5 active torsions:
REMARK  status: ('A' for Active; 'I' for Inactive)
REMARK    1  A    between atoms: C_1  and  N_2
REMARK    2  A    between atoms: C_6  and  S_7
REMARK    3  A    between atoms: S_7  and  C_8
REMARK    4  A    between atoms: C_8  and  C_9
REMARK    5  A    between atoms: N_11  and  C_12
REMARK                            x       y       z     vdW  Elec       q    Type
REMARK                         _______ _______ _______ _____ _____    ______ ____
ROOT
ATOM      1  C   UNL     1       2.890   5.582  19.128  0.00  0.00    +0.000 C 
ATOM      2  O   UNL     1       2.192   5.576  18.114  0.00  0.00    +0.000 OA
ATOM      3  N   UNL     1       4.275   5.499  19.160  0.00  0.00    +0.000 N 
ATOM      4  H   UNL     1       4.673   5.233  20.063  0.00  0.00    +0.000 HD
ENDROOT
BRANCH   3   5
ATOM      5  C   UNL     1       5.121   5.415  18.033  0.00  0.00    +0.000 A 
ATOM      6  C   UNL     1       6.279   6.202  17.891  0.00  0.00    +0.000 A 
ATOM      7  C   UNL     1       7.048   6.157  16.725  0.00  0.00    +0.000 A 
ATOM      8  C   UNL     1       6.635   5.305  15.722  0.00  0.00    +0.000 A 
ATOM      9  C   UNL     1       5.524   4.497  15.851  0.00  0.00    +0.000 A 
ATOM     10  C   UNL     1       4.762   4.521  17.011  0.00  0.00    +0.000 A 
ATOM     11  C   UNL     1       5.342   3.735  14.599  0.00  0.00    +0.000 C 
ATOM     12  O   UNL     1       6.444   4.175  13.775  0.00  0.00    +0.000 OA
ATOM     13  C   UNL     1       7.224   5.104  14.405  0.00  0.00    +0.000 C 
ATOM     14  O   UNL     1       8.204   5.656  13.954  0.00  0.00    +0.000 OA
ENDBRANCH   3   5
BRANCH   1  15
ATOM     15  C   UNL     1       2.244   5.643  20.500  0.00  0.00    +0.000 C 
BRANCH  15  16
ATOM     16  S   UNL     1       1.595   4.014  20.964  0.00  0.00    +0.000 S 
BRANCH  16  22
ATOM     17  C   UNL     1       1.123   2.228  18.347  0.00  0.00    +0.000 C 
ATOM     18  N   UNL     1       2.380   2.231  19.057  0.00  0.00    +0.000 N 
ATOM     19  C   UNL     1       3.481   1.489  18.718  0.00  0.00    +0.000 A 
ATOM     20  C   UNL     1       4.436   1.816  19.651  0.00  0.00    +0.000 A 
ATOM     21  N   UNL     1       3.964   2.766  20.523  0.00  0.00    +0.000 NA
ATOM     22  C   UNL     1       2.713   2.964  20.164  0.00  0.00    +0.000 A 
ENDBRANCH  16  22
ENDBRANCH  15  16
ENDBRANCH   1  15
TORSDOF 4
ENDMDL
MODEL 4
REMARK VINA RESULT:      -6.7      1.990      3.285
REMARK  Name = 
REMARK  5 active torsions:
REMARK  status: ('A' for Active; 'I' for Inactive)
REMARK    1  A    between atoms: C_1  and  N_2
REMARK    2  A    between atoms: C_6  and  S_7
REMARK    3  A    between atoms: S_7  and  C_8
REMARK    4  A    between atoms: C_8  and  C_9
REMARK    5  A    between atoms: N_11  and  C_12
REMARK                            x       y       z     vdW  Elec       q    Type
REMARK                         _______ _______ _______ _____ _____    ______ ____
ROOT
ATOM      1  C   UNL     1       2.989   4.990  17.843  0.00  0.00    +0.000 C 
ATOM      2  O   UNL     1       1.860   4.758  17.413  0.00  0.00    +0.000 OA
ATOM      3  N   UNL     1       3.388   6.152  18.489  0.00  0.00    +0.000 N 
ATOM      4  H   UNL     1       4.398   6.305  18.525  0.00  0.00    +0.000 HD
ENDROOT
BRANCH   3   5
ATOM      5  C   UNL     1       2.559   7.257  18.783  0.00  0.00    +0.000 A 
ATOM      6  C   UNL     1       2.246   8.246  17.832  0.00  0.00    +0.000 A 
ATOM      7  C   UNL     1       1.493   9.372  18.178  0.00  0.00    +0.000 A 
ATOM      8  C   UNL     1       1.062   9.473  19.484  0.00  0.00    +0.000 A 
ATOM      9  C   UNL     1       1.325   8.499  20.426  0.00  0.00    +0.000 A 
ATOM     10  C   UNL     1       2.056   7.368  20.089  0.00  0.00    +0.000 A 
ATOM     11  C   UNL     1       0.751   8.921  21.719  0.00  0.00    +0.000 C 
ATOM     12  O   UNL     1       0.142  10.195  21.417  0.00  0.00    +0.000 OA
ATOM     13  C   UNL     1       0.310  10.553  20.108  0.00  0.00    +0.000 C 
ATOM     14  O   UNL     1      -0.082  11.569  19.577  0.00  0.00    +0.000 OA
ENDBRANCH   3   5
BRANCH   1  15
ATOM     15  C   UNL     1       4.105   3.979  17.648  0.00  0.00    +0.000 C 
BRANCH  15  16
ATOM     16  S   UNL     1       3.495   2.300  17.963  0.00  0.00    +0.000 S 
BRANCH  16  22
ATOM     17  C   UNL     1       0.434   2.201  18.899  0.00  0.00    +0.000 C 
ATOM     18  N   UNL     1       1.513   2.427  19.831  0.00  0.00    +0.000 N 
ATOM     19  C   UNL     1       1.365   2.632  21.177  0.00  0.00    +0.000 A 
ATOM     20  C   UNL     1       2.644   2.786  21.659  0.00  0.00    +0.000 A 
ATOM     21  N   UNL     1       3.568   2.640  20.654  0.00  0.00    +0.000 NA
ATOM     22  C   UNL     1       2.855   2.466  19.561  0.00  0.00    +0.000 A 
ENDBRANCH  16  22
ENDBRANCH  15  16
ENDBRANCH   1  15
TORSDOF 4
ENDMDL
MODEL 5
REMARK VINA RESULT:      -6.7      2.295      3.278
REMARK  Name = 
REMARK  5 active torsions:
REMARK  status: ('A' for Active; 'I' for Inactive)
REMARK    1  A    between atoms: C_1  and  N_2
REMARK    2  A    between atoms: C_6  and  S_7
REMARK    3  A    between atoms: S_7  and  C_8
REMARK    4  A    between atoms: C_8  and  C_9
REMARK    5  A    between atoms: N_11  and  C_12
REMARK                            x       y       z     vdW  Elec       q    Type
REMARK                         _______ _______ _______ _____ _____    ______ ____
ROOT
ATOM      1  C   UNL     1       2.432   4.892  17.711  0.00  0.00    +0.000 C 
ATOM      2  O   UNL     1       1.241   4.804  17.414  0.00  0.00    +0.000 OA
ATOM      3  N   UNL     1       3.037   5.979  18.325  0.00  0.00    +0.000 N 
ATOM      4  H   UNL     1       4.055   6.014  18.243  0.00  0.00    +0.000 HD
ENDROOT
BRANCH   3   5
ATOM      5  C   UNL     1       2.384   7.163  18.733  0.00  0.00    +0.000 A 
ATOM      6  C   UNL     1       2.121   8.229  17.853  0.00  0.00    +0.000 A 
ATOM      7  C   UNL     1       1.550   9.421  18.307  0.00  0.00    +0.000 A 
ATOM      8  C   UNL     1       1.246   9.510  19.649  0.00  0.00    +0.000 A 
ATOM      9  C   UNL     1       1.461   8.467  20.527  0.00  0.00    +0.000 A 
ATOM     10  C   UNL     1       2.011   7.272  20.083  0.00  0.00    +0.000 A 
ATOM     11  C   UNL     1       1.057   8.893  21.881  0.00  0.00    +0.000 C 
ATOM     12  O   UNL     1       0.591  10.246  21.683  0.00  0.00    +0.000 OA
ATOM     13  C   UNL     1       0.693  10.643  20.379  0.00  0.00    +0.000 C 
ATOM     14  O   UNL     1       0.392  11.725  19.923  0.00  0.00    +0.000 OA
ENDBRANCH   3   5
BRANCH   1  15
ATOM     15  C   UNL     1       3.391   3.765  17.369  0.00  0.00    +0.000 C 
BRANCH  15  16
ATOM     16  S   UNL     1       2.682   2.167  17.850  0.00  0.00    +0.000 S 
BRANCH  16  22
ATOM     17  C   UNL     1       4.657   2.211  20.371  0.00  0.00    +0.000 C 
ATOM     18  N   UNL     1       3.236   2.423  20.507  0.00  0.00    +0.000 N 
ATOM     19  C   UNL     1       2.580   2.649  21.689  0.00  0.00    +0.000 A 
ATOM     20  C   UNL     1       1.259   2.808  21.342  0.00  0.00    +0.000 A 
ATOM     21  N   UNL     1       1.097   2.726  19.980  0.00  0.00    +0.000 NA
ATOM     22  C   UNL     1       2.296   2.454  19.512  0.00  0.00    +0.000 A 
ENDBRANCH  16  22
ENDBRANCH  15  16
ENDBRANCH   1  15
TORSDOF 4
ENDMDL
MODEL 6
REMARK VINA RESULT:      -6.5      2.115      3.523
REMARK  Name = 
REMARK  5 active torsions:
REMARK  status: ('A' for Active; 'I' for Inactive)
REMARK    1  A    between atoms: C_1  and  N_2
REMARK    2  A    between atoms: C_6  and  S_7
REMARK    3  A    between atoms: S_7  and  C_8
REMARK    4  A    between atoms: C_8  and  C_9
REMARK    5  A    between atoms: N_11  and  C_12
REMARK                            x       y       z     vdW  Elec       q    Type
REMARK                         _______ _______ _______ _____ _____    ______ ____
ROOT
ATOM      1  C   UNL     1       4.019   5.207  18.510  0.00  0.00    +0.000 C 
ATOM      2  O   UNL     1       4.788   5.491  19.428  0.00  0.00    +0.000 OA
ATOM      3  N   UNL     1       2.831   5.862  18.215  0.00  0.00    +0.000 N 
ATOM      4  H   UNL     1       2.184   5.340  17.621  0.00  0.00    +0.000 HD
ENDROOT
BRANCH   3   5
ATOM      5  C   UNL     1       2.312   6.977  18.907  0.00  0.00    +0.000 A 
ATOM      6  C   UNL     1       1.978   6.937  20.274  0.00  0.00    +0.000 A 
ATOM      7  C   UNL     1       1.386   8.033  20.908  0.00  0.00    +0.000 A 
ATOM      8  C   UNL     1       1.150   9.158  20.147  0.00  0.00    +0.000 A 
ATOM      9  C   UNL     1       1.501   9.236  18.815  0.00  0.00    +0.000 A 
ATOM     10  C   UNL     1       2.105   8.160  18.179  0.00  0.00    +0.000 A 
ATOM     11  C   UNL     1       1.090  10.554  18.291  0.00  0.00    +0.000 C 
ATOM     12  O   UNL     1       0.496  11.202  19.437  0.00  0.00    +0.000 OA
ATOM     13  C   UNL     1       0.512  10.405  20.548  0.00  0.00    +0.000 C 
ATOM     14  O   UNL     1       0.074  10.679  21.645  0.00  0.00    +0.000 OA
ENDBRANCH   3   5
BRANCH   1  15
ATOM     15  C   UNL     1       4.313   4.025  17.604  0.00  0.00    +0.000 C 
BRANCH  15  16
ATOM     16  S   UNL     1       2.934   2.846  17.640  0.00  0.00    +0.000 S 
BRANCH  16  22
ATOM     17  C   UNL     1       4.524   1.935  20.267  0.00  0.00    +0.000 C 
ATOM     18  N   UNL     1       3.202   2.511  20.332  0.00  0.00    +0.000 N 
ATOM     19  C   UNL     1       2.486   2.719  21.482  0.00  0.00    +0.000 A 
ATOM     20  C   UNL     1       1.306   3.293  21.072  0.00  0.00    +0.000 A 
ATOM     21  N   UNL     1       1.298   3.478  19.711  0.00  0.00    +0.000 NA
ATOM     22  C   UNL     1       2.434   2.961  19.292  0.00  0.00    +0.000 A 
ENDBRANCH  16  22
ENDBRANCH  15  16
ENDBRANCH   1  15
TORSDOF 4
ENDMDL
MODEL 7
REMARK VINA RESULT:      -6.5      1.095      1.611
REMARK  Name = 
REMARK  5 active torsions:
REMARK  status: ('A' for Active; 'I' for Inactive)
REMARK    1  A    between atoms: C_1  and  N_2
REMARK    2  A    between atoms: C_6  and  S_7
REMARK    3  A    between atoms: S_7  and  C_8
REMARK    4  A    between atoms: C_8  and  C_9
REMARK    5  A    between atoms: N_11  and  C_12
REMARK                            x       y       z     vdW  Elec       q    Type
REMARK                         _______ _______ _______ _____ _____    ______ ____
ROOT
ATOM      1  C   UNL     1       2.701   5.024  19.380  0.00  0.00    +0.000 C 
ATOM      2  O   UNL     1       1.560   4.635  19.133  0.00  0.00    +0.000 OA
ATOM      3  N   UNL     1       3.077   6.340  19.616  0.00  0.00    +0.000 N 
ATOM      4  H   UNL     1       4.076   6.530  19.521  0.00  0.00    +0.000 HD
ENDROOT
BRANCH   3   5
ATOM      5  C   UNL     1       2.209   7.453  19.636  0.00  0.00    +0.000 A 
ATOM      6  C   UNL     1       2.043   8.308  18.530  0.00  0.00    +0.000 A 
ATOM      7  C   UNL     1       1.242   9.450  18.610  0.00  0.00    +0.000 A 
ATOM      8  C   UNL     1       0.613   9.703  19.810  0.00  0.00    +0.000 A 
ATOM      9  C   UNL     1       0.730   8.863  20.898  0.00  0.00    +0.000 A 
ATOM     10  C   UNL     1       1.509   7.716  20.825  0.00  0.00    +0.000 A 
ATOM     11  C   UNL     1      -0.039   9.430  22.023  0.00  0.00    +0.000 C 
ATOM     12  O   UNL     1      -0.599  10.642  21.472  0.00  0.00    +0.000 OA
ATOM     13  C   UNL     1      -0.231  10.836  20.169  0.00  0.00    +0.000 C 
ATOM     14  O   UNL     1      -0.539  11.768  19.458  0.00  0.00    +0.000 OA
ENDBRANCH   3   5
BRANCH   1  15
ATOM     15  C   UNL     1       3.857   4.040  19.403  0.00  0.00    +0.000 C 
BRANCH  15  16
ATOM     16  S   UNL     1       5.437   4.920  19.268  0.00  0.00    +0.000 S 
BRANCH  16  22
ATOM     17  C   UNL     1       7.458   6.617  17.453  0.00  0.00    +0.000 C 
ATOM     18  N   UNL     1       6.665   5.538  16.914  0.00  0.00    +0.000 N 
ATOM     19  C   UNL     1       6.670   5.131  15.606  0.00  0.00    +0.000 A 
ATOM     20  C   UNL     1       5.787   4.078  15.554  0.00  0.00    +0.000 A 
ATOM     21  N   UNL     1       5.274   3.807  16.799  0.00  0.00    +0.000 NA
ATOM     22  C   UNL     1       5.791   4.726  17.586  0.00  0.00    +0.000 A 
ENDBRANCH  16  22
ENDBRANCH  15  16
ENDBRANCH   1  15
TORSDOF 4
ENDMDL
MODEL 8
REMARK VINA RESULT:      -6.5      1.988      3.364
REMARK  Name = 
REMARK  5 active torsions:
REMARK  status: ('A' for Active; 'I' for Inactive)
REMARK    1  A    between atoms: C_1  and  N_2
REMARK    2  A    between atoms: C_6  and  S_7
REMARK    3  A    between atoms: S_7  and  C_8
REMARK    4  A    between atoms: C_8  and  C_9
REMARK    5  A    between atoms: N_11  and  C_12
REMARK                            x       y       z     vdW  Elec       q    Type
REMARK                         _______ _______ _______ _____ _____    ______ ____
ROOT
ATOM      1  C   UNL     1       4.446   5.157  18.696  0.00  0.00    +0.000 C 
ATOM      2  O   UNL     1       5.008   5.617  19.690  0.00  0.00    +0.000 OA
ATOM      3  N   UNL     1       3.319   5.687  18.084  0.00  0.00    +0.000 N 
ATOM      4  H   UNL     1       2.819   5.047  17.464  0.00  0.00    +0.000 HD
ENDROOT
BRANCH   3   5
ATOM      5  C   UNL     1       2.637   6.856  18.486  0.00  0.00    +0.000 A 
ATOM      6  C   UNL     1       2.429   7.950  17.624  0.00  0.00    +0.000 A 
ATOM      7  C   UNL     1       1.827   9.126  18.077  0.00  0.00    +0.000 A 
ATOM      8  C   UNL     1       1.435   9.173  19.398  0.00  0.00    +0.000 A 
ATOM      9  C   UNL     1       1.595   8.102  20.255  0.00  0.00    +0.000 A 
ATOM     10  C   UNL     1       2.176   6.923  19.811  0.00  0.00    +0.000 A 
ATOM     11  C   UNL     1       1.102   8.485  21.593  0.00  0.00    +0.000 C 
ATOM     12  O   UNL     1       0.647   9.844  21.408  0.00  0.00    +0.000 OA
ATOM     13  C   UNL     1       0.833  10.282  20.126  0.00  0.00    +0.000 C 
ATOM     14  O   UNL     1       0.558  11.378  19.686  0.00  0.00    +0.000 OA
ENDBRANCH   3   5
BRANCH   1  15
ATOM     15  C   UNL     1       4.952   3.878  18.054  0.00  0.00    +0.000 C 
BRANCH  15  16
ATOM     16  S   UNL     1       3.594   2.691  17.860  0.00  0.00    +0.000 S 
BRANCH  16  22
ATOM     17  C   UNL     1       0.528   2.785  18.781  0.00  0.00    +0.000 C 
ATOM     18  N   UNL     1       1.612   2.713  19.732  0.00  0.00    +0.000 N 
ATOM     19  C   UNL     1       1.469   2.690  21.094  0.00  0.00    +0.000 A 
ATOM     20  C   UNL     1       2.749   2.604  21.588  0.00  0.00    +0.000 A 
ATOM     21  N   UNL     1       3.665   2.533  20.567  0.00  0.00    +0.000 NA
ATOM     22  C   UNL     1       2.954   2.642  19.466  0.00  0.00    +0.000 A 
ENDBRANCH  16  22
ENDBRANCH  15  16
ENDBRANCH   1  15
TORSDOF 4
ENDMDL
MODEL 9
REMARK VINA RESULT:      -6.5      2.005      2.973
REMARK  Name = 
REMARK  5 active torsions:
REMARK  status: ('A' for Active; 'I' for Inactive)
REMARK    1  A    between atoms: C_1  and  N_2
REMARK    2  A    between atoms: C_6  and  S_7
REMARK    3  A    between atoms: S_7  and  C_8
REMARK    4  A    between atoms: C_8  and  C_9
REMARK    5  A    between atoms: N_11  and  C_12
REMARK                            x       y       z     vdW  Elec       q    Type
REMARK                         _______ _______ _______ _____ _____    ______ ____
ROOT
ATOM      1  C   UNL     1       2.940   5.723  17.923  0.00  0.00    +0.000 C 
ATOM      2  O   UNL     1       1.828   5.256  17.681  0.00  0.00    +0.000 OA
ATOM      3  N   UNL     1       3.194   6.979  18.457  0.00  0.00    +0.000 N 
ATOM      4  H   UNL     1       4.149   7.320  18.330  0.00  0.00    +0.000 HD
ENDROOT
BRANCH   3   5
ATOM      5  C   UNL     1       2.218   7.926  18.834  0.00  0.00    +0.000 A 
ATOM      6  C   UNL     1       1.703   8.885  17.941  0.00  0.00    +0.000 A 
ATOM      7  C   UNL     1       0.801   9.863  18.368  0.00  0.00    +0.000 A 
ATOM      8  C   UNL     1       0.427   9.848  19.695  0.00  0.00    +0.000 A 
ATOM      9  C   UNL     1       0.888   8.897  20.583  0.00  0.00    +0.000 A 
ATOM     10  C   UNL     1       1.771   7.911  20.165  0.00  0.00    +0.000 A 
ATOM     11  C   UNL     1       0.323   9.178  21.917  0.00  0.00    +0.000 C 
ATOM     12  O   UNL     1      -0.496  10.347  21.697  0.00  0.00    +0.000 OA
ATOM     13  C   UNL     1      -0.454  10.772  20.398  0.00  0.00    +0.000 C 
ATOM     14  O   UNL     1      -1.028  11.730  19.928  0.00  0.00    +0.000 OA
ENDBRANCH   3   5
BRANCH   1  15
ATOM     15  C   UNL     1       4.192   4.928  17.595  0.00  0.00    +0.000 C 
BRANCH  15  16
ATOM     16  S   UNL     1       4.878   4.186  19.101  0.00  0.00    +0.000 S 
BRANCH  16  22
ATOM     17  C   UNL     1       3.181   1.543  18.473  0.00  0.00    +0.000 C 
ATOM     18  N   UNL     1       2.794   2.476  19.505  0.00  0.00    +0.000 N 
ATOM     19  C   UNL     1       1.687   2.356  20.303  0.00  0.00    +0.000 A 
ATOM     20  C   UNL     1       1.726   3.449  21.137  0.00  0.00    +0.000 A 
ATOM     21  N   UNL     1       2.845   4.208  20.898  0.00  0.00    +0.000 NA
ATOM     22  C   UNL     1       3.444   3.620  19.885  0.00  0.00    +0.000 A 
ENDBRANCH  16  22
ENDBRANCH  15  16
ENDBRANCH   1  15
TORSDOF 4
ENDMDL
