MODEL 1
REMARK VINA RESULT:      -4.7      0.000      0.000
REMARK  Name = 
REMARK  2 active torsions:
REMARK  status: ('A' for Active; 'I' for Inactive)
REMARK    1  A    between atoms: N_1  and  C_2
REMARK    2  A    between atoms: C_2  and  C_4
REMARK                            x       y       z     vdW  Elec       q    Type
REMARK                         _______ _______ _______ _____ _____    ______ ____
ROOT
ATOM      1  C   UNL     1       3.198   3.598  18.858  0.00  0.00    +0.000 A 
ATOM      2  C   UNL     1       2.907   4.248  20.069  0.00  0.00    +0.000 A 
ATOM      3  C   UNL     1       1.672   4.059  20.693  0.00  0.00    +0.000 A 
ATOM      4  C   UNL     1       0.715   3.228  20.114  0.00  0.00    +0.000 A 
ATOM      5  C   UNL     1       0.991   2.585  18.908  0.00  0.00    +0.000 A 
ATOM      6  C   UNL     1       2.226   2.768  18.283  0.00  0.00    +0.000 A 
ENDROOT
BRANCH   1   7
ATOM      7  C   UNL     1       4.524   3.794  18.203  0.00  0.00    +0.000 C 
ATOM      8  S   UNL     1       4.770   4.160  16.589  0.00  0.00    +0.000 S 
BRANCH   7   9
ATOM      9  N   UNL     1       5.631   3.648  18.999  0.00  0.00    +0.000 N 
ATOM     10  H   UNL     1       6.545   3.790  18.582  0.00  0.00    +0.000 HD
ATOM     11  H   UNL     1       5.603   3.257  19.932  0.00  0.00    +0.000 HD
ENDBRANCH   7   9
ENDBRANCH   1   7
TORSDOF 2
ENDMDL
MODEL 2
REMARK VINA RESULT:      -4.7      0.045      1.611
REMARK  Name = 
REMARK  2 active torsions:
REMARK  status: ('A' for Active; 'I' for Inactive)
REMARK    1  A    between atoms: N_1  and  C_2
REMARK    2  A    between atoms: C_2  and  C_4
REMARK                            x       y       z     vdW  Elec       q    Type
REMARK                         _______ _______ _______ _____ _____    ______ ____
ROOT
ATOM      1  C   UNL     1       3.189   3.607  18.904  0.00  0.00    +0.000 A 
ATOM      2  C   UNL     1       2.223   2.764  18.330  0.00  0.00    +0.000 A 
ATOM      3  C   UNL     1       0.978   2.600  18.939  0.00  0.00    +0.000 A 
ATOM      4  C   UNL     1       0.686   3.266  20.127  0.00  0.00    +0.000 A 
ATOM      5  C   UNL     1       1.641   4.099  20.710  0.00  0.00    +0.000 A 
ATOM      6  C   UNL     1       2.886   4.270  20.101  0.00  0.00    +0.000 A 
ENDROOT
BRANCH   1   7
ATOM      7  C   UNL     1       4.514   3.789  18.242  0.00  0.00    +0.000 C 
ATOM      8  S   UNL     1       4.756   4.153  16.627  0.00  0.00    +0.000 S 
BRANCH   7   9
ATOM      9  N   UNL     1       5.623   3.630  19.033  0.00  0.00    +0.000 N 
ATOM     10  H   UNL     1       6.007   2.697  19.140  0.00  0.00    +0.000 HD
ATOM     11  H   UNL     1       5.988   4.354  19.639  0.00  0.00    +0.000 HD
ENDBRANCH   7   9
ENDBRANCH   1   7
TORSDOF 2
ENDMDL
MODEL 3
REMARK VINA RESULT:      -4.7      2.110      2.779
REMARK  Name = 
REMARK  2 active torsions:
REMARK  status: ('A' for Active; 'I' for Inactive)
REMARK    1  A    between atoms: N_1  and  C_2
REMARK    2  A    between atoms: C_2  and  C_4
REMARK                            x       y       z     vdW  Elec       q    Type
REMARK                         _______ _______ _______ _____ _____    ______ ____
ROOT
ATOM      1  C   UNL     1       4.539   4.521  17.419  0.00  0.00    +0.000 A 
ATOM      2  C   UNL     1       3.780   3.355  17.227  0.00  0.00    +0.000 A 
ATOM      3  C   UNL     1       2.398   3.370  17.428  0.00  0.00    +0.000 A 
ATOM      4  C   UNL     1       1.763   4.543  17.829  0.00  0.00    +0.000 A 
ATOM      5  C   UNL     1       2.507   5.705  18.030  0.00  0.00    +0.000 A 
ATOM      6  C   UNL     1       3.889   5.695  17.826  0.00  0.00    +0.000 A 
ENDROOT
BRANCH   1   7
ATOM      7  C   UNL     1       6.013   4.502  17.190  0.00  0.00    +0.000 C 
ATOM      8  S   UNL     1       6.775   4.728  15.718  0.00  0.00    +0.000 S 
BRANCH   7   9
ATOM      9  N   UNL     1       6.803   4.267  18.287  0.00  0.00    +0.000 N 
ATOM     10  H   UNL     1       6.350   4.130  19.184  0.00  0.00    +0.000 HD
ATOM     11  H   UNL     1       7.808   4.377  18.287  0.00  0.00    +0.000 HD
ENDBRANCH   7   9
ENDBRANCH   1   7
TORSDOF 2
ENDMDL
MODEL 4
REMARK VINA RESULT:      -4.7      2.126      2.432
REMARK  Name = 
REMARK  2 active torsions:
REMARK  status: ('A' for Active; 'I' for Inactive)
REMARK    1  A    between atoms: N_1  and  C_2
REMARK    2  A    between atoms: C_2  and  C_4
REMARK                            x       y       z     vdW  Elec       q    Type
REMARK                         _______ _______ _______ _____ _____    ______ ____
ROOT
ATOM      1  C   UNL     1       4.567   4.548  17.368  0.00  0.00    +0.000 A 
ATOM      2  C   UNL     1       3.949   5.739  17.785  0.00  0.00    +0.000 A 
ATOM      3  C   UNL     1       2.575   5.773  18.032  0.00  0.00    +0.000 A 
ATOM      4  C   UNL     1       1.804   4.626  17.857  0.00  0.00    +0.000 A 
ATOM      5  C   UNL     1       2.406   3.441  17.436  0.00  0.00    +0.000 A 
ATOM      6  C   UNL     1       3.780   3.401  17.193  0.00  0.00    +0.000 A 
ENDROOT
BRANCH   1   7
ATOM      7  C   UNL     1       6.037   4.514  17.119  0.00  0.00    +0.000 C 
ATOM      8  S   UNL     1       6.781   4.729  15.636  0.00  0.00    +0.000 S 
BRANCH   7   9
ATOM      9  N   UNL     1       6.840   4.272  18.205  0.00  0.00    +0.000 N 
ATOM     10  H   UNL     1       7.828   4.109  18.045  0.00  0.00    +0.000 HD
ATOM     11  H   UNL     1       6.485   4.089  19.135  0.00  0.00    +0.000 HD
ENDBRANCH   7   9
ENDBRANCH   1   7
TORSDOF 2
ENDMDL
MODEL 5
REMARK VINA RESULT:      -4.6      2.327      2.357
REMARK  Name = 
REMARK  2 active torsions:
REMARK  status: ('A' for Active; 'I' for Inactive)
REMARK    1  A    between atoms: N_1  and  C_2
REMARK    2  A    between atoms: C_2  and  C_4
REMARK                            x       y       z     vdW  Elec       q    Type
REMARK                         _______ _______ _______ _____ _____    ______ ____
ROOT
ATOM      1  C   UNL     1       2.214   5.191  18.705  0.00  0.00    +0.000 A 
ATOM      2  C   UNL     1       1.947   5.152  20.084  0.00  0.00    +0.000 A 
ATOM      3  C   UNL     1       1.279   4.061  20.644  0.00  0.00    +0.000 A 
ATOM      4  C   UNL     1       0.865   3.005  19.837  0.00  0.00    +0.000 A 
ATOM      5  C   UNL     1       1.117   3.036  18.466  0.00  0.00    +0.000 A 
ATOM      6  C   UNL     1       1.789   4.123  17.902  0.00  0.00    +0.000 A 
ENDROOT
BRANCH   1   7
ATOM      7  C   UNL     1       2.939   6.352  18.114  0.00  0.00    +0.000 C 
ATOM      8  S   UNL     1       2.424   7.944  18.149  0.00  0.00    +0.000 S 
BRANCH   7   9
ATOM      9  N   UNL     1       4.124   6.080  17.479  0.00  0.00    +0.000 N 
ATOM     10  H   UNL     1       4.963   6.545  17.808  0.00  0.00    +0.000 HD
ATOM     11  H   UNL     1       4.188   5.567  16.609  0.00  0.00    +0.000 HD
ENDBRANCH   7   9
ENDBRANCH   1   7
TORSDOF 2
ENDMDL
MODEL 6
REMARK VINA RESULT:      -4.6      2.361      2.860
REMARK  Name = 
REMARK  2 active torsions:
REMARK  status: ('A' for Active; 'I' for Inactive)
REMARK    1  A    between atoms: N_1  and  C_2
REMARK    2  A    between atoms: C_2  and  C_4
REMARK                            x       y       z     vdW  Elec       q    Type
REMARK                         _______ _______ _______ _____ _____    ______ ____
ROOT
ATOM      1  C   UNL     1       2.217   5.240  18.720  0.00  0.00    +0.000 A 
ATOM      2  C   UNL     1       1.801   4.175  17.904  0.00  0.00    +0.000 A 
ATOM      3  C   UNL     1       1.132   3.081  18.457  0.00  0.00    +0.000 A 
ATOM      4  C   UNL     1       0.879   3.035  19.826  0.00  0.00    +0.000 A 
ATOM      5  C   UNL     1       1.295   4.083  20.647  0.00  0.00    +0.000 A 
ATOM      6  C   UNL     1       1.960   5.181  20.097  0.00  0.00    +0.000 A 
ENDROOT
BRANCH   1   7
ATOM      7  C   UNL     1       2.920   6.412  18.123  0.00  0.00    +0.000 C 
ATOM      8  S   UNL     1       2.367   7.991  18.133  0.00  0.00    +0.000 S 
BRANCH   7   9
ATOM      9  N   UNL     1       4.118   6.160  17.503  0.00  0.00    +0.000 N 
ATOM     10  H   UNL     1       4.803   6.907  17.461  0.00  0.00    +0.000 HD
ATOM     11  H   UNL     1       4.300   5.332  16.951  0.00  0.00    +0.000 HD
ENDBRANCH   7   9
ENDBRANCH   1   7
TORSDOF 2
ENDMDL
MODEL 7
REMARK VINA RESULT:      -4.6      2.589      4.111
REMARK  Name = 
REMARK  2 active torsions:
REMARK  status: ('A' for Active; 'I' for Inactive)
REMARK    1  A    between atoms: N_1  and  C_2
REMARK    2  A    between atoms: C_2  and  C_4
REMARK                            x       y       z     vdW  Elec       q    Type
REMARK                         _______ _______ _______ _____ _____    ______ ____
ROOT
ATOM      1  C   UNL     1       4.475   4.337  17.530  0.00  0.00    +0.000 A 
ATOM      2  C   UNL     1       4.137   5.629  17.965  0.00  0.00    +0.000 A 
ATOM      3  C   UNL     1       4.448   6.742  17.181  0.00  0.00    +0.000 A 
ATOM      4  C   UNL     1       5.105   6.579  15.963  0.00  0.00    +0.000 A 
ATOM      5  C   UNL     1       5.452   5.301  15.526  0.00  0.00    +0.000 A 
ATOM      6  C   UNL     1       5.139   4.185  16.305  0.00  0.00    +0.000 A 
ENDROOT
BRANCH   1   7
ATOM      7  C   UNL     1       4.129   3.151  18.366  0.00  0.00    +0.000 C 
ATOM      8  S   UNL     1       2.774   2.188  18.179  0.00  0.00    +0.000 S 
BRANCH   7   9
ATOM      9  N   UNL     1       4.998   2.839  19.380  0.00  0.00    +0.000 N 
ATOM     10  H   UNL     1       5.988   2.782  19.165  0.00  0.00    +0.000 HD
ATOM     11  H   UNL     1       4.703   2.508  20.290  0.00  0.00    +0.000 HD
ENDBRANCH   7   9
ENDBRANCH   1   7
TORSDOF 2
ENDMDL
MODEL 8
REMARK VINA RESULT:      -4.6      3.139      5.055
REMARK  Name = 
REMARK  2 active torsions:
REMARK  status: ('A' for Active; 'I' for Inactive)
REMARK    1  A    between atoms: N_1  and  C_2
REMARK    2  A    between atoms: C_2  and  C_4
REMARK                            x       y       z     vdW  Elec       q    Type
REMARK                         _______ _______ _______ _____ _____    ______ ____
ROOT
ATOM      1  C   UNL     1       5.674   5.319  18.689  0.00  0.00    +0.000 A 
ATOM      2  C   UNL     1       6.956   5.466  19.245  0.00  0.00    +0.000 A 
ATOM      3  C   UNL     1       7.854   6.394  18.714  0.00  0.00    +0.000 A 
ATOM      4  C   UNL     1       7.487   7.176  17.621  0.00  0.00    +0.000 A 
ATOM      5  C   UNL     1       6.220   7.033  17.057  0.00  0.00    +0.000 A 
ATOM      6  C   UNL     1       5.317   6.109  17.588  0.00  0.00    +0.000 A 
ENDROOT
BRANCH   1   7
ATOM      7  C   UNL     1       4.714   4.336  19.269  0.00  0.00    +0.000 C 
ATOM      8  S   UNL     1       3.159   4.677  19.785  0.00  0.00    +0.000 S 
BRANCH   7   9
ATOM      9  N   UNL     1       5.158   3.044  19.396  0.00  0.00    +0.000 N 
ATOM     10  H   UNL     1       5.799   2.829  20.153  0.00  0.00    +0.000 HD
ATOM     11  H   UNL     1       5.014   2.330  18.694  0.00  0.00    +0.000 HD
ENDBRANCH   7   9
ENDBRANCH   1   7
TORSDOF 2
ENDMDL
MODEL 9
REMARK VINA RESULT:      -4.6      1.570      1.736
REMARK  Name = 
REMARK  2 active torsions:
REMARK  status: ('A' for Active; 'I' for Inactive)
REMARK    1  A    between atoms: N_1  and  C_2
REMARK    2  A    between atoms: C_2  and  C_4
REMARK                            x       y       z     vdW  Elec       q    Type
REMARK                         _______ _______ _______ _____ _____    ______ ____
ROOT
ATOM      1  C   UNL     1       3.847   3.781  17.791  0.00  0.00    +0.000 A 
ATOM      2  C   UNL     1       2.705   4.591  17.675  0.00  0.00    +0.000 A 
ATOM      3  C   UNL     1       1.447   4.092  18.019  0.00  0.00    +0.000 A 
ATOM      4  C   UNL     1       1.314   2.782  18.474  0.00  0.00    +0.000 A 
ATOM      5  C   UNL     1       2.440   1.967  18.585  0.00  0.00    +0.000 A 
ATOM      6  C   UNL     1       3.701   2.463  18.246  0.00  0.00    +0.000 A 
ENDROOT
BRANCH   1   7
ATOM      7  C   UNL     1       5.190   4.323  17.434  0.00  0.00    +0.000 C 
ATOM      8  S   UNL     1       5.541   5.250  16.087  0.00  0.00    +0.000 S 
BRANCH   7   9
ATOM      9  N   UNL     1       6.222   4.019  18.286  0.00  0.00    +0.000 N 
ATOM     10  H   UNL     1       7.154   3.926  17.897  0.00  0.00    +0.000 HD
ATOM     11  H   UNL     1       6.089   3.729  19.246  0.00  0.00    +0.000 HD
ENDBRANCH   7   9
ENDBRANCH   1   7
TORSDOF 2
ENDMDL
