MODEL 1
REMARK VINA RESULT:      -7.9      0.000      0.000
REMARK  Name = 
REMARK  5 active torsions:
REMARK  status: ('A' for Active; 'I' for Inactive)
REMARK    1  A    between atoms: C_1  and  O_2
REMARK    2  A    between atoms: O_2  and  C_3
REMARK    3  A    between atoms: C_7  and  N_8
REMARK    4  A    between atoms: C_12  and  C_13
REMARK    5  A    between atoms: C_18  and  O_19
REMARK                            x       y       z     vdW  Elec       q    Type
REMARK                         _______ _______ _______ _____ _____    ______ ____
ROOT
ATOM      1  N   UNL     1       2.723   7.400  18.206  0.00  0.00    +0.000 N 
ATOM      2  C   UNL     1       2.041   7.938  19.247  0.00  0.00    +0.000 A 
ATOM      3  N   UNL     1       1.911   7.478  20.472  0.00  0.00    +0.000 NA
ATOM      4  N   UNL     1       1.141   8.279  21.282  0.00  0.00    +0.000 NA
ATOM      5  C   UNL     1       0.692   9.361  20.670  0.00  0.00    +0.000 A 
ATOM      6  S   UNL     1       1.168   9.398  19.003  0.00  0.00    +0.000 S 
ATOM      7  H   UNL     1       2.697   7.912  17.333  0.00  0.00    +0.000 HD
ENDROOT
BRANCH   5   8
ATOM      8  C   UNL     1      -0.143  10.365  21.251  0.00  0.00    +0.000 A 
ATOM      9  C   UNL     1      -0.939  11.098  20.450  0.00  0.00    +0.000 A 
ATOM     10  C   UNL     1      -1.814  12.113  21.015  0.00  0.00    +0.000 A 
ATOM     11  C   UNL     1      -2.811  12.755  20.275  0.00  0.00    +0.000 A 
ATOM     12  C   UNL     1      -3.619  13.724  20.881  0.00  0.00    +0.000 A 
ATOM     13  C   UNL     1      -3.404  14.068  22.216  0.00  0.00    +0.000 A 
ATOM     14  C   UNL     1      -2.408  13.451  22.958  0.00  0.00    +0.000 A 
ATOM     15  C   UNL     1      -1.643  12.461  22.351  0.00  0.00    +0.000 A 
ATOM     16  O   UNL     1      -0.730  11.776  23.164  0.00  0.00    +0.000 OA
ATOM     17  C   UNL     1      -0.189  10.574  22.725  0.00  0.00    +0.000 A 
ATOM     18  O   UNL     1       0.248   9.761  23.533  0.00  0.00    +0.000 OA
BRANCH  13  19
ATOM     19  O   UNL     1      -4.170  15.002  22.845  0.00  0.00    +0.000 OA
ATOM     20  H   UNL     1      -3.599  15.551  23.405  0.00  0.00    +0.000 HD
ENDBRANCH  13  19
ENDBRANCH   5   8
BRANCH   1  25
ATOM     21  C   UNL     1       5.066   4.473  18.258  0.00  0.00    +0.000 A 
ATOM     22  C   UNL     1       4.163   3.439  18.018  0.00  0.00    +0.000 A 
ATOM     23  C   UNL     1       2.817   3.718  17.796  0.00  0.00    +0.000 A 
ATOM     24  C   UNL     1       2.366   5.038  17.830  0.00  0.00    +0.000 A 
ATOM     25  C   UNL     1       3.247   6.097  18.100  0.00  0.00    +0.000 A 
ATOM     26  C   UNL     1       4.601   5.790  18.295  0.00  0.00    +0.000 A 
BRANCH  21  28
ATOM     27  C   UNL     1       7.363   4.863  17.789  0.00  0.00    +0.000 C 
ATOM     28  O   UNL     1       6.365   4.081  18.438  0.00  0.00    +0.000 OA
ENDBRANCH  21  28
ENDBRANCH   1  25
TORSDOF 4
ENDMDL
MODEL 2
REMARK VINA RESULT:      -7.9      1.041      1.845
REMARK  Name = 
REMARK  5 active torsions:
REMARK  status: ('A' for Active; 'I' for Inactive)
REMARK    1  A    between atoms: C_1  and  O_2
REMARK    2  A    between atoms: O_2  and  C_3
REMARK    3  A    between atoms: C_7  and  N_8
REMARK    4  A    between atoms: C_12  and  C_13
REMARK    5  A    between atoms: C_18  and  O_19
REMARK                            x       y       z     vdW  Elec       q    Type
REMARK                         _______ _______ _______ _____ _____    ______ ____
ROOT
ATOM      1  N   UNL     1       2.828   7.435  18.102  0.00  0.00    +0.000 N 
ATOM      2  C   UNL     1       2.099   7.925  19.136  0.00  0.00    +0.000 A 
ATOM      3  N   UNL     1       1.837   7.365  20.297  0.00  0.00    +0.000 NA
ATOM      4  N   UNL     1       1.057   8.142  21.120  0.00  0.00    +0.000 NA
ATOM      5  C   UNL     1       0.733   9.307  20.583  0.00  0.00    +0.000 A 
ATOM      6  S   UNL     1       1.347   9.462  18.969  0.00  0.00    +0.000 S 
ATOM      7  H   UNL     1       2.909   8.026  17.284  0.00  0.00    +0.000 HD
ENDROOT
BRANCH   5   8
ATOM      8  C   UNL     1      -0.080  10.312  21.193  0.00  0.00    +0.000 A 
ATOM      9  C   UNL     1      -0.883  11.063  20.417  0.00  0.00    +0.000 A 
ATOM     10  C   UNL     1      -1.736  12.081  21.012  0.00  0.00    +0.000 A 
ATOM     11  C   UNL     1      -2.740  12.742  20.300  0.00  0.00    +0.000 A 
ATOM     12  C   UNL     1      -3.525  13.712  20.935  0.00  0.00    +0.000 A 
ATOM     13  C   UNL     1      -3.281  14.036  22.270  0.00  0.00    +0.000 A 
ATOM     14  C   UNL     1      -2.277  13.399  22.984  0.00  0.00    +0.000 A 
ATOM     15  C   UNL     1      -1.535  12.409  22.349  0.00  0.00    +0.000 A 
ATOM     16  O   UNL     1      -0.614  11.704  23.135  0.00  0.00    +0.000 OA
ATOM     17  C   UNL     1      -0.094  10.502  22.670  0.00  0.00    +0.000 A 
ATOM     18  O   UNL     1       0.350   9.674  23.459  0.00  0.00    +0.000 OA
BRANCH  13  19
ATOM     19  O   UNL     1      -4.024  14.970  22.926  0.00  0.00    +0.000 OA
ATOM     20  H   UNL     1      -3.796  15.849  22.585  0.00  0.00    +0.000 HD
ENDBRANCH  13  19
ENDBRANCH   5   8
BRANCH   1  25
ATOM     21  C   UNL     1       2.885   3.726  17.559  0.00  0.00    +0.000 A 
ATOM     22  C   UNL     1       4.253   3.532  17.374  0.00  0.00    +0.000 A 
ATOM     23  C   UNL     1       5.136   4.604  17.478  0.00  0.00    +0.000 A 
ATOM     24  C   UNL     1       4.648   5.882  17.752  0.00  0.00    +0.000 A 
ATOM     25  C   UNL     1       3.272   6.112  17.911  0.00  0.00    +0.000 A 
ATOM     26  C   UNL     1       2.408   5.012  17.827  0.00  0.00    +0.000 A 
BRANCH  21  28
ATOM     27  C   UNL     1       1.464   2.161  18.645  0.00  0.00    +0.000 C 
ATOM     28  O   UNL     1       2.119   2.597  17.457  0.00  0.00    +0.000 OA
ENDBRANCH  21  28
ENDBRANCH   1  25
TORSDOF 4
ENDMDL
MODEL 3
REMARK VINA RESULT:      -7.9      2.294      9.752
REMARK  Name = 
REMARK  5 active torsions:
REMARK  status: ('A' for Active; 'I' for Inactive)
REMARK    1  A    between atoms: C_1  and  O_2
REMARK    2  A    between atoms: O_2  and  C_3
REMARK    3  A    between atoms: C_7  and  N_8
REMARK    4  A    between atoms: C_12  and  C_13
REMARK    5  A    between atoms: C_18  and  O_19
REMARK                            x       y       z     vdW  Elec       q    Type
REMARK                         _______ _______ _______ _____ _____    ______ ____
ROOT
ATOM      1  N   UNL     1      -0.037  11.316  20.118  0.00  0.00    +0.000 N 
ATOM      2  C   UNL     1       0.614  10.126  20.143  0.00  0.00    +0.000 A 
ATOM      3  N   UNL     1       0.850   9.338  21.168  0.00  0.00    +0.000 NA
ATOM      4  N   UNL     1       1.546   8.199  20.838  0.00  0.00    +0.000 NA
ATOM      5  C   UNL     1       1.831   8.117  19.550  0.00  0.00    +0.000 A 
ATOM      6  S   UNL     1       1.287   9.517  18.683  0.00  0.00    +0.000 S 
ATOM      7  H   UNL     1      -0.111  11.774  19.219  0.00  0.00    +0.000 HD
ENDROOT
BRANCH   5   8
ATOM      8  C   UNL     1       2.557   7.060  18.919  0.00  0.00    +0.000 A 
ATOM      9  C   UNL     1       3.336   7.344  17.858  0.00  0.00    +0.000 A 
ATOM     10  C   UNL     1       4.102   6.291  17.207  0.00  0.00    +0.000 A 
ATOM     11  C   UNL     1       5.083   6.549  16.248  0.00  0.00    +0.000 A 
ATOM     12  C   UNL     1       5.784   5.488  15.661  0.00  0.00    +0.000 A 
ATOM     13  C   UNL     1       5.475   4.174  16.015  0.00  0.00    +0.000 A 
ATOM     14  C   UNL     1       4.491   3.904  16.954  0.00  0.00    +0.000 A 
ATOM     15  C   UNL     1       3.836   4.971  17.557  0.00  0.00    +0.000 A 
ATOM     16  O   UNL     1       2.937   4.664  18.587  0.00  0.00    +0.000 OA
ATOM     17  C   UNL     1       2.511   5.668  19.447  0.00  0.00    +0.000 A 
ATOM     18  O   UNL     1       2.096   5.388  20.568  0.00  0.00    +0.000 OA
BRANCH  13  19
ATOM     19  O   UNL     1       6.135   3.114  15.471  0.00  0.00    +0.000 OA
ATOM     20  H   UNL     1       7.090   3.262  15.556  0.00  0.00    +0.000 HD
ENDBRANCH  13  19
ENDBRANCH   5   8
BRANCH   1  25
ATOM     21  C   UNL     1      -0.200  14.141  22.579  0.00  0.00    +0.000 A 
ATOM     22  C   UNL     1      -1.298  13.735  23.336  0.00  0.00    +0.000 A 
ATOM     23  C   UNL     1      -1.933  12.527  23.063  0.00  0.00    +0.000 A 
ATOM     24  C   UNL     1      -1.481  11.725  22.014  0.00  0.00    +0.000 A 
ATOM     25  C   UNL     1      -0.398  12.123  21.215  0.00  0.00    +0.000 A 
ATOM     26  C   UNL     1       0.240  13.332  21.528  0.00  0.00    +0.000 A 
BRANCH  21  28
ATOM     27  C   UNL     1       0.936  16.121  21.918  0.00  0.00    +0.000 C 
ATOM     28  O   UNL     1       0.357  15.333  22.954  0.00  0.00    +0.000 OA
ENDBRANCH  21  28
ENDBRANCH   1  25
TORSDOF 4
ENDMDL
MODEL 4
REMARK VINA RESULT:      -7.8      3.181      3.580
REMARK  Name = 
REMARK  5 active torsions:
REMARK  status: ('A' for Active; 'I' for Inactive)
REMARK    1  A    between atoms: C_1  and  O_2
REMARK    2  A    between atoms: O_2  and  C_3
REMARK    3  A    between atoms: C_7  and  N_8
REMARK    4  A    between atoms: C_12  and  C_13
REMARK    5  A    between atoms: C_18  and  O_19
REMARK                            x       y       z     vdW  Elec       q    Type
REMARK                         _______ _______ _______ _____ _____    ______ ____
ROOT
ATOM      1  N   UNL     1       2.207   6.736  19.420  0.00  0.00    +0.000 N 
ATOM      2  C   UNL     1       2.001   7.975  18.907  0.00  0.00    +0.000 A 
ATOM      3  N   UNL     1       2.289   8.427  17.707  0.00  0.00    +0.000 NA
ATOM      4  N   UNL     1       1.946   9.746  17.519  0.00  0.00    +0.000 NA
ATOM      5  C   UNL     1       1.384  10.295  18.582  0.00  0.00    +0.000 A 
ATOM      6  S   UNL     1       1.313   9.187  19.914  0.00  0.00    +0.000 S 
ATOM      7  H   UNL     1       1.916   6.587  20.378  0.00  0.00    +0.000 HD
ENDROOT
BRANCH   5   8
ATOM      8  C   UNL     1       0.940  11.649  18.689  0.00  0.00    +0.000 A 
ATOM      9  C   UNL     1       1.851  12.640  18.662  0.00  0.00    +0.000 A 
ATOM     10  C   UNL     1       1.428  14.029  18.749  0.00  0.00    +0.000 A 
ATOM     11  C   UNL     1       2.291  15.102  18.513  0.00  0.00    +0.000 A 
ATOM     12  C   UNL     1       1.818  16.416  18.614  0.00  0.00    +0.000 A 
ATOM     13  C   UNL     1       0.492  16.648  18.981  0.00  0.00    +0.000 A 
ATOM     14  C   UNL     1      -0.371  15.593  19.233  0.00  0.00    +0.000 A 
ATOM     15  C   UNL     1       0.105  14.295  19.087  0.00  0.00    +0.000 A 
ATOM     16  O   UNL     1      -0.825  13.256  19.231  0.00  0.00    +0.000 OA
ATOM     17  C   UNL     1      -0.509  11.984  18.773  0.00  0.00    +0.000 A 
ATOM     18  O   UNL     1      -1.400  11.189  18.490  0.00  0.00    +0.000 OA
BRANCH  13  19
ATOM     19  O   UNL     1      -0.010  17.910  19.086  0.00  0.00    +0.000 OA
ATOM     20  H   UNL     1      -0.436  18.007  19.953  0.00  0.00    +0.000 HD
ENDBRANCH  13  19
ENDBRANCH   5   8
BRANCH   1  25
ATOM     21  C   UNL     1       5.114   4.491  18.663  0.00  0.00    +0.000 A 
ATOM     22  C   UNL     1       4.473   3.520  17.895  0.00  0.00    +0.000 A 
ATOM     23  C   UNL     1       3.118   3.640  17.597  0.00  0.00    +0.000 A 
ATOM     24  C   UNL     1       2.393   4.729  18.084  0.00  0.00    +0.000 A 
ATOM     25  C   UNL     1       3.005   5.705  18.886  0.00  0.00    +0.000 A 
ATOM     26  C   UNL     1       4.375   5.574  19.150  0.00  0.00    +0.000 A 
BRANCH  21  28
ATOM     27  C   UNL     1       7.331   4.701  17.832  0.00  0.00    +0.000 C 
ATOM     28  O   UNL     1       6.450   4.281  18.870  0.00  0.00    +0.000 OA
ENDBRANCH  21  28
ENDBRANCH   1  25
TORSDOF 4
ENDMDL
MODEL 5
REMARK VINA RESULT:      -7.7      1.987      2.754
REMARK  Name = 
REMARK  5 active torsions:
REMARK  status: ('A' for Active; 'I' for Inactive)
REMARK    1  A    between atoms: C_1  and  O_2
REMARK    2  A    between atoms: O_2  and  C_3
REMARK    3  A    between atoms: C_7  and  N_8
REMARK    4  A    between atoms: C_12  and  C_13
REMARK    5  A    between atoms: C_18  and  O_19
REMARK                            x       y       z     vdW  Elec       q    Type
REMARK                         _______ _______ _______ _____ _____    ______ ____
ROOT
ATOM      1  N   UNL     1       3.769   5.728  19.017  0.00  0.00    +0.000 N 
ATOM      2  C   UNL     1       3.077   6.878  18.820  0.00  0.00    +0.000 A 
ATOM      3  N   UNL     1       3.175   7.739  17.831  0.00  0.00    +0.000 NA
ATOM      4  N   UNL     1       2.319   8.809  17.946  0.00  0.00    +0.000 NA
ATOM      5  C   UNL     1       1.558   8.753  19.026  0.00  0.00    +0.000 A 
ATOM      6  S   UNL     1       1.927   7.367  20.000  0.00  0.00    +0.000 S 
ATOM      7  H   UNL     1       3.546   5.201  19.852  0.00  0.00    +0.000 HD
ENDROOT
BRANCH   5   8
ATOM      8  C   UNL     1       0.589   9.729  19.417  0.00  0.00    +0.000 A 
ATOM      9  C   UNL     1      -0.486   9.934  18.635  0.00  0.00    +0.000 A 
ATOM     10  C   UNL     1      -1.498  10.907  19.018  0.00  0.00    +0.000 A 
ATOM     11  C   UNL     1      -2.731  11.015  18.371  0.00  0.00    +0.000 A 
ATOM     12  C   UNL     1      -3.661  11.975  18.791  0.00  0.00    +0.000 A 
ATOM     13  C   UNL     1      -3.337  12.841  19.836  0.00  0.00    +0.000 A 
ATOM     14  C   UNL     1      -2.110  12.755  20.477  0.00  0.00    +0.000 A 
ATOM     15  C   UNL     1      -1.217  11.769  20.074  0.00  0.00    +0.000 A 
ATOM     16  O   UNL     1      -0.040  11.633  20.822  0.00  0.00    +0.000 OA
ATOM     17  C   UNL     1       0.722  10.479  20.698  0.00  0.00    +0.000 A 
ATOM     18  O   UNL     1       1.479  10.137  21.602  0.00  0.00    +0.000 OA
BRANCH  13  19
ATOM     19  O   UNL     1      -4.213  13.785  20.279  0.00  0.00    +0.000 OA
ATOM     20  H   UNL     1      -4.376  14.422  19.565  0.00  0.00    +0.000 HD
ENDBRANCH  13  19
ENDBRANCH   5   8
BRANCH   1  25
ATOM     21  C   UNL     1       6.107   4.342  16.433  0.00  0.00    +0.000 A 
ATOM     22  C   UNL     1       7.329   4.620  17.043  0.00  0.00    +0.000 A 
ATOM     23  C   UNL     1       7.368   5.208  18.305  0.00  0.00    +0.000 A 
ATOM     24  C   UNL     1       6.179   5.537  18.956  0.00  0.00    +0.000 A 
ATOM     25  C   UNL     1       4.934   5.299  18.351  0.00  0.00    +0.000 A 
ATOM     26  C   UNL     1       4.922   4.683  17.093  0.00  0.00    +0.000 A 
BRANCH  21  28
ATOM     27  C   UNL     1       6.841   4.483  14.177  0.00  0.00    +0.000 C 
ATOM     28  O   UNL     1       6.192   3.742  15.206  0.00  0.00    +0.000 OA
ENDBRANCH  21  28
ENDBRANCH   1  25
TORSDOF 4
ENDMDL
MODEL 6
REMARK VINA RESULT:      -7.7      2.105      9.911
REMARK  Name = 
REMARK  5 active torsions:
REMARK  status: ('A' for Active; 'I' for Inactive)
REMARK    1  A    between atoms: C_1  and  O_2
REMARK    2  A    between atoms: O_2  and  C_3
REMARK    3  A    between atoms: C_7  and  N_8
REMARK    4  A    between atoms: C_12  and  C_13
REMARK    5  A    between atoms: C_18  and  O_19
REMARK                            x       y       z     vdW  Elec       q    Type
REMARK                         _______ _______ _______ _____ _____    ______ ____
ROOT
ATOM      1  N   UNL     1      -0.150  11.416  19.754  0.00  0.00    +0.000 N 
ATOM      2  C   UNL     1       0.506  10.233  19.844  0.00  0.00    +0.000 A 
ATOM      3  N   UNL     1       0.700   9.478  20.904  0.00  0.00    +0.000 NA
ATOM      4  N   UNL     1       1.417   8.334  20.641  0.00  0.00    +0.000 NA
ATOM      5  C   UNL     1       1.760   8.215  19.369  0.00  0.00    +0.000 A 
ATOM      6  S   UNL     1       1.248   9.584  18.436  0.00  0.00    +0.000 S 
ATOM      7  H   UNL     1      -0.186  11.847  18.838  0.00  0.00    +0.000 HD
ENDROOT
BRANCH   5   8
ATOM      8  C   UNL     1       2.520   7.145  18.804  0.00  0.00    +0.000 A 
ATOM      9  C   UNL     1       3.311   7.392  17.744  0.00  0.00    +0.000 A 
ATOM     10  C   UNL     1       4.111   6.326  17.160  0.00  0.00    +0.000 A 
ATOM     11  C   UNL     1       5.104   6.557  16.205  0.00  0.00    +0.000 A 
ATOM     12  C   UNL     1       5.837   5.484  15.684  0.00  0.00    +0.000 A 
ATOM     13  C   UNL     1       5.551   4.183  16.099  0.00  0.00    +0.000 A 
ATOM     14  C   UNL     1       4.557   3.938  17.034  0.00  0.00    +0.000 A 
ATOM     15  C   UNL     1       3.868   5.019  17.572  0.00  0.00    +0.000 A 
ATOM     16  O   UNL     1       2.957   4.744  18.601  0.00  0.00    +0.000 OA
ATOM     17  C   UNL     1       2.495   5.780  19.402  0.00  0.00    +0.000 A 
ATOM     18  O   UNL     1       2.066   5.547  20.528  0.00  0.00    +0.000 OA
BRANCH  13  19
ATOM     19  O   UNL     1       6.243   3.112  15.621  0.00  0.00    +0.000 OA
ATOM     20  H   UNL     1       6.987   3.432  15.086  0.00  0.00    +0.000 HD
ENDBRANCH  13  19
ENDBRANCH   5   8
BRANCH   1  25
ATOM     21  C   UNL     1      -2.114  12.896  22.585  0.00  0.00    +0.000 A 
ATOM     22  C   UNL     1      -1.227  13.889  22.998  0.00  0.00    +0.000 A 
ATOM     23  C   UNL     1      -0.029  14.090  22.317  0.00  0.00    +0.000 A 
ATOM     24  C   UNL     1       0.294  13.282  21.226  0.00  0.00    +0.000 A 
ATOM     25  C   UNL     1      -0.565  12.254  20.808  0.00  0.00    +0.000 A 
ATOM     26  C   UNL     1      -1.776  12.090  21.494  0.00  0.00    +0.000 A 
BRANCH  21  28
ATOM     27  C   UNL     1      -3.398  13.701  24.416  0.00  0.00    +0.000 C 
ATOM     28  O   UNL     1      -3.269  12.808  23.313  0.00  0.00    +0.000 OA
ENDBRANCH  21  28
ENDBRANCH   1  25
TORSDOF 4
ENDMDL
MODEL 7
REMARK VINA RESULT:      -7.7      1.722      1.906
REMARK  Name = 
REMARK  5 active torsions:
REMARK  status: ('A' for Active; 'I' for Inactive)
REMARK    1  A    between atoms: C_1  and  O_2
REMARK    2  A    between atoms: O_2  and  C_3
REMARK    3  A    between atoms: C_7  and  N_8
REMARK    4  A    between atoms: C_12  and  C_13
REMARK    5  A    between atoms: C_18  and  O_19
REMARK                            x       y       z     vdW  Elec       q    Type
REMARK                         _______ _______ _______ _____ _____    ______ ____
ROOT
ATOM      1  N   UNL     1       2.244   6.492  20.352  0.00  0.00    +0.000 N 
ATOM      2  C   UNL     1       1.758   7.754  20.241  0.00  0.00    +0.000 A 
ATOM      3  N   UNL     1       1.678   8.514  19.170  0.00  0.00    +0.000 NA
ATOM      4  N   UNL     1       1.131   9.751  19.414  0.00  0.00    +0.000 NA
ATOM      5  C   UNL     1       0.783   9.928  20.678  0.00  0.00    +0.000 A 
ATOM      6  S   UNL     1       1.189   8.552  21.653  0.00  0.00    +0.000 S 
ATOM      7  H   UNL     1       2.221   6.077  21.275  0.00  0.00    +0.000 HD
ENDROOT
BRANCH   5   8
ATOM      8  C   UNL     1       0.208  11.114  21.229  0.00  0.00    +0.000 A 
ATOM      9  C   UNL     1      -0.973  11.032  21.871  0.00  0.00    +0.000 A 
ATOM     10  C   UNL     1      -1.573  12.220  22.459  0.00  0.00    +0.000 A 
ATOM     11  C   UNL     1      -2.676  12.170  23.313  0.00  0.00    +0.000 A 
ATOM     12  C   UNL     1      -3.205  13.352  23.845  0.00  0.00    +0.000 A 
ATOM     13  C   UNL     1      -2.645  14.580  23.493  0.00  0.00    +0.000 A 
ATOM     14  C   UNL     1      -1.559  14.646  22.633  0.00  0.00    +0.000 A 
ATOM     15  C   UNL     1      -1.022  13.459  22.148  0.00  0.00    +0.000 A 
ATOM     16  O   UNL     1       0.147  13.557  21.381  0.00  0.00    +0.000 OA
ATOM     17  C   UNL     1       0.916  12.423  21.155  0.00  0.00    +0.000 A 
ATOM     18  O   UNL     1       2.107  12.528  20.880  0.00  0.00    +0.000 OA
BRANCH  13  19
ATOM     19  O   UNL     1      -3.125  15.754  23.991  0.00  0.00    +0.000 OA
ATOM     20  H   UNL     1      -3.154  16.409  23.276  0.00  0.00    +0.000 HD
ENDBRANCH  13  19
ENDBRANCH   5   8
BRANCH   1  25
ATOM     21  C   UNL     1       5.093   4.757  18.640  0.00  0.00    +0.000 A 
ATOM     22  C   UNL     1       4.420   4.210  17.549  0.00  0.00    +0.000 A 
ATOM     23  C   UNL     1       3.062   4.457  17.365  0.00  0.00    +0.000 A 
ATOM     24  C   UNL     1       2.367   5.241  18.286  0.00  0.00    +0.000 A 
ATOM     25  C   UNL     1       3.012   5.779  19.411  0.00  0.00    +0.000 A 
ATOM     26  C   UNL     1       4.385   5.536  19.559  0.00  0.00    +0.000 A 
BRANCH  21  28
ATOM     27  C   UNL     1       7.187   4.685  17.518  0.00  0.00    +0.000 C 
ATOM     28  O   UNL     1       6.429   4.467  18.704  0.00  0.00    +0.000 OA
ENDBRANCH  21  28
ENDBRANCH   1  25
TORSDOF 4
ENDMDL
MODEL 8
REMARK VINA RESULT:      -7.6      7.322     10.132
REMARK  Name = 
REMARK  5 active torsions:
REMARK  status: ('A' for Active; 'I' for Inactive)
REMARK    1  A    between atoms: C_1  and  O_2
REMARK    2  A    between atoms: O_2  and  C_3
REMARK    3  A    between atoms: C_7  and  N_8
REMARK    4  A    between atoms: C_12  and  C_13
REMARK    5  A    between atoms: C_18  and  O_19
REMARK                            x       y       z     vdW  Elec       q    Type
REMARK                         _______ _______ _______ _____ _____    ______ ____
ROOT
ATOM      1  N   UNL     1       9.499   9.793  18.601  0.00  0.00    +0.000 N 
ATOM      2  C   UNL     1       8.500   8.981  18.175  0.00  0.00    +0.000 A 
ATOM      3  N   UNL     1       7.694   9.137  17.148  0.00  0.00    +0.000 NA
ATOM      4  N   UNL     1       6.784   8.116  17.002  0.00  0.00    +0.000 NA
ATOM      5  C   UNL     1       6.908   7.173  17.920  0.00  0.00    +0.000 A 
ATOM      6  S   UNL     1       8.151   7.554  19.068  0.00  0.00    +0.000 S 
ATOM      7  H   UNL     1      10.007   9.494  19.424  0.00  0.00    +0.000 HD
ENDROOT
BRANCH   5   8
ATOM      8  C   UNL     1       6.095   6.003  18.033  0.00  0.00    +0.000 A 
ATOM      9  C   UNL     1       4.757   6.128  17.968  0.00  0.00    +0.000 A 
ATOM     10  C   UNL     1       3.904   4.952  18.060  0.00  0.00    +0.000 A 
ATOM     11  C   UNL     1       2.534   4.984  17.788  0.00  0.00    +0.000 A 
ATOM     12  C   UNL     1       1.772   3.814  17.896  0.00  0.00    +0.000 A 
ATOM     13  C   UNL     1       2.379   2.627  18.306  0.00  0.00    +0.000 A 
ATOM     14  C   UNL     1       3.735   2.585  18.595  0.00  0.00    +0.000 A 
ATOM     15  C   UNL     1       4.484   3.746  18.441  0.00  0.00    +0.000 A 
ATOM     16  O   UNL     1       5.869   3.637  18.623  0.00  0.00    +0.000 OA
ATOM     17  C   UNL     1       6.703   4.649  18.164  0.00  0.00    +0.000 A 
ATOM     18  O   UNL     1       7.882   4.414  17.916  0.00  0.00    +0.000 OA
BRANCH  13  19
ATOM     19  O   UNL     1       1.675   1.467  18.420  0.00  0.00    +0.000 OA
ATOM     20  H   UNL     1       0.727   1.668  18.367  0.00  0.00    +0.000 HD
ENDBRANCH  13  19
ENDBRANCH   5   8
BRANCH   1  25
ATOM     21  C   UNL     1       9.149  13.480  18.010  0.00  0.00    +0.000 A 
ATOM     22  C   UNL     1      10.427  13.768  17.535  0.00  0.00    +0.000 A 
ATOM     23  C   UNL     1      11.363  12.750  17.370  0.00  0.00    +0.000 A 
ATOM     24  C   UNL     1      11.026  11.437  17.698  0.00  0.00    +0.000 A 
ATOM     25  C   UNL     1       9.756  11.121  18.208  0.00  0.00    +0.000 A 
ATOM     26  C   UNL     1       8.825  12.161  18.341  0.00  0.00    +0.000 A 
BRANCH  21  28
ATOM     27  C   UNL     1       6.954  14.343  17.719  0.00  0.00    +0.000 C 
ATOM     28  O   UNL     1       8.308  14.555  18.108  0.00  0.00    +0.000 OA
ENDBRANCH  21  28
ENDBRANCH   1  25
TORSDOF 4
ENDMDL
MODEL 9
REMARK VINA RESULT:      -7.6      2.192      9.975
REMARK  Name = 
REMARK  5 active torsions:
REMARK  status: ('A' for Active; 'I' for Inactive)
REMARK    1  A    between atoms: C_1  and  O_2
REMARK    2  A    between atoms: O_2  and  C_3
REMARK    3  A    between atoms: C_7  and  N_8
REMARK    4  A    between atoms: C_12  and  C_13
REMARK    5  A    between atoms: C_18  and  O_19
REMARK                            x       y       z     vdW  Elec       q    Type
REMARK                         _______ _______ _______ _____ _____    ______ ____
ROOT
ATOM      1  N   UNL     1       0.323  10.282  22.262  0.00  0.00    +0.000 N 
ATOM      2  C   UNL     1       0.795   9.671  21.147  0.00  0.00    +0.000 A 
ATOM      3  N   UNL     1       0.684  10.048  19.892  0.00  0.00    +0.000 NA
ATOM      4  N   UNL     1       1.283   9.186  19.003  0.00  0.00    +0.000 NA
ATOM      5  C   UNL     1       1.862   8.153  19.590  0.00  0.00    +0.000 A 
ATOM      6  S   UNL     1       1.628   8.176  21.308  0.00  0.00    +0.000 S 
ATOM      7  H   UNL     1       0.512   9.824  23.145  0.00  0.00    +0.000 HD
ENDROOT
BRANCH   5   8
ATOM      8  C   UNL     1       2.546   7.088  18.925  0.00  0.00    +0.000 A 
ATOM      9  C   UNL     1       3.387   7.380  17.916  0.00  0.00    +0.000 A 
ATOM     10  C   UNL     1       4.111   6.319  17.233  0.00  0.00    +0.000 A 
ATOM     11  C   UNL     1       5.149   6.565  16.331  0.00  0.00    +0.000 A 
ATOM     12  C   UNL     1       5.804   5.496  15.708  0.00  0.00    +0.000 A 
ATOM     13  C   UNL     1       5.395   4.188  15.968  0.00  0.00    +0.000 A 
ATOM     14  C   UNL     1       4.355   3.929  16.848  0.00  0.00    +0.000 A 
ATOM     15  C   UNL     1       3.744   5.001  17.489  0.00  0.00    +0.000 A 
ATOM     16  O   UNL     1       2.782   4.696  18.461  0.00  0.00    +0.000 OA
ATOM     17  C   UNL     1       2.386   5.674  19.364  0.00  0.00    +0.000 A 
ATOM     18  O   UNL     1       1.904   5.356  20.447  0.00  0.00    +0.000 OA
BRANCH  13  19
ATOM     19  O   UNL     1       6.008   3.119  15.387  0.00  0.00    +0.000 OA
ATOM     20  H   UNL     1       5.412   2.738  14.722  0.00  0.00    +0.000 HD
ENDBRANCH  13  19
ENDBRANCH   5   8
BRANCH   1  25
ATOM     21  C   UNL     1      -2.778  12.257  22.998  0.00  0.00    +0.000 A 
ATOM     22  C   UNL     1      -2.360  13.522  22.587  0.00  0.00    +0.000 A 
ATOM     23  C   UNL     1      -1.095  13.698  22.033  0.00  0.00    +0.000 A 
ATOM     24  C   UNL     1      -0.234  12.608  21.904  0.00  0.00    +0.000 A 
ATOM     25  C   UNL     1      -0.616  11.329  22.339  0.00  0.00    +0.000 A 
ATOM     26  C   UNL     1      -1.905  11.174  22.869  0.00  0.00    +0.000 A 
BRANCH  21  28
ATOM     27  C   UNL     1      -4.254  12.800  24.780  0.00  0.00    +0.000 C 
ATOM     28  O   UNL     1      -4.049  12.201  23.504  0.00  0.00    +0.000 OA
ENDBRANCH  21  28
ENDBRANCH   1  25
TORSDOF 4
ENDMDL
