MODEL 1
REMARK VINA RESULT:      -7.9      0.000      0.000
REMARK  Name = 
REMARK  12 active torsions:
REMARK  status: ('A' for Active; 'I' for Inactive)
REMARK    1  A    between atoms: C_1  and  O_2
REMARK    2  A    between atoms: O_2  and  C_3
REMARK    3  A    between atoms: C_5  and  N_6
REMARK    4  A    between atoms: N_6  and  C_7
REMARK    5  A    between atoms: N_6  and  C_15
REMARK    6  A    between atoms: C_7  and  C_8
REMARK    7  A    between atoms: C_12  and  C_13
REMARK    8  A    between atoms: C_15  and  C_16
REMARK    9  A    between atoms: C_21  and  C_22
REMARK   10  A    between atoms: C_22  and  C_24
REMARK   11  A    between atoms: C_26  and  C_27
REMARK   12  A    between atoms: C_27  and  O_29
REMARK                            x       y       z     vdW  Elec       q    Type
REMARK                         _______ _______ _______ _____ _____    ______ ____
ROOT
ATOM      1  C   UNL     1       1.269   8.948  20.602  0.00  0.00    +0.000 A 
ATOM      2  C   UNL     1       1.804   7.638  20.482  0.00  0.00    +0.000 A 
ATOM      3  C   UNL     1       2.215   7.093  19.261  0.00  0.00    +0.000 A 
ATOM      4  C   UNL     1       2.050   7.967  18.183  0.00  0.00    +0.000 A 
ATOM      5  N   UNL     1       1.550   9.238  18.229  0.00  0.00    +0.000 NA
ATOM      6  C   UNL     1       1.183   9.728  19.441  0.00  0.00    +0.000 A 
ENDROOT
BRANCH   1   8
ATOM      7  C   UNL     1      -0.434   9.019  22.261  0.00  0.00    +0.000 C 
ATOM      8  O   UNL     1       0.915   9.275  21.886  0.00  0.00    +0.000 OA
ENDBRANCH   1   8
BRANCH   6   9
ATOM      9  C   UNL     1       0.825  11.197  19.406  0.00  0.00    +0.000 C 
ATOM     10  O   UNL     1       1.668  12.059  19.185  0.00  0.00    +0.000 OA
BRANCH   9  11
ATOM     11  C   UNL     1      -0.609  11.628  19.529  0.00  0.00    +0.000 C 
ATOM     12  C   UNL     1      -1.121  12.993  19.103  0.00  0.00    +0.000 C 
ATOM     13  C   UNL     1      -1.349  11.811  18.200  0.00  0.00    +0.000 C 
BRANCH  13  14
ATOM     14  C   UNL     1      -2.686  11.213  18.030  0.00  0.00    +0.000 C 
ATOM     15  O   UNL     1      -2.857  10.026  17.760  0.00  0.00    +0.000 OA
BRANCH  14  16
ATOM     16  O   UNL     1      -3.702  12.092  18.175  0.00  0.00    +0.000 OA
ATOM     17  H   UNL     1      -3.945  12.248  19.106  0.00  0.00    +0.000 HD
ENDBRANCH  14  16
ENDBRANCH  13  14
ENDBRANCH   9  11
ENDBRANCH   6   9
BRANCH   3  18
ATOM     18  N   UNL     1       2.746   5.802  19.162  0.00  0.00    +0.000 N 
BRANCH  18  19
ATOM     19  C   UNL     1       3.018   5.215  17.836  0.00  0.00    +0.000 C 
BRANCH  19  20
ATOM     20  C   UNL     1       4.443   5.279  17.301  0.00  0.00    +0.000 A 
ATOM     21  C   UNL     1       4.858   4.265  16.416  0.00  0.00    +0.000 A 
ATOM     22  C   UNL     1       6.145   4.255  15.873  0.00  0.00    +0.000 A 
ATOM     23  C   UNL     1       7.049   5.257  16.210  0.00  0.00    +0.000 A 
ATOM     24  C   UNL     1       6.670   6.274  17.092  0.00  0.00    +0.000 A 
ATOM     25  C   UNL     1       7.629   7.365  17.470  0.00  0.00    +0.000 C 
ATOM     26  C   UNL     1       5.371   6.278  17.628  0.00  0.00    +0.000 A 
ENDBRANCH  19  20
ENDBRANCH  18  19
BRANCH  18  27
ATOM     27  C   UNL     1       2.656   4.901  20.328  0.00  0.00    +0.000 C 
BRANCH  27  28
ATOM     28  C   UNL     1       1.330   4.198  20.490  0.00  0.00    +0.000 C 
ATOM     29  C   UNL     1       0.920   2.942  19.758  0.00  0.00    +0.000 C 
ATOM     30  C   UNL     1       1.298   2.857  21.206  0.00  0.00    +0.000 C 
ENDBRANCH  27  28
ENDBRANCH  18  27
ENDBRANCH   3  18
TORSDOF 10
ENDMDL
MODEL 2
REMARK VINA RESULT:      -7.8      4.446      8.204
REMARK  Name = 
REMARK  12 active torsions:
REMARK  status: ('A' for Active; 'I' for Inactive)
REMARK    1  A    between atoms: C_1  and  O_2
REMARK    2  A    between atoms: O_2  and  C_3
REMARK    3  A    between atoms: C_5  and  N_6
REMARK    4  A    between atoms: N_6  and  C_7
REMARK    5  A    between atoms: N_6  and  C_15
REMARK    6  A    between atoms: C_7  and  C_8
REMARK    7  A    between atoms: C_12  and  C_13
REMARK    8  A    between atoms: C_15  and  C_16
REMARK    9  A    between atoms: C_21  and  C_22
REMARK   10  A    between atoms: C_22  and  C_24
REMARK   11  A    between atoms: C_26  and  C_27
REMARK   12  A    between atoms: C_27  and  O_29
REMARK                            x       y       z     vdW  Elec       q    Type
REMARK                         _______ _______ _______ _____ _____    ______ ____
ROOT
ATOM      1  C   UNL     1       5.684   6.322  16.648  0.00  0.00    +0.000 A 
ATOM      2  C   UNL     1       4.723   6.390  17.692  0.00  0.00    +0.000 A 
ATOM      3  C   UNL     1       3.745   5.410  17.890  0.00  0.00    +0.000 A 
ATOM      4  C   UNL     1       3.814   4.365  16.964  0.00  0.00    +0.000 A 
ATOM      5  N   UNL     1       4.713   4.234  15.943  0.00  0.00    +0.000 NA
ATOM      6  C   UNL     1       5.656   5.202  15.806  0.00  0.00    +0.000 A 
ENDROOT
BRANCH   1   8
ATOM      7  C   UNL     1       7.437   7.517  17.724  0.00  0.00    +0.000 C 
ATOM      8  O   UNL     1       6.539   7.394  16.626  0.00  0.00    +0.000 OA
ENDBRANCH   1   8
BRANCH   6   9
ATOM      9  C   UNL     1       6.708   4.866  14.773  0.00  0.00    +0.000 C 
ATOM     10  O   UNL     1       7.860   4.591  15.094  0.00  0.00    +0.000 OA
BRANCH   9  11
ATOM     11  C   UNL     1       6.333   4.748  13.322  0.00  0.00    +0.000 C 
ATOM     12  C   UNL     1       7.340   4.561  12.202  0.00  0.00    +0.000 C 
ATOM     13  C   UNL     1       6.570   3.369  12.700  0.00  0.00    +0.000 C 
BRANCH  13  14
ATOM     14  C   UNL     1       5.502   2.745  11.897  0.00  0.00    +0.000 C 
ATOM     15  O   UNL     1       4.471   3.337  11.581  0.00  0.00    +0.000 OA
BRANCH  14  16
ATOM     16  O   UNL     1       5.749   1.460  11.560  0.00  0.00    +0.000 OA
ATOM     17  H   UNL     1       6.406   1.370  10.846  0.00  0.00    +0.000 HD
ENDBRANCH  14  16
ENDBRANCH  13  14
ENDBRANCH   9  11
ENDBRANCH   6   9
BRANCH   3  18
ATOM     18  N   UNL     1       2.809   5.490  18.927  0.00  0.00    +0.000 N 
BRANCH  18  19
ATOM     19  C   UNL     1       2.868   6.607  19.890  0.00  0.00    +0.000 C 
BRANCH  19  20
ATOM     20  C   UNL     1       1.987   7.823  19.636  0.00  0.00    +0.000 A 
ATOM     21  C   UNL     1       1.947   8.343  18.327  0.00  0.00    +0.000 A 
ATOM     22  C   UNL     1       1.159   9.451  18.008  0.00  0.00    +0.000 A 
ATOM     23  C   UNL     1       0.397  10.069  18.994  0.00  0.00    +0.000 A 
ATOM     24  C   UNL     1       0.421   9.582  20.305  0.00  0.00    +0.000 A 
ATOM     25  C   UNL     1      -0.393  10.234  21.384  0.00  0.00    +0.000 C 
ATOM     26  C   UNL     1       1.214   8.464  20.614  0.00  0.00    +0.000 A 
ENDBRANCH  19  20
ENDBRANCH  18  19
BRANCH  18  27
ATOM     27  C   UNL     1       2.040   4.284  19.291  0.00  0.00    +0.000 C 
BRANCH  27  28
ATOM     28  C   UNL     1       2.015   3.965  20.766  0.00  0.00    +0.000 C 
ATOM     29  C   UNL     1       1.207   2.858  21.400  0.00  0.00    +0.000 C 
ATOM     30  C   UNL     1       2.689   2.690  21.248  0.00  0.00    +0.000 C 
ENDBRANCH  27  28
ENDBRANCH  18  27
ENDBRANCH   3  18
TORSDOF 10
ENDMDL
MODEL 3
REMARK VINA RESULT:      -7.8      3.572      8.264
REMARK  Name = 
REMARK  12 active torsions:
REMARK  status: ('A' for Active; 'I' for Inactive)
REMARK    1  A    between atoms: C_1  and  O_2
REMARK    2  A    between atoms: O_2  and  C_3
REMARK    3  A    between atoms: C_5  and  N_6
REMARK    4  A    between atoms: N_6  and  C_7
REMARK    5  A    between atoms: N_6  and  C_15
REMARK    6  A    between atoms: C_7  and  C_8
REMARK    7  A    between atoms: C_12  and  C_13
REMARK    8  A    between atoms: C_15  and  C_16
REMARK    9  A    between atoms: C_21  and  C_22
REMARK   10  A    between atoms: C_22  and  C_24
REMARK   11  A    between atoms: C_26  and  C_27
REMARK   12  A    between atoms: C_27  and  O_29
REMARK                            x       y       z     vdW  Elec       q    Type
REMARK                         _______ _______ _______ _____ _____    ______ ____
ROOT
ATOM      1  C   UNL     1       3.095   5.762  19.161  0.00  0.00    +0.000 A 
ATOM      2  C   UNL     1       2.224   6.676  19.810  0.00  0.00    +0.000 A 
ATOM      3  C   UNL     1       1.942   7.949  19.304  0.00  0.00    +0.000 A 
ATOM      4  C   UNL     1       2.597   8.222  18.099  0.00  0.00    +0.000 A 
ATOM      5  N   UNL     1       3.440   7.388  17.419  0.00  0.00    +0.000 NA
ATOM      6  C   UNL     1       3.666   6.156  17.943  0.00  0.00    +0.000 A 
ENDROOT
BRANCH   1   8
ATOM      7  C   UNL     1       2.114   3.714  19.867  0.00  0.00    +0.000 C 
ATOM      8  O   UNL     1       3.244   4.578  19.838  0.00  0.00    +0.000 OA
ENDBRANCH   1   8
BRANCH   6   9
ATOM      9  C   UNL     1       4.456   5.253  17.022  0.00  0.00    +0.000 C 
ATOM     10  O   UNL     1       4.195   4.060  16.912  0.00  0.00    +0.000 OA
BRANCH   9  11
ATOM     11  C   UNL     1       5.514   5.829  16.124  0.00  0.00    +0.000 C 
ATOM     12  C   UNL     1       6.948   6.075  16.559  0.00  0.00    +0.000 C 
ATOM     13  C   UNL     1       6.632   4.859  15.733  0.00  0.00    +0.000 C 
BRANCH  13  14
ATOM     14  C   UNL     1       7.037   4.756  14.318  0.00  0.00    +0.000 C 
ATOM     15  O   UNL     1       6.543   3.943  13.539  0.00  0.00    +0.000 OA
BRANCH  14  16
ATOM     16  O   UNL     1       8.012   5.621  13.964  0.00  0.00    +0.000 OA
ATOM     17  H   UNL     1       8.067   6.399  14.547  0.00  0.00    +0.000 HD
ENDBRANCH  14  16
ENDBRANCH  13  14
ENDBRANCH   9  11
ENDBRANCH   6   9
BRANCH   3  18
ATOM     18  N   UNL     1       1.076   8.835  19.955  0.00  0.00    +0.000 N 
BRANCH  18  19
ATOM     19  C   UNL     1       0.916  10.214  19.453  0.00  0.00    +0.000 C 
BRANCH  19  20
ATOM     20  C   UNL     1      -0.426  10.609  18.852  0.00  0.00    +0.000 A 
ATOM     21  C   UNL     1      -1.153  11.636  19.487  0.00  0.00    +0.000 A 
ATOM     22  C   UNL     1      -2.388  12.063  18.995  0.00  0.00    +0.000 A 
ATOM     23  C   UNL     1      -2.929  11.467  17.860  0.00  0.00    +0.000 A 
ATOM     24  C   UNL     1      -2.236  10.439  17.212  0.00  0.00    +0.000 A 
ATOM     25  C   UNL     1      -2.801   9.782  15.987  0.00  0.00    +0.000 C 
ATOM     26  C   UNL     1      -0.991  10.021  17.712  0.00  0.00    +0.000 A 
ENDBRANCH  19  20
ENDBRANCH  18  19
BRANCH  18  27
ATOM     27  C   UNL     1       0.647   8.531  21.334  0.00  0.00    +0.000 C 
BRANCH  27  28
ATOM     28  C   UNL     1       0.519   9.732  22.241  0.00  0.00    +0.000 C 
ATOM     29  C   UNL     1      -0.780  10.265  22.793  0.00  0.00    +0.000 C 
ATOM     30  C   UNL     1       0.145   9.508  23.697  0.00  0.00    +0.000 C 
ENDBRANCH  27  28
ENDBRANCH  18  27
ENDBRANCH   3  18
TORSDOF 10
ENDMDL
MODEL 4
REMARK VINA RESULT:      -7.7      0.693      1.418
REMARK  Name = 
REMARK  12 active torsions:
REMARK  status: ('A' for Active; 'I' for Inactive)
REMARK    1  A    between atoms: C_1  and  O_2
REMARK    2  A    between atoms: O_2  and  C_3
REMARK    3  A    between atoms: C_5  and  N_6
REMARK    4  A    between atoms: N_6  and  C_7
REMARK    5  A    between atoms: N_6  and  C_15
REMARK    6  A    between atoms: C_7  and  C_8
REMARK    7  A    between atoms: C_12  and  C_13
REMARK    8  A    between atoms: C_15  and  C_16
REMARK    9  A    between atoms: C_21  and  C_22
REMARK   10  A    between atoms: C_22  and  C_24
REMARK   11  A    between atoms: C_26  and  C_27
REMARK   12  A    between atoms: C_27  and  O_29
REMARK                            x       y       z     vdW  Elec       q    Type
REMARK                         _______ _______ _______ _____ _____    ______ ____
ROOT
ATOM      1  C   UNL     1       1.326   8.825  20.314  0.00  0.00    +0.000 A 
ATOM      2  C   UNL     1       1.842   7.502  20.293  0.00  0.00    +0.000 A 
ATOM      3  C   UNL     1       2.342   6.899  19.135  0.00  0.00    +0.000 A 
ATOM      4  C   UNL     1       2.287   7.729  18.011  0.00  0.00    +0.000 A 
ATOM      5  N   UNL     1       1.810   9.009  17.963  0.00  0.00    +0.000 NA
ATOM      6  C   UNL     1       1.354   9.556  19.119  0.00  0.00    +0.000 A 
ENDROOT
BRANCH   1   8
ATOM      7  C   UNL     1      -0.453   8.825  21.893  0.00  0.00    +0.000 C 
ATOM      8  O   UNL     1       0.873   9.213  21.549  0.00  0.00    +0.000 OA
ENDBRANCH   1   8
BRANCH   6   9
ATOM      9  C   UNL     1       1.030  11.028  18.993  0.00  0.00    +0.000 C 
ATOM     10  O   UNL     1       1.860  11.837  18.591  0.00  0.00    +0.000 OA
BRANCH   9  11
ATOM     11  C   UNL     1      -0.366  11.520  19.253  0.00  0.00    +0.000 C 
ATOM     12  C   UNL     1      -0.895  12.856  18.763  0.00  0.00    +0.000 C 
ATOM     13  C   UNL     1      -1.265  11.605  18.016  0.00  0.00    +0.000 C 
BRANCH  13  14
ATOM     14  C   UNL     1      -2.627  11.041  18.073  0.00  0.00    +0.000 C 
ATOM     15  O   UNL     1      -3.618  11.716  18.343  0.00  0.00    +0.000 OA
BRANCH  14  16
ATOM     16  O   UNL     1      -2.681   9.714  17.823  0.00  0.00    +0.000 OA
ATOM     17  H   UNL     1      -2.688   9.502  16.872  0.00  0.00    +0.000 HD
ENDBRANCH  14  16
ENDBRANCH  13  14
ENDBRANCH   9  11
ENDBRANCH   6   9
BRANCH   3  18
ATOM     18  N   UNL     1       2.852   5.596  19.134  0.00  0.00    +0.000 N 
BRANCH  18  19
ATOM     19  C   UNL     1       3.088   4.895  17.857  0.00  0.00    +0.000 C 
BRANCH  19  20
ATOM     20  C   UNL     1       4.517   4.806  17.339  0.00  0.00    +0.000 A 
ATOM     21  C   UNL     1       5.561   5.086  18.242  0.00  0.00    +0.000 A 
ATOM     22  C   UNL     1       6.900   5.019  17.849  0.00  0.00    +0.000 A 
ATOM     23  C   UNL     1       7.225   4.676  16.540  0.00  0.00    +0.000 A 
ATOM     24  C   UNL     1       6.210   4.400  15.618  0.00  0.00    +0.000 A 
ATOM     25  C   UNL     1       6.537   4.030  14.200  0.00  0.00    +0.000 C 
ATOM     26  C   UNL     1       4.867   4.466  16.024  0.00  0.00    +0.000 A 
ENDBRANCH  19  20
ENDBRANCH  18  19
BRANCH  18  27
ATOM     27  C   UNL     1       2.776   4.798  20.373  0.00  0.00    +0.000 C 
BRANCH  27  28
ATOM     28  C   UNL     1       1.426   4.181  20.652  0.00  0.00    +0.000 C 
ATOM     29  C   UNL     1       0.841   3.004  19.909  0.00  0.00    +0.000 C 
ATOM     30  C   UNL     1       1.372   2.805  21.296  0.00  0.00    +0.000 C 
ENDBRANCH  27  28
ENDBRANCH  18  27
ENDBRANCH   3  18
TORSDOF 10
ENDMDL
MODEL 5
REMARK VINA RESULT:      -7.7      0.971      1.805
REMARK  Name = 
REMARK  12 active torsions:
REMARK  status: ('A' for Active; 'I' for Inactive)
REMARK    1  A    between atoms: C_1  and  O_2
REMARK    2  A    between atoms: O_2  and  C_3
REMARK    3  A    between atoms: C_5  and  N_6
REMARK    4  A    between atoms: N_6  and  C_7
REMARK    5  A    between atoms: N_6  and  C_15
REMARK    6  A    between atoms: C_7  and  C_8
REMARK    7  A    between atoms: C_12  and  C_13
REMARK    8  A    between atoms: C_15  and  C_16
REMARK    9  A    between atoms: C_21  and  C_22
REMARK   10  A    between atoms: C_22  and  C_24
REMARK   11  A    between atoms: C_26  and  C_27
REMARK   12  A    between atoms: C_27  and  O_29
REMARK                            x       y       z     vdW  Elec       q    Type
REMARK                         _______ _______ _______ _____ _____    ______ ____
ROOT
ATOM      1  C   UNL     1       1.295   8.742  20.377  0.00  0.00    +0.000 A 
ATOM      2  C   UNL     1       1.918   7.471  20.267  0.00  0.00    +0.000 A 
ATOM      3  C   UNL     1       2.460   6.990  19.070  0.00  0.00    +0.000 A 
ATOM      4  C   UNL     1       2.330   7.886  18.005  0.00  0.00    +0.000 A 
ATOM      5  N   UNL     1       1.749   9.123  18.043  0.00  0.00    +0.000 NA
ATOM      6  C   UNL     1       1.256   9.551  19.234  0.00  0.00    +0.000 A 
ENDROOT
BRANCH   1   8
ATOM      7  C   UNL     1      -0.539   8.662  21.889  0.00  0.00    +0.000 C 
ATOM      8  O   UNL     1       0.818   9.007  21.636  0.00  0.00    +0.000 OA
ENDBRANCH   1   8
BRANCH   6   9
ATOM      9  C   UNL     1       0.811  10.997  19.208  0.00  0.00    +0.000 C 
ATOM     10  O   UNL     1       1.555  11.905  19.561  0.00  0.00    +0.000 OA
BRANCH   9  11
ATOM     11  C   UNL     1      -0.528  11.365  18.635  0.00  0.00    +0.000 C 
ATOM     12  C   UNL     1      -1.678  10.386  18.476  0.00  0.00    +0.000 C 
ATOM     13  C   UNL     1      -1.690  11.347  19.633  0.00  0.00    +0.000 C 
BRANCH  13  14
ATOM     14  C   UNL     1      -2.619  12.491  19.681  0.00  0.00    +0.000 C 
ATOM     15  O   UNL     1      -2.497  13.418  20.479  0.00  0.00    +0.000 OA
BRANCH  14  16
ATOM     16  O   UNL     1      -3.626  12.416  18.783  0.00  0.00    +0.000 OA
ATOM     17  H   UNL     1      -3.317  12.408  17.859  0.00  0.00    +0.000 HD
ENDBRANCH  14  16
ENDBRANCH  13  14
ENDBRANCH   9  11
ENDBRANCH   6   9
BRANCH   3  18
ATOM     18  N   UNL     1       3.076   5.736  18.982  0.00  0.00    +0.000 N 
BRANCH  18  19
ATOM     19  C   UNL     1       3.189   5.059  17.675  0.00  0.00    +0.000 C 
BRANCH  19  20
ATOM     20  C   UNL     1       4.536   5.085  16.966  0.00  0.00    +0.000 A 
ATOM     21  C   UNL     1       5.588   5.794  17.580  0.00  0.00    +0.000 A 
ATOM     22  C   UNL     1       6.856   5.860  16.999  0.00  0.00    +0.000 A 
ATOM     23  C   UNL     1       7.100   5.222  15.787  0.00  0.00    +0.000 A 
ATOM     24  C   UNL     1       6.075   4.517  15.149  0.00  0.00    +0.000 A 
ATOM     25  C   UNL     1       6.316   3.822  13.840  0.00  0.00    +0.000 C 
ATOM     26  C   UNL     1       4.804   4.453  15.744  0.00  0.00    +0.000 A 
ENDBRANCH  19  20
ENDBRANCH  18  19
BRANCH  18  27
ATOM     27  C   UNL     1       3.245   4.934  20.209  0.00  0.00    +0.000 C 
BRANCH  27  28
ATOM     28  C   UNL     1       2.549   3.595  20.196  0.00  0.00    +0.000 C 
ATOM     29  C   UNL     1       2.306   2.732  21.411  0.00  0.00    +0.000 C 
ATOM     30  C   UNL     1       1.161   3.488  20.808  0.00  0.00    +0.000 C 
ENDBRANCH  27  28
ENDBRANCH  18  27
ENDBRANCH   3  18
TORSDOF 10
ENDMDL
MODEL 6
REMARK VINA RESULT:      -7.7      4.095      7.828
REMARK  Name = 
REMARK  12 active torsions:
REMARK  status: ('A' for Active; 'I' for Inactive)
REMARK    1  A    between atoms: C_1  and  O_2
REMARK    2  A    between atoms: O_2  and  C_3
REMARK    3  A    between atoms: C_5  and  N_6
REMARK    4  A    between atoms: N_6  and  C_7
REMARK    5  A    between atoms: N_6  and  C_15
REMARK    6  A    between atoms: C_7  and  C_8
REMARK    7  A    between atoms: C_12  and  C_13
REMARK    8  A    between atoms: C_15  and  C_16
REMARK    9  A    between atoms: C_21  and  C_22
REMARK   10  A    between atoms: C_22  and  C_24
REMARK   11  A    between atoms: C_26  and  C_27
REMARK   12  A    between atoms: C_27  and  O_29
REMARK                            x       y       z     vdW  Elec       q    Type
REMARK                         _______ _______ _______ _____ _____    ______ ____
ROOT
ATOM      1  C   UNL     1       5.740   5.371  18.781  0.00  0.00    +0.000 A 
ATOM      2  C   UNL     1       4.530   5.259  19.515  0.00  0.00    +0.000 A 
ATOM      3  C   UNL     1       3.307   5.745  19.044  0.00  0.00    +0.000 A 
ATOM      4  C   UNL     1       3.398   6.343  17.783  0.00  0.00    +0.000 A 
ATOM      5  N   UNL     1       4.525   6.478  17.022  0.00  0.00    +0.000 NA
ATOM      6  C   UNL     1       5.684   5.971  17.516  0.00  0.00    +0.000 A 
ENDROOT
BRANCH   1   8
ATOM      7  C   UNL     1       7.901   5.733  19.709  0.00  0.00    +0.000 C 
ATOM      8  O   UNL     1       6.824   4.842  19.435  0.00  0.00    +0.000 OA
ENDBRANCH   1   8
BRANCH   6   9
ATOM      9  C   UNL     1       6.821   6.004  16.519  0.00  0.00    +0.000 C 
ATOM     10  O   UNL     1       7.622   6.932  16.487  0.00  0.00    +0.000 OA
BRANCH   9  11
ATOM     11  C   UNL     1       7.065   4.831  15.611  0.00  0.00    +0.000 C 
ATOM     12  C   UNL     1       6.020   3.776  15.296  0.00  0.00    +0.000 C 
ATOM     13  C   UNL     1       6.290   4.861  14.290  0.00  0.00    +0.000 C 
BRANCH  13  14
ATOM     14  C   UNL     1       7.004   4.589  13.029  0.00  0.00    +0.000 C 
ATOM     15  O   UNL     1       6.762   3.612  12.322  0.00  0.00    +0.000 OA
BRANCH  14  16
ATOM     16  O   UNL     1       7.960   5.497  12.733  0.00  0.00    +0.000 OA
ATOM     17  H   UNL     1       8.844   5.245  13.057  0.00  0.00    +0.000 HD
ENDBRANCH  14  16
ENDBRANCH  13  14
ENDBRANCH   9  11
ENDBRANCH   6   9
BRANCH   3  18
ATOM     18  N   UNL     1       2.122   5.621  19.779  0.00  0.00    +0.000 N 
BRANCH  18  19
ATOM     19  C   UNL     1       1.905   6.456  20.976  0.00  0.00    +0.000 C 
BRANCH  19  20
ATOM     20  C   UNL     1       1.253   7.820  20.793  0.00  0.00    +0.000 A 
ATOM     21  C   UNL     1       0.291   8.220  21.742  0.00  0.00    +0.000 A 
ATOM     22  C   UNL     1      -0.349   9.459  21.651  0.00  0.00    +0.000 A 
ATOM     23  C   UNL     1      -0.045  10.323  20.604  0.00  0.00    +0.000 A 
ATOM     24  C   UNL     1       0.899   9.951  19.641  0.00  0.00    +0.000 A 
ATOM     25  C   UNL     1       1.241  10.868  18.503  0.00  0.00    +0.000 C 
ATOM     26  C   UNL     1       1.541   8.705  19.745  0.00  0.00    +0.000 A 
ENDBRANCH  19  20
ENDBRANCH  18  19
BRANCH  18  27
ATOM     27  C   UNL     1       1.294   4.413  19.601  0.00  0.00    +0.000 C 
BRANCH  27  28
ATOM     28  C   UNL     1       1.841   3.164  20.251  0.00  0.00    +0.000 C 
ATOM     29  C   UNL     1       2.527   3.116  21.595  0.00  0.00    +0.000 C 
ATOM     30  C   UNL     1       1.125   2.602  21.468  0.00  0.00    +0.000 C 
ENDBRANCH  27  28
ENDBRANCH  18  27
ENDBRANCH   3  18
TORSDOF 10
ENDMDL
MODEL 7
REMARK VINA RESULT:      -7.6      4.395      8.169
REMARK  Name = 
REMARK  12 active torsions:
REMARK  status: ('A' for Active; 'I' for Inactive)
REMARK    1  A    between atoms: C_1  and  O_2
REMARK    2  A    between atoms: O_2  and  C_3
REMARK    3  A    between atoms: C_5  and  N_6
REMARK    4  A    between atoms: N_6  and  C_7
REMARK    5  A    between atoms: N_6  and  C_15
REMARK    6  A    between atoms: C_7  and  C_8
REMARK    7  A    between atoms: C_12  and  C_13
REMARK    8  A    between atoms: C_15  and  C_16
REMARK    9  A    between atoms: C_21  and  C_22
REMARK   10  A    between atoms: C_22  and  C_24
REMARK   11  A    between atoms: C_26  and  C_27
REMARK   12  A    between atoms: C_27  and  O_29
REMARK                            x       y       z     vdW  Elec       q    Type
REMARK                         _______ _______ _______ _____ _____    ______ ____
ROOT
ATOM      1  C   UNL     1       5.484   6.261  16.729  0.00  0.00    +0.000 A 
ATOM      2  C   UNL     1       4.477   6.267  17.731  0.00  0.00    +0.000 A 
ATOM      3  C   UNL     1       3.562   5.222  17.896  0.00  0.00    +0.000 A 
ATOM      4  C   UNL     1       3.744   4.179  16.984  0.00  0.00    +0.000 A 
ATOM      5  N   UNL     1       4.693   4.106  16.003  0.00  0.00    +0.000 NA
ATOM      6  C   UNL     1       5.570   5.138  15.897  0.00  0.00    +0.000 A 
ENDROOT
BRANCH   1   8
ATOM      7  C   UNL     1       7.431   7.358  17.545  0.00  0.00    +0.000 C 
ATOM      8  O   UNL     1       6.262   7.391  16.733  0.00  0.00    +0.000 OA
ENDBRANCH   1   8
BRANCH   6   9
ATOM      9  C   UNL     1       6.686   4.870  14.911  0.00  0.00    +0.000 C 
ATOM     10  O   UNL     1       7.831   4.636  15.285  0.00  0.00    +0.000 OA
BRANCH   9  11
ATOM     11  C   UNL     1       6.389   4.772  13.442  0.00  0.00    +0.000 C 
ATOM     12  C   UNL     1       7.444   4.499  12.384  0.00  0.00    +0.000 C 
ATOM     13  C   UNL     1       6.555   3.374  12.838  0.00  0.00    +0.000 C 
BRANCH  13  14
ATOM     14  C   UNL     1       5.490   2.830  11.975  0.00  0.00    +0.000 C 
ATOM     15  O   UNL     1       4.457   3.446  11.718  0.00  0.00    +0.000 OA
BRANCH  14  16
ATOM     16  O   UNL     1       5.744   1.587  11.509  0.00  0.00    +0.000 OA
ATOM     17  H   UNL     1       5.961   1.568  10.560  0.00  0.00    +0.000 HD
ENDBRANCH  14  16
ENDBRANCH  13  14
ENDBRANCH   9  11
ENDBRANCH   6   9
BRANCH   3  18
ATOM     18  N   UNL     1       2.580   5.243  18.893  0.00  0.00    +0.000 N 
BRANCH  18  19
ATOM     19  C   UNL     1       2.742   6.116  20.072  0.00  0.00    +0.000 C 
BRANCH  19  20
ATOM     20  C   UNL     1       1.894   7.379  20.153  0.00  0.00    +0.000 A 
ATOM     21  C   UNL     1       1.056   7.536  21.275  0.00  0.00    +0.000 A 
ATOM     22  C   UNL     1       0.253   8.668  21.430  0.00  0.00    +0.000 A 
ATOM     23  C   UNL     1       0.265   9.666  20.461  0.00  0.00    +0.000 A 
ATOM     24  C   UNL     1       1.080   9.536  19.332  0.00  0.00    +0.000 A 
ATOM     25  C   UNL     1       1.108  10.601  18.274  0.00  0.00    +0.000 C 
ATOM     26  C   UNL     1       1.888   8.395  19.189  0.00  0.00    +0.000 A 
ENDBRANCH  19  20
ENDBRANCH  18  19
BRANCH  18  27
ATOM     27  C   UNL     1       1.612   4.131  18.966  0.00  0.00    +0.000 C 
BRANCH  27  28
ATOM     28  C   UNL     1       1.998   3.010  19.901  0.00  0.00    +0.000 C 
ATOM     29  C   UNL     1       2.614   3.194  21.266  0.00  0.00    +0.000 C 
ATOM     30  C   UNL     1       1.174   2.795  21.160  0.00  0.00    +0.000 C 
ENDBRANCH  27  28
ENDBRANCH  18  27
ENDBRANCH   3  18
TORSDOF 10
ENDMDL
MODEL 8
REMARK VINA RESULT:      -7.6      2.974      8.061
REMARK  Name = 
REMARK  12 active torsions:
REMARK  status: ('A' for Active; 'I' for Inactive)
REMARK    1  A    between atoms: C_1  and  O_2
REMARK    2  A    between atoms: O_2  and  C_3
REMARK    3  A    between atoms: C_5  and  N_6
REMARK    4  A    between atoms: N_6  and  C_7
REMARK    5  A    between atoms: N_6  and  C_15
REMARK    6  A    between atoms: C_7  and  C_8
REMARK    7  A    between atoms: C_12  and  C_13
REMARK    8  A    between atoms: C_15  and  C_16
REMARK    9  A    between atoms: C_21  and  C_22
REMARK   10  A    between atoms: C_22  and  C_24
REMARK   11  A    between atoms: C_26  and  C_27
REMARK   12  A    between atoms: C_27  and  O_29
REMARK                            x       y       z     vdW  Elec       q    Type
REMARK                         _______ _______ _______ _____ _____    ______ ____
ROOT
ATOM      1  C   UNL     1       2.370   6.176  19.717  0.00  0.00    +0.000 A 
ATOM      2  C   UNL     1       1.757   7.388  20.134  0.00  0.00    +0.000 A 
ATOM      3  C   UNL     1       1.657   8.513  19.308  0.00  0.00    +0.000 A 
ATOM      4  C   UNL     1       2.213   8.318  18.040  0.00  0.00    +0.000 A 
ATOM      5  N   UNL     1       2.810   7.181  17.574  0.00  0.00    +0.000 NA
ATOM      6  C   UNL     1       2.864   6.110  18.408  0.00  0.00    +0.000 A 
ENDROOT
BRANCH   1   8
ATOM      7  C   UNL     1       1.293   4.282  20.672  0.00  0.00    +0.000 C 
ATOM      8  O   UNL     1       2.374   5.208  20.689  0.00  0.00    +0.000 OA
ENDBRANCH   1   8
BRANCH   6   9
ATOM      9  C   UNL     1       3.370   4.855  17.733  0.00  0.00    +0.000 C 
ATOM     10  O   UNL     1       2.601   3.992  17.322  0.00  0.00    +0.000 OA
BRANCH   9  11
ATOM     11  C   UNL     1       4.835   4.689  17.445  0.00  0.00    +0.000 C 
ATOM     12  C   UNL     1       5.380   3.928  16.249  0.00  0.00    +0.000 C 
ATOM     13  C   UNL     1       5.341   5.431  16.205  0.00  0.00    +0.000 C 
BRANCH  13  14
ATOM     14  C   UNL     1       6.570   6.242  16.300  0.00  0.00    +0.000 C 
ATOM     15  O   UNL     1       6.618   7.315  16.899  0.00  0.00    +0.000 OA
BRANCH  14  16
ATOM     16  O   UNL     1       7.629   5.709  15.652  0.00  0.00    +0.000 OA
ATOM     17  H   UNL     1       7.804   6.128  14.790  0.00  0.00    +0.000 HD
ENDBRANCH  14  16
ENDBRANCH  13  14
ENDBRANCH   9  11
ENDBRANCH   6   9
BRANCH   3  18
ATOM     18  N   UNL     1       1.044   9.697  19.733  0.00  0.00    +0.000 N 
BRANCH  18  19
ATOM     19  C   UNL     1       0.568  10.679  18.740  0.00  0.00    +0.000 C 
BRANCH  19  20
ATOM     20  C   UNL     1      -0.926  10.739  18.447  0.00  0.00    +0.000 A 
ATOM     21  C   UNL     1      -1.429   9.907  17.427  0.00  0.00    +0.000 A 
ATOM     22  C   UNL     1      -2.787   9.896  17.102  0.00  0.00    +0.000 A 
ATOM     23  C   UNL     1      -3.673  10.723  17.785  0.00  0.00    +0.000 A 
ATOM     24  C   UNL     1      -3.203  11.566  18.797  0.00  0.00    +0.000 A 
ATOM     25  C   UNL     1      -4.141  12.467  19.547  0.00  0.00    +0.000 C 
ATOM     26  C   UNL     1      -1.836  11.566  19.121  0.00  0.00    +0.000 A 
ENDBRANCH  19  20
ENDBRANCH  18  19
BRANCH  18  27
ATOM     27  C   UNL     1       1.233  10.138  21.128  0.00  0.00    +0.000 C 
BRANCH  27  28
ATOM     28  C   UNL     1      -0.009  10.090  21.985  0.00  0.00    +0.000 C 
ATOM     29  C   UNL     1      -0.747   8.831  22.372  0.00  0.00    +0.000 C 
ATOM     30  C   UNL     1       0.098   9.528  23.394  0.00  0.00    +0.000 C 
ENDBRANCH  27  28
ENDBRANCH  18  27
ENDBRANCH   3  18
TORSDOF 10
ENDMDL
MODEL 9
REMARK VINA RESULT:      -7.6      1.390      1.987
REMARK  Name = 
REMARK  12 active torsions:
REMARK  status: ('A' for Active; 'I' for Inactive)
REMARK    1  A    between atoms: C_1  and  O_2
REMARK    2  A    between atoms: O_2  and  C_3
REMARK    3  A    between atoms: C_5  and  N_6
REMARK    4  A    between atoms: N_6  and  C_7
REMARK    5  A    between atoms: N_6  and  C_15
REMARK    6  A    between atoms: C_7  and  C_8
REMARK    7  A    between atoms: C_12  and  C_13
REMARK    8  A    between atoms: C_15  and  C_16
REMARK    9  A    between atoms: C_21  and  C_22
REMARK   10  A    between atoms: C_22  and  C_24
REMARK   11  A    between atoms: C_26  and  C_27
REMARK   12  A    between atoms: C_27  and  O_29
REMARK                            x       y       z     vdW  Elec       q    Type
REMARK                         _______ _______ _______ _____ _____    ______ ____
ROOT
ATOM      1  C   UNL     1       0.831   8.770  20.410  0.00  0.00    +0.000 A 
ATOM      2  C   UNL     1       1.807   7.828  19.989  0.00  0.00    +0.000 A 
ATOM      3  C   UNL     1       2.377   7.842  18.711  0.00  0.00    +0.000 A 
ATOM      4  C   UNL     1       1.894   8.875  17.903  0.00  0.00    +0.000 A 
ATOM      5  N   UNL     1       0.964   9.816  18.246  0.00  0.00    +0.000 NA
ATOM      6  C   UNL     1       0.456   9.771  19.504  0.00  0.00    +0.000 A 
ENDROOT
BRANCH   1   8
ATOM      7  C   UNL     1       1.161   9.164  22.732  0.00  0.00    +0.000 C 
ATOM      8  O   UNL     1       0.395   8.564  21.694  0.00  0.00    +0.000 OA
ENDBRANCH   1   8
BRANCH   6   9
ATOM      9  C   UNL     1      -0.414  10.962  19.837  0.00  0.00    +0.000 C 
ATOM     10  O   UNL     1       0.020  11.918  20.472  0.00  0.00    +0.000 OA
BRANCH   9  11
ATOM     11  C   UNL     1      -1.812  11.053  19.294  0.00  0.00    +0.000 C 
ATOM     12  C   UNL     1      -2.620  12.338  19.249  0.00  0.00    +0.000 C 
ATOM     13  C   UNL     1      -1.953  11.848  17.993  0.00  0.00    +0.000 C 
BRANCH  13  14
ATOM     14  C   UNL     1      -2.728  11.275  16.877  0.00  0.00    +0.000 C 
ATOM     15  O   UNL     1      -2.309  10.357  16.173  0.00  0.00    +0.000 OA
BRANCH  14  16
ATOM     16  O   UNL     1      -3.930  11.863  16.686  0.00  0.00    +0.000 OA
ATOM     17  H   UNL     1      -4.681  11.259  16.828  0.00  0.00    +0.000 HD
ENDBRANCH  14  16
ENDBRANCH  13  14
ENDBRANCH   9  11
ENDBRANCH   6   9
BRANCH   3  18
ATOM     18  N   UNL     1       3.341   6.908  18.315  0.00  0.00    +0.000 N 
BRANCH  18  19
ATOM     19  C   UNL     1       4.287   7.238  17.232  0.00  0.00    +0.000 C 
BRANCH  19  20
ATOM     20  C   UNL     1       5.314   6.188  16.829  0.00  0.00    +0.000 A 
ATOM     21  C   UNL     1       6.365   5.918  17.729  0.00  0.00    +0.000 A 
ATOM     22  C   UNL     1       7.343   4.964  17.440  0.00  0.00    +0.000 A 
ATOM     23  C   UNL     1       7.296   4.263  16.239  0.00  0.00    +0.000 A 
ATOM     24  C   UNL     1       6.271   4.513  15.322  0.00  0.00    +0.000 A 
ATOM     25  C   UNL     1       6.202   3.768  14.020  0.00  0.00    +0.000 C 
ATOM     26  C   UNL     1       5.289   5.471  15.625  0.00  0.00    +0.000 A 
ENDBRANCH  19  20
ENDBRANCH  18  19
BRANCH  18  27
ATOM     27  C   UNL     1       3.159   5.492  18.687  0.00  0.00    +0.000 C 
BRANCH  27  28
ATOM     28  C   UNL     1       2.157   4.737  17.848  0.00  0.00    +0.000 C 
ATOM     29  C   UNL     1       2.440   3.454  17.105  0.00  0.00    +0.000 C 
ATOM     30  C   UNL     1       1.628   3.407  18.364  0.00  0.00    +0.000 C 
ENDBRANCH  27  28
ENDBRANCH  18  27
ENDBRANCH   3  18
TORSDOF 10
ENDMDL
