MODEL 1
REMARK VINA RESULT:      -6.6      0.000      0.000
REMARK  Name = 
REMARK  4 active torsions:
REMARK  status: ('A' for Active; 'I' for Inactive)
REMARK    1  A    between atoms: C_1  and  C_2
REMARK    2  A    between atoms: C_5  and  S_6
REMARK    3  A    between atoms: S_6  and  C_9
REMARK    4  A    between atoms: C_18  and  C_19
REMARK                            x       y       z     vdW  Elec       q    Type
REMARK                         _______ _______ _______ _____ _____    ______ ____
ROOT
ATOM      1  C   UNL     1       6.474   5.112  16.496  0.00  0.00    +0.000 A 
ATOM      2  C   UNL     1       7.538   5.611  15.761  0.00  0.00    +0.000 A 
ATOM      3  N   UNL     1       7.752   5.362  14.457  0.00  0.00    +0.000 NA
ATOM      4  C   UNL     1       6.871   4.606  13.810  0.00  0.00    +0.000 A 
ATOM      5  C   UNL     1       7.153   4.375  12.471  0.00  0.00    +0.000 A 
ATOM      6  C   UNL     1       6.323   3.604  11.665  0.00  0.00    +0.000 A 
ATOM      7  C   UNL     1       5.162   3.086  12.203  0.00  0.00    +0.000 A 
ATOM      8  C   UNL     1       4.849   3.340  13.544  0.00  0.00    +0.000 A 
ATOM      9  C   UNL     1       5.713   4.063  14.422  0.00  0.00    +0.000 A 
ATOM     10  C   UNL     1       5.508   4.294  15.848  0.00  0.00    +0.000 A 
ENDROOT
BRANCH  10  11
ATOM     11  C   UNL     1       4.326   3.670  16.552  0.00  0.00    +0.000 A 
ATOM     12  C   UNL     1       3.043   4.260  16.520  0.00  0.00    +0.000 A 
ATOM     13  C   UNL     1       1.972   3.771  17.289  0.00  0.00    +0.000 A 
ATOM     14  C   UNL     1       2.118   2.598  18.012  0.00  0.00    +0.000 A 
ATOM     15 CL   UNL     1       0.810   1.977  18.938  0.00  0.00    +0.000 Cl
ATOM     16  C   UNL     1       3.338   1.941  18.007  0.00  0.00    +0.000 A 
ATOM     17  C   UNL     1       4.432   2.510  17.338  0.00  0.00    +0.000 A 
ENDBRANCH  10  11
BRANCH   1  18
ATOM     18  S   UNL     1       6.487   5.527  18.225  0.00  0.00    +0.000 S 
ATOM     19  O   UNL     1       7.286   6.729  18.367  0.00  0.00    +0.000 OA
ATOM     20  O   UNL     1       6.793   4.318  18.961  0.00  0.00    +0.000 OA
BRANCH  18  25
ATOM     21  C   UNL     1       0.992   7.237  20.186  0.00  0.00    +0.000 C 
ATOM     22  C   UNL     1       2.320   6.760  19.675  0.00  0.00    +0.000 A 
ATOM     23  C   UNL     1       2.971   5.662  20.260  0.00  0.00    +0.000 A 
ATOM     24  C   UNL     1       4.220   5.251  19.803  0.00  0.00    +0.000 A 
ATOM     25  C   UNL     1       4.834   5.959  18.767  0.00  0.00    +0.000 A 
ATOM     26  C   UNL     1       4.178   7.030  18.146  0.00  0.00    +0.000 A 
ATOM     27  C   UNL     1       2.925   7.431  18.605  0.00  0.00    +0.000 A 
ENDBRANCH  18  25
ENDBRANCH   1  18
TORSDOF 3
ENDMDL
MODEL 2
REMARK VINA RESULT:      -6.6      7.779     11.769
REMARK  Name = 
REMARK  4 active torsions:
REMARK  status: ('A' for Active; 'I' for Inactive)
REMARK    1  A    between atoms: C_1  and  C_2
REMARK    2  A    between atoms: C_5  and  S_6
REMARK    3  A    between atoms: S_6  and  C_9
REMARK    4  A    between atoms: C_18  and  C_19
REMARK                            x       y       z     vdW  Elec       q    Type
REMARK                         _______ _______ _______ _____ _____    ______ ____
ROOT
ATOM      1  C   UNL     1      -2.757  12.536  20.066  0.00  0.00    +0.000 A 
ATOM      2  C   UNL     1      -3.052  13.105  21.296  0.00  0.00    +0.000 A 
ATOM      3  N   UNL     1      -4.277  13.136  21.851  0.00  0.00    +0.000 NA
ATOM      4  C   UNL     1      -5.278  12.558  21.196  0.00  0.00    +0.000 A 
ATOM      5  C   UNL     1      -6.518  12.633  21.814  0.00  0.00    +0.000 A 
ATOM      6  C   UNL     1      -7.659  12.074  21.250  0.00  0.00    +0.000 A 
ATOM      7  C   UNL     1      -7.547  11.388  20.056  0.00  0.00    +0.000 A 
ATOM      8  C   UNL     1      -6.295  11.276  19.439  0.00  0.00    +0.000 A 
ATOM      9  C   UNL     1      -5.116  11.900  19.950  0.00  0.00    +0.000 A 
ATOM     10  C   UNL     1      -3.797  11.910  19.325  0.00  0.00    +0.000 A 
ENDROOT
BRANCH  10  11
ATOM     11  C   UNL     1      -3.601  11.285  17.965  0.00  0.00    +0.000 A 
ATOM     12  C   UNL     1      -2.769  10.159  17.774  0.00  0.00    +0.000 A 
ATOM     13  C   UNL     1      -2.463   9.659  16.496  0.00  0.00    +0.000 A 
ATOM     14  C   UNL     1      -3.085  10.191  15.377  0.00  0.00    +0.000 A 
ATOM     15 CL   UNL     1      -2.737   9.573  13.811  0.00  0.00    +0.000 Cl
ATOM     16  C   UNL     1      -3.972  11.244  15.526  0.00  0.00    +0.000 A 
ATOM     17  C   UNL     1      -4.170  11.814  16.794  0.00  0.00    +0.000 A 
ENDBRANCH  10  11
BRANCH   1  18
ATOM     18  S   UNL     1      -1.071  12.719  19.532  0.00  0.00    +0.000 S 
ATOM     19  O   UNL     1      -0.420  13.604  20.479  0.00  0.00    +0.000 OA
ATOM     20  O   UNL     1      -1.092  13.007  18.113  0.00  0.00    +0.000 OA
BRANCH  18  25
ATOM     21  C   UNL     1       2.004   7.508  20.125  0.00  0.00    +0.000 C 
ATOM     22  C   UNL     1       1.207   8.765  19.931  0.00  0.00    +0.000 A 
ATOM     23  C   UNL     1       1.359   9.550  18.777  0.00  0.00    +0.000 A 
ATOM     24  C   UNL     1       0.643  10.734  18.624  0.00  0.00    +0.000 A 
ATOM     25  C   UNL     1      -0.216  11.148  19.645  0.00  0.00    +0.000 A 
ATOM     26  C   UNL     1      -0.408  10.355  20.784  0.00  0.00    +0.000 A 
ATOM     27  C   UNL     1       0.308   9.168  20.926  0.00  0.00    +0.000 A 
ENDBRANCH  18  25
ENDBRANCH   1  18
TORSDOF 3
ENDMDL
MODEL 3
REMARK VINA RESULT:      -6.4      3.098      4.385
REMARK  Name = 
REMARK  4 active torsions:
REMARK  status: ('A' for Active; 'I' for Inactive)
REMARK    1  A    between atoms: C_1  and  C_2
REMARK    2  A    between atoms: C_5  and  S_6
REMARK    3  A    between atoms: S_6  and  C_9
REMARK    4  A    between atoms: C_18  and  C_19
REMARK                            x       y       z     vdW  Elec       q    Type
REMARK                         _______ _______ _______ _____ _____    ______ ____
ROOT
ATOM      1  C   UNL     1       5.054   4.711  17.262  0.00  0.00    +0.000 A 
ATOM      2  C   UNL     1       4.413   3.729  16.521  0.00  0.00    +0.000 A 
ATOM      3  N   UNL     1       4.721   3.403  15.253  0.00  0.00    +0.000 NA
ATOM      4  C   UNL     1       5.728   4.042  14.668  0.00  0.00    +0.000 A 
ATOM      5  C   UNL     1       5.990   3.670  13.357  0.00  0.00    +0.000 A 
ATOM      6  C   UNL     1       7.013   4.250  12.615  0.00  0.00    +0.000 A 
ATOM      7  C   UNL     1       7.820   5.196  13.216  0.00  0.00    +0.000 A 
ATOM      8  C   UNL     1       7.588   5.556  14.549  0.00  0.00    +0.000 A 
ATOM      9  C   UNL     1       6.501   5.039  15.317  0.00  0.00    +0.000 A 
ATOM     10  C   UNL     1       6.135   5.426  16.676  0.00  0.00    +0.000 A 
ENDROOT
BRANCH  10  11
ATOM     11  C   UNL     1       6.886   6.534  17.374  0.00  0.00    +0.000 A 
ATOM     12  C   UNL     1       6.718   7.891  17.015  0.00  0.00    +0.000 A 
ATOM     13  C   UNL     1       7.516   8.915  17.554  0.00  0.00    +0.000 A 
ATOM     14  C   UNL     1       8.417   8.629  18.568  0.00  0.00    +0.000 A 
ATOM     15 CL   UNL     1       9.382   9.876  19.252  0.00  0.00    +0.000 Cl
ATOM     16  C   UNL     1       8.556   7.323  19.009  0.00  0.00    +0.000 A 
ATOM     17  C   UNL     1       7.845   6.294  18.373  0.00  0.00    +0.000 A 
ENDBRANCH  10  11
BRANCH   1  18
ATOM     18  S   UNL     1       4.381   4.997  18.882  0.00  0.00    +0.000 S 
ATOM     19  O   UNL     1       5.490   5.351  19.747  0.00  0.00    +0.000 OA
ATOM     20  O   UNL     1       3.500   3.889  19.190  0.00  0.00    +0.000 OA
BRANCH  18  25
ATOM     21  C   UNL     1       0.932  10.004  18.807  0.00  0.00    +0.000 C 
ATOM     22  C   UNL     1       1.728   8.731  18.821  0.00  0.00    +0.000 A 
ATOM     23  C   UNL     1       1.729   7.889  19.944  0.00  0.00    +0.000 A 
ATOM     24  C   UNL     1       2.500   6.730  19.962  0.00  0.00    +0.000 A 
ATOM     25  C   UNL     1       3.294   6.422  18.854  0.00  0.00    +0.000 A 
ATOM     26  C   UNL     1       3.270   7.230  17.710  0.00  0.00    +0.000 A 
ATOM     27  C   UNL     1       2.491   8.386  17.699  0.00  0.00    +0.000 A 
ENDBRANCH  18  25
ENDBRANCH   1  18
TORSDOF 3
ENDMDL
MODEL 4
REMARK VINA RESULT:      -6.4      6.914     10.881
REMARK  Name = 
REMARK  4 active torsions:
REMARK  status: ('A' for Active; 'I' for Inactive)
REMARK    1  A    between atoms: C_1  and  C_2
REMARK    2  A    between atoms: C_5  and  S_6
REMARK    3  A    between atoms: S_6  and  C_9
REMARK    4  A    between atoms: C_18  and  C_19
REMARK                            x       y       z     vdW  Elec       q    Type
REMARK                         _______ _______ _______ _____ _____    ______ ____
ROOT
ATOM      1  C   UNL     1      -1.005  11.061  19.334  0.00  0.00    +0.000 A 
ATOM      2  C   UNL     1      -1.247  10.307  18.196  0.00  0.00    +0.000 A 
ATOM      3  N   UNL     1      -2.419  10.266  17.539  0.00  0.00    +0.000 NA
ATOM      4  C   UNL     1      -3.416  11.022  17.988  0.00  0.00    +0.000 A 
ATOM      5  C   UNL     1      -4.604  10.928  17.275  0.00  0.00    +0.000 A 
ATOM      6  C   UNL     1      -5.733  11.659  17.625  0.00  0.00    +0.000 A 
ATOM      7  C   UNL     1      -5.660  12.535  18.690  0.00  0.00    +0.000 A 
ATOM      8  C   UNL     1      -4.458  12.663  19.397  0.00  0.00    +0.000 A 
ATOM      9  C   UNL     1      -3.301  11.876  19.115  0.00  0.00    +0.000 A 
ATOM     10  C   UNL     1      -2.043  11.881  19.856  0.00  0.00    +0.000 A 
ENDROOT
BRANCH  10  11
ATOM     11  C   UNL     1      -1.905  12.719  21.104  0.00  0.00    +0.000 A 
ATOM     12  C   UNL     1      -1.217  13.954  21.101  0.00  0.00    +0.000 A 
ATOM     13  C   UNL     1      -0.956  14.671  22.281  0.00  0.00    +0.000 A 
ATOM     14  C   UNL     1      -1.490  14.240  23.486  0.00  0.00    +0.000 A 
ATOM     15 CL   UNL     1      -1.198  15.121  24.933  0.00  0.00    +0.000 Cl
ATOM     16  C   UNL     1      -2.241  13.076  23.521  0.00  0.00    +0.000 A 
ATOM     17  C   UNL     1      -2.386  12.305  22.357  0.00  0.00    +0.000 A 
ENDBRANCH  10  11
BRANCH   1  18
ATOM     18  S   UNL     1       0.609  10.853  20.051  0.00  0.00    +0.000 S 
ATOM     19  O   UNL     1       0.417  10.601  21.466  0.00  0.00    +0.000 OA
ATOM     20  O   UNL     1       1.440  11.941  19.578  0.00  0.00    +0.000 OA
BRANCH  18  25
ATOM     21  C   UNL     1       3.503   5.930  17.964  0.00  0.00    +0.000 C 
ATOM     22  C   UNL     1       2.737   7.130  18.438  0.00  0.00    +0.000 A 
ATOM     23  C   UNL     1       2.567   8.254  17.614  0.00  0.00    +0.000 A 
ATOM     24  C   UNL     1       1.888   9.378  18.077  0.00  0.00    +0.000 A 
ATOM     25  C   UNL     1       1.394   9.386  19.384  0.00  0.00    +0.000 A 
ATOM     26  C   UNL     1       1.519   8.256  20.203  0.00  0.00    +0.000 A 
ATOM     27  C   UNL     1       2.195   7.133  19.729  0.00  0.00    +0.000 A 
ENDBRANCH  18  25
ENDBRANCH   1  18
TORSDOF 3
ENDMDL
MODEL 5
REMARK VINA RESULT:      -6.3      2.224      6.196
REMARK  Name = 
REMARK  4 active torsions:
REMARK  status: ('A' for Active; 'I' for Inactive)
REMARK    1  A    between atoms: C_1  and  C_2
REMARK    2  A    between atoms: C_5  and  S_6
REMARK    3  A    between atoms: S_6  and  C_9
REMARK    4  A    between atoms: C_18  and  C_19
REMARK                            x       y       z     vdW  Elec       q    Type
REMARK                         _______ _______ _______ _____ _____    ______ ____
ROOT
ATOM      1  C   UNL     1       3.717   5.878  17.842  0.00  0.00    +0.000 A 
ATOM      2  C   UNL     1       4.092   6.909  16.993  0.00  0.00    +0.000 A 
ATOM      3  N   UNL     1       3.575   8.151  17.022  0.00  0.00    +0.000 NA
ATOM      4  C   UNL     1       2.659   8.428  17.944  0.00  0.00    +0.000 A 
ATOM      5  C   UNL     1       2.156   9.721  17.916  0.00  0.00    +0.000 A 
ATOM      6  C   UNL     1       1.193  10.158  18.818  0.00  0.00    +0.000 A 
ATOM      7  C   UNL     1       0.754   9.291  19.799  0.00  0.00    +0.000 A 
ATOM      8  C   UNL     1       1.278   7.994  19.860  0.00  0.00    +0.000 A 
ATOM      9  C   UNL     1       2.211   7.486  18.905  0.00  0.00    +0.000 A 
ATOM     10  C   UNL     1       2.737   6.125  18.842  0.00  0.00    +0.000 A 
ENDROOT
BRANCH  10  11
ATOM     11  C   UNL     1       2.230   5.074  19.800  0.00  0.00    +0.000 A 
ATOM     12  C   UNL     1       2.837   4.855  21.057  0.00  0.00    +0.000 A 
ATOM     13  C   UNL     1       2.469   3.787  21.893  0.00  0.00    +0.000 A 
ATOM     14  C   UNL     1       1.391   2.983  21.555  0.00  0.00    +0.000 A 
ATOM     15 CL   UNL     1       0.916   1.687  22.580  0.00  0.00    +0.000 Cl
ATOM     16  C   UNL     1       0.714   3.213  20.368  0.00  0.00    +0.000 A 
ATOM     17  C   UNL     1       1.173   4.202  19.485  0.00  0.00    +0.000 A 
ENDBRANCH  10  11
BRANCH   1  18
ATOM     18  S   UNL     1       4.497   4.313  17.521  0.00  0.00    +0.000 S 
ATOM     19  O   UNL     1       3.441   3.364  17.227  0.00  0.00    +0.000 OA
ATOM     20  O   UNL     1       5.457   4.079  18.581  0.00  0.00    +0.000 OA
BRANCH  18  25
ATOM     21  C   UNL     1       7.866   4.963  12.501  0.00  0.00    +0.000 C 
ATOM     22  C   UNL     1       7.045   4.736  13.737  0.00  0.00    +0.000 A 
ATOM     23  C   UNL     1       5.771   4.150  13.665  0.00  0.00    +0.000 A 
ATOM     24  C   UNL     1       5.002   3.979  14.812  0.00  0.00    +0.000 A 
ATOM     25  C   UNL     1       5.502   4.418  16.041  0.00  0.00    +0.000 A 
ATOM     26  C   UNL     1       6.788   4.966  16.134  0.00  0.00    +0.000 A 
ATOM     27  C   UNL     1       7.554   5.128  14.981  0.00  0.00    +0.000 A 
ENDBRANCH  18  25
ENDBRANCH   1  18
TORSDOF 3
ENDMDL
MODEL 6
REMARK VINA RESULT:      -6.3      2.665      6.524
REMARK  Name = 
REMARK  4 active torsions:
REMARK  status: ('A' for Active; 'I' for Inactive)
REMARK    1  A    between atoms: C_1  and  C_2
REMARK    2  A    between atoms: C_5  and  S_6
REMARK    3  A    between atoms: S_6  and  C_9
REMARK    4  A    between atoms: C_18  and  C_19
REMARK                            x       y       z     vdW  Elec       q    Type
REMARK                         _______ _______ _______ _____ _____    ______ ____
ROOT
ATOM      1  C   UNL     1       4.754   5.049  18.695  0.00  0.00    +0.000 A 
ATOM      2  C   UNL     1       5.326   3.817  18.972  0.00  0.00    +0.000 A 
ATOM      3  N   UNL     1       4.771   2.873  19.751  0.00  0.00    +0.000 NA
ATOM      4  C   UNL     1       3.574   3.117  20.277  0.00  0.00    +0.000 A 
ATOM      5  C   UNL     1       3.059   2.110  21.081  0.00  0.00    +0.000 A 
ATOM      6  C   UNL     1       1.819   2.221  21.698  0.00  0.00    +0.000 A 
ATOM      7  C   UNL     1       1.058   3.351  21.472  0.00  0.00    +0.000 A 
ATOM      8  C   UNL     1       1.552   4.360  20.636  0.00  0.00    +0.000 A 
ATOM      9  C   UNL     1       2.852   4.315  20.045  0.00  0.00    +0.000 A 
ATOM     10  C   UNL     1       3.477   5.359  19.239  0.00  0.00    +0.000 A 
ENDROOT
BRANCH  10  11
ATOM     11  C   UNL     1       2.772   6.677  19.031  0.00  0.00    +0.000 A 
ATOM     12  C   UNL     1       2.367   7.486  20.117  0.00  0.00    +0.000 A 
ATOM     13  C   UNL     1       1.583   8.640  19.943  0.00  0.00    +0.000 A 
ATOM     14  C   UNL     1       1.291   9.092  18.666  0.00  0.00    +0.000 A 
ATOM     15 CL   UNL     1       0.353  10.515  18.439  0.00  0.00    +0.000 Cl
ATOM     16  C   UNL     1       1.738   8.374  17.569  0.00  0.00    +0.000 A 
ATOM     17  C   UNL     1       2.410   7.157  17.761  0.00  0.00    +0.000 A 
ENDBRANCH  10  11
BRANCH   1  18
ATOM     18  S   UNL     1       5.751   6.142  17.708  0.00  0.00    +0.000 S 
ATOM     19  O   UNL     1       7.063   6.192  18.324  0.00  0.00    +0.000 OA
ATOM     20  O   UNL     1       4.977   7.342  17.469  0.00  0.00    +0.000 OA
BRANCH  18  25
ATOM     21  C   UNL     1       6.572   3.517  12.286  0.00  0.00    +0.000 C 
ATOM     22  C   UNL     1       6.369   4.224  13.594  0.00  0.00    +0.000 A 
ATOM     23  C   UNL     1       7.406   4.961  14.189  0.00  0.00    +0.000 A 
ATOM     24  C   UNL     1       7.220   5.582  15.420  0.00  0.00    +0.000 A 
ATOM     25  C   UNL     1       5.992   5.447  16.074  0.00  0.00    +0.000 A 
ATOM     26  C   UNL     1       4.935   4.752  15.473  0.00  0.00    +0.000 A 
ATOM     27  C   UNL     1       5.129   4.137  14.237  0.00  0.00    +0.000 A 
ENDBRANCH  18  25
ENDBRANCH   1  18
TORSDOF 3
ENDMDL
MODEL 7
REMARK VINA RESULT:      -6.2      7.023     10.043
REMARK  Name = 
REMARK  4 active torsions:
REMARK  status: ('A' for Active; 'I' for Inactive)
REMARK    1  A    between atoms: C_1  and  C_2
REMARK    2  A    between atoms: C_5  and  S_6
REMARK    3  A    between atoms: S_6  and  C_9
REMARK    4  A    between atoms: C_18  and  C_19
REMARK                            x       y       z     vdW  Elec       q    Type
REMARK                         _______ _______ _______ _____ _____    ______ ____
ROOT
ATOM      1  C   UNL     1      -1.041  11.620  20.240  0.00  0.00    +0.000 A 
ATOM      2  C   UNL     1      -2.146  12.456  20.210  0.00  0.00    +0.000 A 
ATOM      3  N   UNL     1      -3.083  12.454  19.245  0.00  0.00    +0.000 NA
ATOM      4  C   UNL     1      -2.964  11.571  18.259  0.00  0.00    +0.000 A 
ATOM      5  C   UNL     1      -3.954  11.625  17.288  0.00  0.00    +0.000 A 
ATOM      6  C   UNL     1      -3.965  10.764  16.196  0.00  0.00    +0.000 A 
ATOM      7  C   UNL     1      -2.982   9.799  16.096  0.00  0.00    +0.000 A 
ATOM      8  C   UNL     1      -1.996   9.712  17.087  0.00  0.00    +0.000 A 
ATOM      9  C   UNL     1      -1.910  10.625  18.182  0.00  0.00    +0.000 A 
ATOM     10  C   UNL     1      -0.868  10.663  19.203  0.00  0.00    +0.000 A 
ENDROOT
BRANCH  10  11
ATOM     11  C   UNL     1       0.310   9.722  19.115  0.00  0.00    +0.000 A 
ATOM     12  C   UNL     1       1.145   9.677  17.976  0.00  0.00    +0.000 A 
ATOM     13  C   UNL     1       2.153   8.709  17.821  0.00  0.00    +0.000 A 
ATOM     14  C   UNL     1       2.442   7.838  18.860  0.00  0.00    +0.000 A 
ATOM     15 CL   UNL     1       3.686   6.664  18.691  0.00  0.00    +0.000 Cl
ATOM     16  C   UNL     1       1.701   7.901  20.028  0.00  0.00    +0.000 A 
ATOM     17  C   UNL     1       0.616   8.787  20.119  0.00  0.00    +0.000 A 
ENDBRANCH  10  11
BRANCH   1  18
ATOM     18  S   UNL     1       0.086  11.903  21.586  0.00  0.00    +0.000 S 
ATOM     19  O   UNL     1       1.407  12.062  21.009  0.00  0.00    +0.000 OA
ATOM     20  O   UNL     1      -0.186  10.905  22.600  0.00  0.00    +0.000 OA
BRANCH  18  25
ATOM     21  C   UNL     1      -0.950  17.163  24.455  0.00  0.00    +0.000 C 
ATOM     22  C   UNL     1      -0.755  15.869  23.718  0.00  0.00    +0.000 A 
ATOM     23  C   UNL     1      -1.461  14.713  24.084  0.00  0.00    +0.000 A 
ATOM     24  C   UNL     1      -1.245  13.509  23.418  0.00  0.00    +0.000 A 
ATOM     25  C   UNL     1      -0.297  13.457  22.393  0.00  0.00    +0.000 A 
ATOM     26  C   UNL     1       0.384  14.613  21.990  0.00  0.00    +0.000 A 
ATOM     27  C   UNL     1       0.157  15.815  22.657  0.00  0.00    +0.000 A 
ENDBRANCH  18  25
ENDBRANCH   1  18
TORSDOF 3
ENDMDL
MODEL 8
REMARK VINA RESULT:      -6.2      6.926     10.891
REMARK  Name = 
REMARK  4 active torsions:
REMARK  status: ('A' for Active; 'I' for Inactive)
REMARK    1  A    between atoms: C_1  and  C_2
REMARK    2  A    between atoms: C_5  and  S_6
REMARK    3  A    between atoms: S_6  and  C_9
REMARK    4  A    between atoms: C_18  and  C_19
REMARK                            x       y       z     vdW  Elec       q    Type
REMARK                         _______ _______ _______ _____ _____    ______ ____
ROOT
ATOM      1  C   UNL     1      -0.867  11.178  19.415  0.00  0.00    +0.000 A 
ATOM      2  C   UNL     1      -1.111  10.474  18.246  0.00  0.00    +0.000 A 
ATOM      3  N   UNL     1      -2.296  10.428  17.612  0.00  0.00    +0.000 NA
ATOM      4  C   UNL     1      -3.306  11.128  18.120  0.00  0.00    +0.000 A 
ATOM      5  C   UNL     1      -4.505  11.031  17.428  0.00  0.00    +0.000 A 
ATOM      6  C   UNL     1      -5.649  11.707  17.838  0.00  0.00    +0.000 A 
ATOM      7  C   UNL     1      -5.579  12.531  18.944  0.00  0.00    +0.000 A 
ATOM      8  C   UNL     1      -4.366  12.663  19.631  0.00  0.00    +0.000 A 
ATOM      9  C   UNL     1      -3.191  11.928  19.285  0.00  0.00    +0.000 A 
ATOM     10  C   UNL     1      -1.918  11.937  19.999  0.00  0.00    +0.000 A 
ENDROOT
BRANCH  10  11
ATOM     11  C   UNL     1      -1.778  12.718  21.284  0.00  0.00    +0.000 A 
ATOM     12  C   UNL     1      -2.344  12.265  22.497  0.00  0.00    +0.000 A 
ATOM     13  C   UNL     1      -2.347  13.049  23.664  0.00  0.00    +0.000 A 
ATOM     14  C   UNL     1      -1.667  14.257  23.687  0.00  0.00    +0.000 A 
ATOM     15 CL   UNL     1      -1.644  15.215  25.114  0.00  0.00    +0.000 Cl
ATOM     16  C   UNL     1      -1.028  14.702  22.542  0.00  0.00    +0.000 A 
ATOM     17  C   UNL     1      -1.141  13.969  21.351  0.00  0.00    +0.000 A 
ENDBRANCH  10  11
BRANCH   1  18
ATOM     18  S   UNL     1       0.769  10.988  20.086  0.00  0.00    +0.000 S 
ATOM     19  O   UNL     1       0.625  10.851  21.523  0.00  0.00    +0.000 OA
ATOM     20  O   UNL     1       1.603  12.015  19.500  0.00  0.00    +0.000 OA
BRANCH  18  25
ATOM     21  C   UNL     1       2.997   5.746  17.958  0.00  0.00    +0.000 C 
ATOM     22  C   UNL     1       2.502   7.047  18.521  0.00  0.00    +0.000 A 
ATOM     23  C   UNL     1       2.058   7.140  19.850  0.00  0.00    +0.000 A 
ATOM     24  C   UNL     1       1.566   8.342  20.351  0.00  0.00    +0.000 A 
ATOM     25  C   UNL     1       1.496   9.455  19.509  0.00  0.00    +0.000 A 
ATOM     26  C   UNL     1       1.974   9.387  18.194  0.00  0.00    +0.000 A 
ATOM     27  C   UNL     1       2.471   8.182  17.702  0.00  0.00    +0.000 A 
ENDBRANCH  18  25
ENDBRANCH   1  18
TORSDOF 3
ENDMDL
MODEL 9
REMARK VINA RESULT:      -6.2      6.508      9.676
REMARK  Name = 
REMARK  4 active torsions:
REMARK  status: ('A' for Active; 'I' for Inactive)
REMARK    1  A    between atoms: C_1  and  C_2
REMARK    2  A    between atoms: C_5  and  S_6
REMARK    3  A    between atoms: S_6  and  C_9
REMARK    4  A    between atoms: C_18  and  C_19
REMARK                            x       y       z     vdW  Elec       q    Type
REMARK                         _______ _______ _______ _____ _____    ______ ____
ROOT
ATOM      1  C   UNL     1      -0.584  12.013  20.193  0.00  0.00    +0.000 A 
ATOM      2  C   UNL     1      -1.649  12.899  20.267  0.00  0.00    +0.000 A 
ATOM      3  N   UNL     1      -2.774  12.807  19.536  0.00  0.00    +0.000 NA
ATOM      4  C   UNL     1      -2.896  11.781  18.700  0.00  0.00    +0.000 A 
ATOM      5  C   UNL     1      -4.074  11.747  17.966  0.00  0.00    +0.000 A 
ATOM      6  C   UNL     1      -4.344  10.736  17.052  0.00  0.00    +0.000 A 
ATOM      7  C   UNL     1      -3.431   9.710  16.899  0.00  0.00    +0.000 A 
ATOM      8  C   UNL     1      -2.255   9.715  17.659  0.00  0.00    +0.000 A 
ATOM      9  C   UNL     1      -1.908  10.775  18.551  0.00  0.00    +0.000 A 
ATOM     10  C   UNL     1      -0.666  10.904  19.308  0.00  0.00    +0.000 A 
ENDROOT
BRANCH  10  11
ATOM     11  C   UNL     1       0.440   9.894  19.121  0.00  0.00    +0.000 A 
ATOM     12  C   UNL     1       1.228   9.859  17.948  0.00  0.00    +0.000 A 
ATOM     13  C   UNL     1       2.160   8.836  17.700  0.00  0.00    +0.000 A 
ATOM     14  C   UNL     1       2.426   7.890  18.677  0.00  0.00    +0.000 A 
ATOM     15 CL   UNL     1       3.581   6.648  18.394  0.00  0.00    +0.000 Cl
ATOM     16  C   UNL     1       1.735   7.934  19.876  0.00  0.00    +0.000 A 
ATOM     17  C   UNL     1       0.718   8.884  20.059  0.00  0.00    +0.000 A 
ENDBRANCH  10  11
BRANCH   1  18
ATOM     18  S   UNL     1       0.817  12.428  21.206  0.00  0.00    +0.000 S 
ATOM     19  O   UNL     1       1.430  11.179  21.615  0.00  0.00    +0.000 OA
ATOM     20  O   UNL     1       0.380  13.413  22.173  0.00  0.00    +0.000 OA
BRANCH  18  25
ATOM     21  C   UNL     1       5.114  15.100  17.834  0.00  0.00    +0.000 C 
ATOM     22  C   UNL     1       4.027  14.501  18.679  0.00  0.00    +0.000 A 
ATOM     23  C   UNL     1       4.035  14.640  20.076  0.00  0.00    +0.000 A 
ATOM     24  C   UNL     1       3.044  14.049  20.854  0.00  0.00    +0.000 A 
ATOM     25  C   UNL     1       2.047  13.293  20.231  0.00  0.00    +0.000 A 
ATOM     26  C   UNL     1       2.003  13.181  18.835  0.00  0.00    +0.000 A 
ATOM     27  C   UNL     1       2.996  13.782  18.063  0.00  0.00    +0.000 A 
ENDBRANCH  18  25
ENDBRANCH   1  18
TORSDOF 3
ENDMDL
