MODEL 1
REMARK VINA RESULT:      -9.1      0.000      0.000
REMARK  Name = 
REMARK  10 active torsions:
REMARK  status: ('A' for Active; 'I' for Inactive)
REMARK    1  A    between atoms: C_1  and  C_2
REMARK    2  A    between atoms: C_2  and  C_3
REMARK    3  A    between atoms: C_10  and  S_11
REMARK    4  A    between atoms: S_11  and  N_14
REMARK    5  A    between atoms: N_14  and  C_15
REMARK    6  A    between atoms: C_15  and  C_16
REMARK    7  A    between atoms: C_16  and  C_17
REMARK    8  A    between atoms: N_22  and  C_23
REMARK    9  A    between atoms: C_27  and  C_28
REMARK   10  A    between atoms: C_30  and  C_31
REMARK                            x       y       z     vdW  Elec       q    Type
REMARK                         _______ _______ _______ _____ _____    ______ ____
ROOT
ATOM      1  N   UNL     1       2.130   4.494  21.218  0.00  0.00    +0.000 NA
ATOM      2  H   UNL     1       2.769   4.782  21.959  0.00  0.00    +0.000 HD
ENDROOT
BRANCH   1   3
ATOM      3  S   UNL     1       2.683   3.036  20.506  0.00  0.00    +0.000 S 
ATOM      4  O   UNL     1       1.560   2.382  19.880  0.00  0.00    +0.000 OA
ATOM      5  O   UNL     1       3.512   2.362  21.485  0.00  0.00    +0.000 OA
BRANCH   3  13
ATOM      6  C   UNL     1       6.740   4.872  14.992  0.00  0.00    +0.000 C 
ATOM      7  O   UNL     1       7.728   5.416  14.473  0.00  0.00    +0.000 OA
ATOM      8  N   UNL     1       6.529   4.951  16.360  0.00  0.00    +0.000 N 
ATOM      9  C   UNL     1       7.389   5.817  17.175  0.00  0.00    +0.000 C 
ATOM     10  C   UNL     1       7.004   5.594  18.641  0.00  0.00    +0.000 C 
ATOM     11  C   UNL     1       5.728   4.810  18.508  0.00  0.00    +0.000 A 
ATOM     12  C   UNL     1       4.876   4.425  19.539  0.00  0.00    +0.000 A 
ATOM     13  C   UNL     1       3.773   3.622  19.215  0.00  0.00    +0.000 A 
ATOM     14  C   UNL     1       3.579   3.180  17.898  0.00  0.00    +0.000 A 
ATOM     15  C   UNL     1       4.460   3.570  16.884  0.00  0.00    +0.000 A 
ATOM     16  C   UNL     1       5.523   4.409  17.185  0.00  0.00    +0.000 A 
BRANCH   6  18
ATOM     17  C   UNL     1       6.287   3.694  12.795  0.00  0.00    +0.000 C 
ATOM     18  C   UNL     1       5.728   4.132  14.136  0.00  0.00    +0.000 C 
ENDBRANCH   6  18
ENDBRANCH   3  13
ENDBRANCH   1   3
BRANCH   1  19
ATOM     19  C   UNL     1       1.787   5.557  20.242  0.00  0.00    +0.000 C 
BRANCH  19  20
ATOM     20  C   UNL     1       1.891   6.957  20.847  0.00  0.00    +0.000 C 
BRANCH  20  21
ATOM     21  C   UNL     1       1.759   8.009  19.748  0.00  0.00    +0.000 C 
ATOM     22  O   UNL     1       2.135   7.772  18.601  0.00  0.00    +0.000 OA
ATOM     23  N   UNL     1       1.169   9.211  20.092  0.00  0.00    +0.000 N 
ATOM     24  C   UNL     1       0.842  10.185  19.041  0.00  0.00    +0.000 C 
ATOM     25  C   UNL     1      -0.627  10.630  19.144  0.00  0.00    +0.000 C 
ATOM     26  N   UNL     1      -0.906  11.150  20.508  0.00  0.00    +0.000 N 
ATOM     27  C   UNL     1      -0.590  10.178  21.597  0.00  0.00    +0.000 C 
ATOM     28  C   UNL     1      -0.852  10.623  23.032  0.00  0.00    +0.000 C 
ATOM     29  C   UNL     1       0.881   9.693  21.450  0.00  0.00    +0.000 C 
BRANCH  26  30
ATOM     30  C   UNL     1      -1.436  12.429  20.641  0.00  0.00    +0.000 A 
ATOM     31  C   UNL     1      -0.627  13.564  20.721  0.00  0.00    +0.000 A 
ATOM     32  C   UNL     1      -1.129  14.849  20.893  0.00  0.00    +0.000 A 
ATOM     33  C   UNL     1      -2.491  15.039  20.922  0.00  0.00    +0.000 A 
ATOM     34  C   UNL     1      -3.357  13.959  20.790  0.00  0.00    +0.000 A 
ATOM     35  C   UNL     1      -4.837  14.160  20.795  0.00  0.00    +0.000 C 
ATOM     36  C   UNL     1      -2.812  12.659  20.659  0.00  0.00    +0.000 A 
ENDBRANCH  26  30
ENDBRANCH  20  21
ENDBRANCH  19  20
ENDBRANCH   1  19
TORSDOF 7
ENDMDL
MODEL 2
REMARK VINA RESULT:      -9.0      0.524      1.246
REMARK  Name = 
REMARK  10 active torsions:
REMARK  status: ('A' for Active; 'I' for Inactive)
REMARK    1  A    between atoms: C_1  and  C_2
REMARK    2  A    between atoms: C_2  and  C_3
REMARK    3  A    between atoms: C_10  and  S_11
REMARK    4  A    between atoms: S_11  and  N_14
REMARK    5  A    between atoms: N_14  and  C_15
REMARK    6  A    between atoms: C_15  and  C_16
REMARK    7  A    between atoms: C_16  and  C_17
REMARK    8  A    between atoms: N_22  and  C_23
REMARK    9  A    between atoms: C_27  and  C_28
REMARK   10  A    between atoms: C_30  and  C_31
REMARK                            x       y       z     vdW  Elec       q    Type
REMARK                         _______ _______ _______ _____ _____    ______ ____
ROOT
ATOM      1  N   UNL     1       1.639   4.221  20.775  0.00  0.00    +0.000 NA
ATOM      2  H   UNL     1       1.743   4.408  21.772  0.00  0.00    +0.000 HD
ENDROOT
BRANCH   1   3
ATOM      3  S   UNL     1       2.543   2.829  20.345  0.00  0.00    +0.000 S 
ATOM      4  O   UNL     1       1.654   1.891  19.703  0.00  0.00    +0.000 OA
ATOM      5  O   UNL     1       3.344   2.460  21.493  0.00  0.00    +0.000 OA
BRANCH   3  13
ATOM      6  C   UNL     1       6.723   4.893  15.006  0.00  0.00    +0.000 C 
ATOM      7  O   UNL     1       7.735   5.435  14.534  0.00  0.00    +0.000 OA
ATOM      8  N   UNL     1       6.500   4.885  16.374  0.00  0.00    +0.000 N 
ATOM      9  C   UNL     1       7.381   5.661  17.255  0.00  0.00    +0.000 C 
ATOM     10  C   UNL     1       6.972   5.352  18.698  0.00  0.00    +0.000 C 
ATOM     11  C   UNL     1       5.670   4.625  18.501  0.00  0.00    +0.000 A 
ATOM     12  C   UNL     1       4.794   4.202  19.495  0.00  0.00    +0.000 A 
ATOM     13  C   UNL     1       3.667   3.463  19.107  0.00  0.00    +0.000 A 
ATOM     14  C   UNL     1       3.472   3.119  17.760  0.00  0.00    +0.000 A 
ATOM     15  C   UNL     1       4.378   3.547  16.784  0.00  0.00    +0.000 A 
ATOM     16  C   UNL     1       5.466   4.324  17.151  0.00  0.00    +0.000 A 
BRANCH   6  18
ATOM     17  C   UNL     1       6.306   3.632  12.848  0.00  0.00    +0.000 C 
ATOM     18  C   UNL     1       5.695   4.249  14.092  0.00  0.00    +0.000 C 
ENDBRANCH   6  18
ENDBRANCH   3  13
ENDBRANCH   1   3
BRANCH   1  19
ATOM     19  C   UNL     1       1.868   5.393  19.894  0.00  0.00    +0.000 C 
BRANCH  19  20
ATOM     20  C   UNL     1       1.924   6.705  20.676  0.00  0.00    +0.000 C 
BRANCH  20  21
ATOM     21  C   UNL     1       1.863   7.888  19.711  0.00  0.00    +0.000 C 
ATOM     22  O   UNL     1       2.276   7.781  18.558  0.00  0.00    +0.000 OA
ATOM     23  N   UNL     1       1.293   9.056  20.180  0.00  0.00    +0.000 N 
ATOM     24  C   UNL     1       1.032  10.161  19.247  0.00  0.00    +0.000 C 
ATOM     25  C   UNL     1      -0.427  10.636  19.353  0.00  0.00    +0.000 C 
ATOM     26  N   UNL     1      -0.744  10.994  20.759  0.00  0.00    +0.000 N 
ATOM     27  C   UNL     1      -0.497   9.886  21.730  0.00  0.00    +0.000 C 
ATOM     28  C   UNL     1      -0.802  10.161  23.200  0.00  0.00    +0.000 C 
ATOM     29  C   UNL     1       0.966   9.377  21.576  0.00  0.00    +0.000 C 
BRANCH  26  30
ATOM     30  C   UNL     1      -1.244  12.263  21.031  0.00  0.00    +0.000 A 
ATOM     31  C   UNL     1      -2.575  12.606  20.782  0.00  0.00    +0.000 A 
ATOM     32  C   UNL     1      -3.090  13.878  21.009  0.00  0.00    +0.000 A 
ATOM     33  C   UNL     1      -2.282  14.840  21.568  0.00  0.00    +0.000 A 
ATOM     34  C   UNL     1      -0.962  14.549  21.895  0.00  0.00    +0.000 A 
ATOM     35  C   UNL     1      -0.085  15.581  22.525  0.00  0.00    +0.000 C 
ATOM     36  C   UNL     1      -0.457  13.258  21.611  0.00  0.00    +0.000 A 
ENDBRANCH  26  30
ENDBRANCH  20  21
ENDBRANCH  19  20
ENDBRANCH   1  19
TORSDOF 7
ENDMDL
MODEL 3
REMARK VINA RESULT:      -8.9      1.636      2.288
REMARK  Name = 
REMARK  10 active torsions:
REMARK  status: ('A' for Active; 'I' for Inactive)
REMARK    1  A    between atoms: C_1  and  C_2
REMARK    2  A    between atoms: C_2  and  C_3
REMARK    3  A    between atoms: C_10  and  S_11
REMARK    4  A    between atoms: S_11  and  N_14
REMARK    5  A    between atoms: N_14  and  C_15
REMARK    6  A    between atoms: C_15  and  C_16
REMARK    7  A    between atoms: C_16  and  C_17
REMARK    8  A    between atoms: N_22  and  C_23
REMARK    9  A    between atoms: C_27  and  C_28
REMARK   10  A    between atoms: C_30  and  C_31
REMARK                            x       y       z     vdW  Elec       q    Type
REMARK                         _______ _______ _______ _____ _____    ______ ____
ROOT
ATOM      1  N   UNL     1       2.168   3.954  21.167  0.00  0.00    +0.000 NA
ATOM      2  H   UNL     1       2.842   4.467  21.735  0.00  0.00    +0.000 HD
ENDROOT
BRANCH   1   3
ATOM      3  S   UNL     1       2.919   2.581  20.468  0.00  0.00    +0.000 S 
ATOM      4  O   UNL     1       1.898   1.776  19.841  0.00  0.00    +0.000 OA
ATOM      5  O   UNL     1       3.826   2.033  21.455  0.00  0.00    +0.000 OA
BRANCH   3  13
ATOM      6  C   UNL     1       6.662   4.961  14.940  0.00  0.00    +0.000 C 
ATOM      7  O   UNL     1       7.596   5.593  14.421  0.00  0.00    +0.000 OA
ATOM      8  N   UNL     1       6.494   4.953  16.316  0.00  0.00    +0.000 N 
ATOM      9  C   UNL     1       7.328   5.827  17.151  0.00  0.00    +0.000 C 
ATOM     10  C   UNL     1       7.008   5.501  18.613  0.00  0.00    +0.000 C 
ATOM     11  C   UNL     1       5.778   4.647  18.477  0.00  0.00    +0.000 A 
ATOM     12  C   UNL     1       4.988   4.155  19.512  0.00  0.00    +0.000 A 
ATOM     13  C   UNL     1       3.925   3.303  19.178  0.00  0.00    +0.000 A 
ATOM     14  C   UNL     1       3.713   2.920  17.845  0.00  0.00    +0.000 A 
ATOM     15  C   UNL     1       4.533   3.419  16.827  0.00  0.00    +0.000 A 
ATOM     16  C   UNL     1       5.552   4.306  17.141  0.00  0.00    +0.000 A 
BRANCH   6  18
ATOM     17  C   UNL     1       6.302   3.570  12.853  0.00  0.00    +0.000 C 
ATOM     18  C   UNL     1       5.668   4.205  14.077  0.00  0.00    +0.000 C 
ENDBRANCH   6  18
ENDBRANCH   3  13
ENDBRANCH   1   3
BRANCH   1  19
ATOM     19  C   UNL     1       1.403   4.787  20.206  0.00  0.00    +0.000 C 
BRANCH  19  20
ATOM     20  C   UNL     1       1.420   6.269  20.579  0.00  0.00    +0.000 C 
BRANCH  20  21
ATOM     21  C   UNL     1       1.998   7.088  19.426  0.00  0.00    +0.000 C 
ATOM     22  O   UNL     1       2.502   6.534  18.450  0.00  0.00    +0.000 OA
ATOM     23  N   UNL     1       1.893   8.463  19.514  0.00  0.00    +0.000 N 
ATOM     24  C   UNL     1       2.255   9.294  18.357  0.00  0.00    +0.000 C 
ATOM     25  C   UNL     1       1.122  10.274  18.010  0.00  0.00    +0.000 C 
ATOM     26  N   UNL     1       0.769  11.086  19.203  0.00  0.00    +0.000 N 
ATOM     27  C   UNL     1       0.389  10.268  20.394  0.00  0.00    +0.000 C 
ATOM     28  C   UNL     1       0.004  11.018  21.666  0.00  0.00    +0.000 C 
ATOM     29  C   UNL     1       1.519   9.243  20.702  0.00  0.00    +0.000 C 
BRANCH  26  30
ATOM     30  C   UNL     1       0.799  12.473  19.103  0.00  0.00    +0.000 A 
ATOM     31  C   UNL     1      -0.343  13.221  18.808  0.00  0.00    +0.000 A 
ATOM     32  C   UNL     1      -0.333  14.604  18.665  0.00  0.00    +0.000 A 
ATOM     33  C   UNL     1       0.836  15.294  18.885  0.00  0.00    +0.000 A 
ATOM     34  C   UNL     1       1.999  14.617  19.238  0.00  0.00    +0.000 A 
ATOM     35  C   UNL     1       3.267  15.360  19.503  0.00  0.00    +0.000 C 
ATOM     36  C   UNL     1       1.964  13.205  19.334  0.00  0.00    +0.000 A 
ENDBRANCH  26  30
ENDBRANCH  20  21
ENDBRANCH  19  20
ENDBRANCH   1  19
TORSDOF 7
ENDMDL
MODEL 4
REMARK VINA RESULT:      -8.5      1.881      2.790
REMARK  Name = 
REMARK  10 active torsions:
REMARK  status: ('A' for Active; 'I' for Inactive)
REMARK    1  A    between atoms: C_1  and  C_2
REMARK    2  A    between atoms: C_2  and  C_3
REMARK    3  A    between atoms: C_10  and  S_11
REMARK    4  A    between atoms: S_11  and  N_14
REMARK    5  A    between atoms: N_14  and  C_15
REMARK    6  A    between atoms: C_15  and  C_16
REMARK    7  A    between atoms: C_16  and  C_17
REMARK    8  A    between atoms: N_22  and  C_23
REMARK    9  A    between atoms: C_27  and  C_28
REMARK   10  A    between atoms: C_30  and  C_31
REMARK                            x       y       z     vdW  Elec       q    Type
REMARK                         _______ _______ _______ _____ _____    ______ ____
ROOT
ATOM      1  N   UNL     1       2.233   5.726  21.145  0.00  0.00    +0.000 NA
ATOM      2  H   UNL     1       3.156   6.158  21.097  0.00  0.00    +0.000 HD
ENDROOT
BRANCH   1   3
ATOM      3  S   UNL     1       2.241   4.238  20.293  0.00  0.00    +0.000 S 
ATOM      4  O   UNL     1       0.954   4.069  19.665  0.00  0.00    +0.000 OA
ATOM      5  O   UNL     1       2.798   3.235  21.177  0.00  0.00    +0.000 OA
BRANCH   3  13
ATOM      6  C   UNL     1       6.783   4.855  14.887  0.00  0.00    +0.000 C 
ATOM      7  O   UNL     1       7.830   5.260  14.357  0.00  0.00    +0.000 OA
ATOM      8  N   UNL     1       6.472   5.204  16.192  0.00  0.00    +0.000 N 
ATOM      9  C   UNL     1       7.304   6.188  16.895  0.00  0.00    +0.000 C 
ATOM     10  C   UNL     1       6.799   6.264  18.339  0.00  0.00    +0.000 C 
ATOM     11  C   UNL     1       5.503   5.505  18.254  0.00  0.00    +0.000 A 
ATOM     12  C   UNL     1       4.560   5.352  19.265  0.00  0.00    +0.000 A 
ATOM     13  C   UNL     1       3.451   4.532  19.009  0.00  0.00    +0.000 A 
ATOM     14  C   UNL     1       3.339   3.848  17.790  0.00  0.00    +0.000 A 
ATOM     15  C   UNL     1       4.311   4.009  16.797  0.00  0.00    +0.000 A 
ATOM     16  C   UNL     1       5.383   4.861  17.019  0.00  0.00    +0.000 A 
BRANCH   6  18
ATOM     17  C   UNL     1       6.277   3.686  12.697  0.00  0.00    +0.000 C 
ATOM     18  C   UNL     1       5.808   3.991  14.108  0.00  0.00    +0.000 C 
ENDBRANCH   6  18
ENDBRANCH   3  13
ENDBRANCH   1   3
BRANCH   1  19
ATOM     19  C   UNL     1       1.106   6.624  20.795  0.00  0.00    +0.000 C 
BRANCH  19  20
ATOM     20  C   UNL     1       1.546   8.080  20.651  0.00  0.00    +0.000 C 
BRANCH  20  21
ATOM     21  C   UNL     1       0.463   9.007  21.202  0.00  0.00    +0.000 C 
ATOM     22  O   UNL     1      -0.238   8.661  22.152  0.00  0.00    +0.000 OA
ATOM     23  N   UNL     1       0.338  10.251  20.614  0.00  0.00    +0.000 N 
ATOM     24  C   UNL     1      -0.550  11.253  21.220  0.00  0.00    +0.000 C 
ATOM     25  C   UNL     1       0.191  12.584  21.434  0.00  0.00    +0.000 C 
ATOM     26  N   UNL     1       0.781  13.049  20.152  0.00  0.00    +0.000 N 
ATOM     27  C   UNL     1       1.695  12.053  19.517  0.00  0.00    +0.000 C 
ATOM     28  C   UNL     1       2.355  12.447  18.199  0.00  0.00    +0.000 C 
ATOM     29  C   UNL     1       0.952  10.696  19.355  0.00  0.00    +0.000 C 
BRANCH  26  30
ATOM     30  C   UNL     1       0.465  14.322  19.692  0.00  0.00    +0.000 A 
ATOM     31  C   UNL     1      -0.782  14.907  19.922  0.00  0.00    +0.000 A 
ATOM     32  C   UNL     1      -1.138  16.162  19.441  0.00  0.00    +0.000 A 
ATOM     33  C   UNL     1      -0.205  16.908  18.758  0.00  0.00    +0.000 A 
ATOM     34  C   UNL     1       1.076  16.411  18.543  0.00  0.00    +0.000 A 
ATOM     35  C   UNL     1       2.102  17.224  17.824  0.00  0.00    +0.000 C 
ATOM     36  C   UNL     1       1.391  15.112  19.009  0.00  0.00    +0.000 A 
ENDBRANCH  26  30
ENDBRANCH  20  21
ENDBRANCH  19  20
ENDBRANCH   1  19
TORSDOF 7
ENDMDL
MODEL 5
REMARK VINA RESULT:      -8.3      1.601      2.388
REMARK  Name = 
REMARK  10 active torsions:
REMARK  status: ('A' for Active; 'I' for Inactive)
REMARK    1  A    between atoms: C_1  and  C_2
REMARK    2  A    between atoms: C_2  and  C_3
REMARK    3  A    between atoms: C_10  and  S_11
REMARK    4  A    between atoms: S_11  and  N_14
REMARK    5  A    between atoms: N_14  and  C_15
REMARK    6  A    between atoms: C_15  and  C_16
REMARK    7  A    between atoms: C_16  and  C_17
REMARK    8  A    between atoms: N_22  and  C_23
REMARK    9  A    between atoms: C_27  and  C_28
REMARK   10  A    between atoms: C_30  and  C_31
REMARK                            x       y       z     vdW  Elec       q    Type
REMARK                         _______ _______ _______ _____ _____    ______ ____
ROOT
ATOM      1  N   UNL     1       1.911   5.975  21.125  0.00  0.00    +0.000 NA
ATOM      2  H   UNL     1       2.563   6.084  21.903  0.00  0.00    +0.000 HD
ENDROOT
BRANCH   1   3
ATOM      3  S   UNL     1       2.069   4.409  20.446  0.00  0.00    +0.000 S 
ATOM      4  O   UNL     1       0.828   4.070  19.794  0.00  0.00    +0.000 OA
ATOM      5  O   UNL     1       2.661   3.556  21.456  0.00  0.00    +0.000 OA
BRANCH   3  13
ATOM      6  C   UNL     1       6.655   4.924  15.067  0.00  0.00    +0.000 C 
ATOM      7  O   UNL     1       7.750   5.226  14.566  0.00  0.00    +0.000 OA
ATOM      8  N   UNL     1       6.397   5.176  16.405  0.00  0.00    +0.000 N 
ATOM      9  C   UNL     1       7.364   5.950  17.194  0.00  0.00    +0.000 C 
ATOM     10  C   UNL     1       6.874   5.947  18.645  0.00  0.00    +0.000 C 
ATOM     11  C   UNL     1       5.482   5.397  18.501  0.00  0.00    +0.000 A 
ATOM     12  C   UNL     1       4.526   5.277  19.504  0.00  0.00    +0.000 A 
ATOM     13  C   UNL     1       3.309   4.657  19.182  0.00  0.00    +0.000 A 
ATOM     14  C   UNL     1       3.100   4.128  17.899  0.00  0.00    +0.000 A 
ATOM     15  C   UNL     1       4.086   4.250  16.915  0.00  0.00    +0.000 A 
ATOM     16  C   UNL     1       5.270   4.910  17.208  0.00  0.00    +0.000 A 
BRANCH   6  18
ATOM     17  C   UNL     1       6.096   3.633  12.959  0.00  0.00    +0.000 C 
ATOM     18  C   UNL     1       5.565   4.296  14.216  0.00  0.00    +0.000 C 
ENDBRANCH   6  18
ENDBRANCH   3  13
ENDBRANCH   1   3
BRANCH   1  19
ATOM     19  C   UNL     1       1.938   7.077  20.132  0.00  0.00    +0.000 C 
BRANCH  19  20
ATOM     20  C   UNL     1       0.699   7.968  20.220  0.00  0.00    +0.000 C 
BRANCH  20  21
ATOM     21  C   UNL     1       0.952   9.113  21.201  0.00  0.00    +0.000 C 
ATOM     22  O   UNL     1       1.698   8.961  22.167  0.00  0.00    +0.000 OA
ATOM     23  N   UNL     1       0.342  10.322  20.930  0.00  0.00    +0.000 N 
ATOM     24  C   UNL     1       0.696  11.507  21.723  0.00  0.00    +0.000 C 
ATOM     25  C   UNL     1       1.080  12.684  20.810  0.00  0.00    +0.000 C 
ATOM     26  N   UNL     1      -0.016  12.955  19.843  0.00  0.00    +0.000 N 
ATOM     27  C   UNL     1      -0.392  11.770  19.017  0.00  0.00    +0.000 C 
ATOM     28  C   UNL     1      -1.505  11.956  17.989  0.00  0.00    +0.000 C 
ATOM     29  C   UNL     1      -0.725  10.570  19.950  0.00  0.00    +0.000 C 
BRANCH  26  30
ATOM     30  C   UNL     1      -0.551  14.237  19.780  0.00  0.00    +0.000 A 
ATOM     31  C   UNL     1      -1.580  14.655  20.626  0.00  0.00    +0.000 A 
ATOM     32  C   UNL     1      -2.159  15.918  20.558  0.00  0.00    +0.000 A 
ATOM     33  C   UNL     1      -1.662  16.837  19.664  0.00  0.00    +0.000 A 
ATOM     34  C   UNL     1      -0.599  16.507  18.830  0.00  0.00    +0.000 A 
ATOM     35  C   UNL     1      -0.037  17.506  17.874  0.00  0.00    +0.000 C 
ATOM     36  C   UNL     1      -0.061  15.199  18.895  0.00  0.00    +0.000 A 
ENDBRANCH  26  30
ENDBRANCH  20  21
ENDBRANCH  19  20
ENDBRANCH   1  19
TORSDOF 7
ENDMDL
MODEL 6
REMARK VINA RESULT:      -8.3      1.330      1.972
REMARK  Name = 
REMARK  10 active torsions:
REMARK  status: ('A' for Active; 'I' for Inactive)
REMARK    1  A    between atoms: C_1  and  C_2
REMARK    2  A    between atoms: C_2  and  C_3
REMARK    3  A    between atoms: C_10  and  S_11
REMARK    4  A    between atoms: S_11  and  N_14
REMARK    5  A    between atoms: N_14  and  C_15
REMARK    6  A    between atoms: C_15  and  C_16
REMARK    7  A    between atoms: C_16  and  C_17
REMARK    8  A    between atoms: N_22  and  C_23
REMARK    9  A    between atoms: C_27  and  C_28
REMARK   10  A    between atoms: C_30  and  C_31
REMARK                            x       y       z     vdW  Elec       q    Type
REMARK                         _______ _______ _______ _____ _____    ______ ____
ROOT
ATOM      1  N   UNL     1       1.286   6.186  20.692  0.00  0.00    +0.000 NA
ATOM      2  H   UNL     1       1.029   6.304  21.672  0.00  0.00    +0.000 HD
ENDROOT
BRANCH   1   3
ATOM      3  S   UNL     1       1.792   4.573  20.411  0.00  0.00    +0.000 S 
ATOM      4  O   UNL     1       0.718   3.869  19.754  0.00  0.00    +0.000 OA
ATOM      5  O   UNL     1       2.387   4.085  21.638  0.00  0.00    +0.000 OA
BRANCH   3  13
ATOM      6  C   UNL     1       6.672   5.063  15.296  0.00  0.00    +0.000 C 
ATOM      7  O   UNL     1       7.829   5.232  14.877  0.00  0.00    +0.000 OA
ATOM      8  N   UNL     1       6.394   5.146  16.651  0.00  0.00    +0.000 N 
ATOM      9  C   UNL     1       7.440   5.596  17.578  0.00  0.00    +0.000 C 
ATOM     10  C   UNL     1       6.882   5.457  18.997  0.00  0.00    +0.000 C 
ATOM     11  C   UNL     1       5.424   5.203  18.733  0.00  0.00    +0.000 A 
ATOM     12  C   UNL     1       4.410   5.107  19.681  0.00  0.00    +0.000 A 
ATOM     13  C   UNL     1       3.121   4.781  19.233  0.00  0.00    +0.000 A 
ATOM     14  C   UNL     1       2.888   4.506  17.878  0.00  0.00    +0.000 A 
ATOM     15  C   UNL     1       3.930   4.596  16.949  0.00  0.00    +0.000 A 
ATOM     16  C   UNL     1       5.196   4.972  17.373  0.00  0.00    +0.000 A 
BRANCH   6  18
ATOM     17  C   UNL     1       5.806   3.617  13.404  0.00  0.00    +0.000 C 
ATOM     18  C   UNL     1       5.534   4.788  14.329  0.00  0.00    +0.000 C 
ENDBRANCH   6  18
ENDBRANCH   3  13
ENDBRANCH   1   3
BRANCH   1  19
ATOM     19  C   UNL     1       2.212   7.217  20.163  0.00  0.00    +0.000 C 
BRANCH  19  20
ATOM     20  C   UNL     1       1.501   8.534  19.853  0.00  0.00    +0.000 C 
BRANCH  20  21
ATOM     21  C   UNL     1       0.920   9.125  21.136  0.00  0.00    +0.000 C 
ATOM     22  O   UNL     1       1.338   8.772  22.238  0.00  0.00    +0.000 OA
ATOM     23  N   UNL     1      -0.057  10.092  21.000  0.00  0.00    +0.000 N 
ATOM     24  C   UNL     1      -0.516  10.832  22.184  0.00  0.00    +0.000 C 
ATOM     25  C   UNL     1      -0.450  12.349  21.942  0.00  0.00    +0.000 C 
ATOM     26  N   UNL     1      -1.218  12.703  20.720  0.00  0.00    +0.000 N 
ATOM     27  C   UNL     1      -0.768  11.971  19.498  0.00  0.00    +0.000 C 
ATOM     28  C   UNL     1      -1.495  12.276  18.191  0.00  0.00    +0.000 C 
ATOM     29  C   UNL     1      -0.786  10.440  19.772  0.00  0.00    +0.000 C 
BRANCH  26  30
ATOM     30  C   UNL     1      -2.224  13.658  20.813  0.00  0.00    +0.000 A 
ATOM     31  C   UNL     1      -1.971  15.022  20.657  0.00  0.00    +0.000 A 
ATOM     32  C   UNL     1      -2.951  16.000  20.783  0.00  0.00    +0.000 A 
ATOM     33  C   UNL     1      -4.253  15.620  21.007  0.00  0.00    +0.000 A 
ATOM     34  C   UNL     1      -4.587  14.274  21.115  0.00  0.00    +0.000 A 
ATOM     35  C   UNL     1      -6.003  13.852  21.333  0.00  0.00    +0.000 C 
ATOM     36  C   UNL     1      -3.558  13.307  21.024  0.00  0.00    +0.000 A 
ENDBRANCH  26  30
ENDBRANCH  20  21
ENDBRANCH  19  20
ENDBRANCH   1  19
TORSDOF 7
ENDMDL
MODEL 7
REMARK VINA RESULT:      -8.2      3.096      5.591
REMARK  Name = 
REMARK  10 active torsions:
REMARK  status: ('A' for Active; 'I' for Inactive)
REMARK    1  A    between atoms: C_1  and  C_2
REMARK    2  A    between atoms: C_2  and  C_3
REMARK    3  A    between atoms: C_10  and  S_11
REMARK    4  A    between atoms: S_11  and  N_14
REMARK    5  A    between atoms: N_14  and  C_15
REMARK    6  A    between atoms: C_15  and  C_16
REMARK    7  A    between atoms: C_16  and  C_17
REMARK    8  A    between atoms: N_22  and  C_23
REMARK    9  A    between atoms: C_27  and  C_28
REMARK   10  A    between atoms: C_30  and  C_31
REMARK                            x       y       z     vdW  Elec       q    Type
REMARK                         _______ _______ _______ _____ _____    ______ ____
ROOT
ATOM      1  N   UNL     1      -0.047   9.991  17.796  0.00  0.00    +0.000 NA
ATOM      2  H   UNL     1      -0.018   9.196  17.157  0.00  0.00    +0.000 HD
ENDROOT
BRANCH   1   3
ATOM      3  S   UNL     1       1.468  10.167  18.578  0.00  0.00    +0.000 S 
ATOM      4  O   UNL     1       1.238  10.707  19.895  0.00  0.00    +0.000 OA
ATOM      5  O   UNL     1       2.370  10.800  17.638  0.00  0.00    +0.000 OA
BRANCH   3  13
ATOM      6  C   UNL     1       3.440   3.501  19.958  0.00  0.00    +0.000 C 
ATOM      7  O   UNL     1       4.069   2.457  19.720  0.00  0.00    +0.000 OA
ATOM      8  N   UNL     1       3.518   4.583  19.096  0.00  0.00    +0.000 N 
ATOM      9  C   UNL     1       4.218   4.437  17.813  0.00  0.00    +0.000 C 
ATOM     10  C   UNL     1       4.251   5.817  17.152  0.00  0.00    +0.000 C 
ATOM     11  C   UNL     1       3.289   6.593  18.008  0.00  0.00    +0.000 A 
ATOM     12  C   UNL     1       2.847   7.895  17.794  0.00  0.00    +0.000 A 
ATOM     13  C   UNL     1       2.010   8.472  18.761  0.00  0.00    +0.000 A 
ATOM     14  C   UNL     1       1.684   7.768  19.929  0.00  0.00    +0.000 A 
ATOM     15  C   UNL     1       2.155   6.465  20.124  0.00  0.00    +0.000 A 
ATOM     16  C   UNL     1       2.938   5.866  19.149  0.00  0.00    +0.000 A 
BRANCH   6  18
ATOM     17  C   UNL     1       1.223   2.892  21.022  0.00  0.00    +0.000 C 
ATOM     18  C   UNL     1       2.552   3.604  21.185  0.00  0.00    +0.000 C 
ENDBRANCH   6  18
ENDBRANCH   3  13
ENDBRANCH   1   3
BRANCH   1  19
ATOM     19  C   UNL     1      -1.213  10.012  18.713  0.00  0.00    +0.000 C 
BRANCH  19  20
ATOM     20  C   UNL     1      -2.136  11.202  18.452  0.00  0.00    +0.000 C 
BRANCH  20  21
ATOM     21  C   UNL     1      -1.383  12.508  18.701  0.00  0.00    +0.000 C 
ATOM     22  O   UNL     1      -0.774  13.067  17.790  0.00  0.00    +0.000 OA
ATOM     23  N   UNL     1      -1.452  13.043  19.973  0.00  0.00    +0.000 N 
ATOM     24  C   UNL     1      -0.912  14.387  20.225  0.00  0.00    +0.000 C 
ATOM     25  C   UNL     1      -1.956  15.275  20.924  0.00  0.00    +0.000 C 
ATOM     26  N   UNL     1      -2.436  14.614  22.165  0.00  0.00    +0.000 N 
ATOM     27  C   UNL     1      -2.997  13.249  21.939  0.00  0.00    +0.000 C 
ATOM     28  C   UNL     1      -3.523  12.496  23.157  0.00  0.00    +0.000 C 
ATOM     29  C   UNL     1      -1.954  12.376  21.183  0.00  0.00    +0.000 C 
BRANCH  26  30
ATOM     30  C   UNL     1      -2.346  15.304  23.369  0.00  0.00    +0.000 A 
ATOM     31  C   UNL     1      -1.280  15.124  24.251  0.00  0.00    +0.000 A 
ATOM     32  C   UNL     1      -1.185  15.772  25.478  0.00  0.00    +0.000 A 
ATOM     33  C   UNL     1      -2.147  16.691  25.827  0.00  0.00    +0.000 A 
ATOM     34  C   UNL     1      -3.207  16.963  24.969  0.00  0.00    +0.000 A 
ATOM     35  C   UNL     1      -4.243  17.977  25.330  0.00  0.00    +0.000 C 
ATOM     36  C   UNL     1      -3.296  16.254  23.748  0.00  0.00    +0.000 A 
ENDBRANCH  26  30
ENDBRANCH  20  21
ENDBRANCH  19  20
ENDBRANCH   1  19
TORSDOF 7
ENDMDL
MODEL 8
REMARK VINA RESULT:      -8.2      2.119      2.894
REMARK  Name = 
REMARK  10 active torsions:
REMARK  status: ('A' for Active; 'I' for Inactive)
REMARK    1  A    between atoms: C_1  and  C_2
REMARK    2  A    between atoms: C_2  and  C_3
REMARK    3  A    between atoms: C_10  and  S_11
REMARK    4  A    between atoms: S_11  and  N_14
REMARK    5  A    between atoms: N_14  and  C_15
REMARK    6  A    between atoms: C_15  and  C_16
REMARK    7  A    between atoms: C_16  and  C_17
REMARK    8  A    between atoms: N_22  and  C_23
REMARK    9  A    between atoms: C_27  and  C_28
REMARK   10  A    between atoms: C_30  and  C_31
REMARK                            x       y       z     vdW  Elec       q    Type
REMARK                         _______ _______ _______ _____ _____    ______ ____
ROOT
ATOM      1  N   UNL     1       1.033   6.241  20.326  0.00  0.00    +0.000 NA
ATOM      2  H   UNL     1       0.267   6.285  20.998  0.00  0.00    +0.000 HD
ENDROOT
BRANCH   1   3
ATOM      3  S   UNL     1       1.758   4.688  20.368  0.00  0.00    +0.000 S 
ATOM      4  O   UNL     1       0.811   3.731  19.849  0.00  0.00    +0.000 OA
ATOM      5  O   UNL     1       2.368   4.529  21.672  0.00  0.00    +0.000 OA
BRANCH   3  13
ATOM      6  C   UNL     1       6.680   4.905  15.273  0.00  0.00    +0.000 C 
ATOM      7  O   UNL     1       7.829   5.106  14.847  0.00  0.00    +0.000 OA
ATOM      8  N   UNL     1       6.373   5.132  16.606  0.00  0.00    +0.000 N 
ATOM      9  C   UNL     1       7.368   5.766  17.479  0.00  0.00    +0.000 C 
ATOM     10  C   UNL     1       6.796   5.761  18.900  0.00  0.00    +0.000 C 
ATOM     11  C   UNL     1       5.365   5.372  18.656  0.00  0.00    +0.000 A 
ATOM     12  C   UNL     1       4.343   5.318  19.600  0.00  0.00    +0.000 A 
ATOM     13  C   UNL     1       3.089   4.848  19.185  0.00  0.00    +0.000 A 
ATOM     14  C   UNL     1       2.900   4.393  17.871  0.00  0.00    +0.000 A 
ATOM     15  C   UNL     1       3.950   4.445  16.948  0.00  0.00    +0.000 A 
ATOM     16  C   UNL     1       5.178   4.960  17.334  0.00  0.00    +0.000 A 
BRANCH   6  18
ATOM     17  C   UNL     1       6.111   3.739  13.097  0.00  0.00    +0.000 C 
ATOM     18  C   UNL     1       5.581   4.433  14.338  0.00  0.00    +0.000 C 
ENDBRANCH   6  18
ENDBRANCH   3  13
ENDBRANCH   1   3
BRANCH   1  19
ATOM     19  C   UNL     1       1.997   7.366  20.404  0.00  0.00    +0.000 C 
BRANCH  19  20
ATOM     20  C   UNL     1       1.590   8.542  19.518  0.00  0.00    +0.000 C 
BRANCH  20  21
ATOM     21  C   UNL     1       0.592   9.431  20.260  0.00  0.00    +0.000 C 
ATOM     22  O   UNL     1      -0.169   8.956  21.102  0.00  0.00    +0.000 OA
ATOM     23  N   UNL     1       0.613  10.782  19.970  0.00  0.00    +0.000 N 
ATOM     24  C   UNL     1      -0.185  11.710  20.784  0.00  0.00    +0.000 C 
ATOM     25  C   UNL     1       0.683  12.871  21.300  0.00  0.00    +0.000 C 
ATOM     26  N   UNL     1       1.356  13.548  20.161  0.00  0.00    +0.000 N 
ATOM     27  C   UNL     1       2.180  12.630  19.321  0.00  0.00    +0.000 C 
ATOM     28  C   UNL     1       2.916  13.239  18.131  0.00  0.00    +0.000 C 
ATOM     29  C   UNL     1       1.307  11.431  18.850  0.00  0.00    +0.000 C 
BRANCH  26  30
ATOM     30  C   UNL     1       1.186  14.919  20.002  0.00  0.00    +0.000 A 
ATOM     31  C   UNL     1       1.909  15.850  20.750  0.00  0.00    +0.000 A 
ATOM     32  C   UNL     1       1.731  17.224  20.637  0.00  0.00    +0.000 A 
ATOM     33  C   UNL     1       0.851  17.712  19.701  0.00  0.00    +0.000 A 
ATOM     34  C   UNL     1       0.138  16.843  18.881  0.00  0.00    +0.000 A 
ATOM     35  C   UNL     1      -0.802  17.365  17.845  0.00  0.00    +0.000 C 
ATOM     36  C   UNL     1       0.312  15.449  19.051  0.00  0.00    +0.000 A 
ENDBRANCH  26  30
ENDBRANCH  20  21
ENDBRANCH  19  20
ENDBRANCH   1  19
TORSDOF 7
ENDMDL
MODEL 9
REMARK VINA RESULT:      -8.2      0.986      1.486
REMARK  Name = 
REMARK  10 active torsions:
REMARK  status: ('A' for Active; 'I' for Inactive)
REMARK    1  A    between atoms: C_1  and  C_2
REMARK    2  A    between atoms: C_2  and  C_3
REMARK    3  A    between atoms: C_10  and  S_11
REMARK    4  A    between atoms: S_11  and  N_14
REMARK    5  A    between atoms: N_14  and  C_15
REMARK    6  A    between atoms: C_15  and  C_16
REMARK    7  A    between atoms: C_16  and  C_17
REMARK    8  A    between atoms: N_22  and  C_23
REMARK    9  A    between atoms: C_27  and  C_28
REMARK   10  A    between atoms: C_30  and  C_31
REMARK                            x       y       z     vdW  Elec       q    Type
REMARK                         _______ _______ _______ _____ _____    ______ ____
ROOT
ATOM      1  N   UNL     1       2.163   5.613  21.110  0.00  0.00    +0.000 NA
ATOM      2  H   UNL     1       3.076   5.929  21.439  0.00  0.00    +0.000 HD
ENDROOT
BRANCH   1   3
ATOM      3  S   UNL     1       2.312   4.082  20.354  0.00  0.00    +0.000 S 
ATOM      4  O   UNL     1       1.059   3.770  19.710  0.00  0.00    +0.000 OA
ATOM      5  O   UNL     1       2.926   3.184  21.310  0.00  0.00    +0.000 OA
BRANCH   3  13
ATOM      6  C   UNL     1       6.962   4.714  15.042  0.00  0.00    +0.000 C 
ATOM      7  O   UNL     1       7.968   5.197  14.499  0.00  0.00    +0.000 OA
ATOM      8  N   UNL     1       6.552   5.158  16.289  0.00  0.00    +0.000 N 
ATOM      9  C   UNL     1       7.216   6.317  16.898  0.00  0.00    +0.000 C 
ATOM     10  C   UNL     1       6.644   6.481  18.309  0.00  0.00    +0.000 C 
ATOM     11  C   UNL     1       5.464   5.549  18.275  0.00  0.00    +0.000 A 
ATOM     12  C   UNL     1       4.506   5.381  19.270  0.00  0.00    +0.000 A 
ATOM     13  C   UNL     1       3.527   4.395  19.079  0.00  0.00    +0.000 A 
ATOM     14  C   UNL     1       3.559   3.573  17.943  0.00  0.00    +0.000 A 
ATOM     15  C   UNL     1       4.543   3.755  16.966  0.00  0.00    +0.000 A 
ATOM     16  C   UNL     1       5.483   4.764  17.119  0.00  0.00    +0.000 A 
BRANCH   6  18
ATOM     17  C   UNL     1       5.418   4.161  13.110  0.00  0.00    +0.000 C 
ATOM     18  C   UNL     1       6.144   3.646  14.339  0.00  0.00    +0.000 C 
ENDBRANCH   6  18
ENDBRANCH   3  13
ENDBRANCH   1   3
BRANCH   1  19
ATOM     19  C   UNL     1       1.407   6.614  20.318  0.00  0.00    +0.000 C 
BRANCH  19  20
ATOM     20  C   UNL     1       1.576   8.033  20.861  0.00  0.00    +0.000 C 
BRANCH  20  21
ATOM     21  C   UNL     1       1.360   9.047  19.739  0.00  0.00    +0.000 C 
ATOM     22  O   UNL     1       1.713   8.798  18.587  0.00  0.00    +0.000 OA
ATOM     23  N   UNL     1       0.720  10.227  20.069  0.00  0.00    +0.000 N 
ATOM     24  C   UNL     1       0.314  11.155  19.004  0.00  0.00    +0.000 C 
ATOM     25  C   UNL     1      -1.172  11.529  19.141  0.00  0.00    +0.000 C 
ATOM     26  N   UNL     1      -1.437  12.072  20.498  0.00  0.00    +0.000 N 
ATOM     27  C   UNL     1      -1.040  11.147  21.602  0.00  0.00    +0.000 C 
ATOM     28  C   UNL     1      -1.282  11.618  23.033  0.00  0.00    +0.000 C 
ATOM     29  C   UNL     1       0.449  10.732  21.422  0.00  0.00    +0.000 C 
BRANCH  26  30
ATOM     30  C   UNL     1      -2.026  13.326  20.615  0.00  0.00    +0.000 A 
ATOM     31  C   UNL     1      -3.386  13.486  20.887  0.00  0.00    +0.000 A 
ATOM     32  C   UNL     1      -4.007  14.727  20.971  0.00  0.00    +0.000 A 
ATOM     33  C   UNL     1      -3.249  15.867  20.849  0.00  0.00    +0.000 A 
ATOM     34  C   UNL     1      -1.877  15.782  20.634  0.00  0.00    +0.000 A 
ATOM     35  C   UNL     1      -1.042  17.015  20.524  0.00  0.00    +0.000 C 
ATOM     36  C   UNL     1      -1.283  14.503  20.511  0.00  0.00    +0.000 A 
ENDBRANCH  26  30
ENDBRANCH  20  21
ENDBRANCH  19  20
ENDBRANCH   1  19
TORSDOF 7
ENDMDL
