MODEL 1
REMARK VINA RESULT:      -6.7      0.000      0.000
REMARK  Name = 
REMARK  2 active torsions:
REMARK  status: ('A' for Active; 'I' for Inactive)
REMARK    1  A    between atoms: C_1  and  C_2
REMARK    2  A    between atoms: C_2  and  C_3
REMARK                            x       y       z     vdW  Elec       q    Type
REMARK                         _______ _______ _______ _____ _____    ______ ____
ROOT
ATOM      1  C   UNL     1       4.933   5.698  17.327  0.00  0.00    +0.000 C 
ATOM      2  C   UNL     1       3.627   5.599  18.143  0.00  0.00    +0.000 C 
ATOM      3  C   UNL     1       2.830   4.376  17.622  0.00  0.00    +0.000 C 
ATOM      4  C   UNL     1       3.922   5.391  19.627  0.00  0.00    +0.000 C 
ATOM      5  C   UNL     1       2.802   5.286  20.367  0.00  0.00    +0.000 C 
ATOM      6  C   UNL     1       1.995   6.508  20.201  0.00  0.00    +0.000 A 
ATOM      7  C   UNL     1       1.097   6.836  21.202  0.00  0.00    +0.000 A 
ATOM      8  C   UNL     1       0.618   8.135  21.204  0.00  0.00    +0.000 A 
ATOM      9  O   UNL     1      -0.199   8.590  22.169  0.00  0.00    +0.000 OA
ATOM     10  C   UNL     1      -0.295   9.924  22.009  0.00  0.00    +0.000 A 
ATOM     11  C   UNL     1      -0.966  10.747  22.913  0.00  0.00    +0.000 A 
ATOM     12  C   UNL     1      -0.863  12.115  22.701  0.00  0.00    +0.000 A 
ATOM     13  C   UNL     1      -0.146  12.605  21.612  0.00  0.00    +0.000 A 
ATOM     14  C   UNL     1       0.478  11.733  20.674  0.00  0.00    +0.000 A 
ATOM     15  C   UNL     1       0.420  10.338  20.883  0.00  0.00    +0.000 A 
ATOM     16  C   UNL     1       0.946   9.123  20.278  0.00  0.00    +0.000 A 
ATOM     17  C   UNL     1       1.719   8.695  19.162  0.00  0.00    +0.000 A 
ATOM     18 BR   UNL     1       2.156   9.934  17.779  0.00  0.00    +0.000 Br
ATOM     19  C   UNL     1       2.197   7.355  19.094  0.00  0.00    +0.000 A 
ATOM     20  O   UNL     1       2.911   6.879  17.986  0.00  0.00    +0.000 OA
ENDROOT
TORSDOF 0
ENDMDL
MODEL 2
REMARK VINA RESULT:      -6.7      2.328      7.268
REMARK  Name = 
REMARK  2 active torsions:
REMARK  status: ('A' for Active; 'I' for Inactive)
REMARK    1  A    between atoms: C_1  and  C_2
REMARK    2  A    between atoms: C_2  and  C_3
REMARK                            x       y       z     vdW  Elec       q    Type
REMARK                         _______ _______ _______ _____ _____    ______ ____
ROOT
ATOM      1  C   UNL     1      -3.998  14.945  21.851  0.00  0.00    +0.000 C 
ATOM      2  C   UNL     1      -2.942  14.031  22.507  0.00  0.00    +0.000 C 
ATOM      3  C   UNL     1      -2.436  14.733  23.793  0.00  0.00    +0.000 C 
ATOM      4  C   UNL     1      -3.547  12.684  22.895  0.00  0.00    +0.000 C 
ATOM      5  C   UNL     1      -2.654  11.866  23.485  0.00  0.00    +0.000 C 
ATOM      6  C   UNL     1      -1.523  11.642  22.566  0.00  0.00    +0.000 A 
ATOM      7  C   UNL     1      -0.766  10.496  22.734  0.00  0.00    +0.000 A 
ATOM      8  C   UNL     1       0.047  10.129  21.674  0.00  0.00    +0.000 A 
ATOM      9  O   UNL     1       0.769   8.996  21.692  0.00  0.00    +0.000 OA
ATOM     10  C   UNL     1       1.260   8.821  20.450  0.00  0.00    +0.000 A 
ATOM     11  C   UNL     1       1.958   7.676  20.068  0.00  0.00    +0.000 A 
ATOM     12  C   UNL     1       2.280   7.567  18.721  0.00  0.00    +0.000 A 
ATOM     13  C   UNL     1       1.937   8.582  17.833  0.00  0.00    +0.000 A 
ATOM     14  C   UNL     1       1.276   9.767  18.269  0.00  0.00    +0.000 A 
ATOM     15  C   UNL     1       0.904   9.891  19.625  0.00  0.00    +0.000 A 
ATOM     16  C   UNL     1       0.180  10.824  20.475  0.00  0.00    +0.000 A 
ATOM     17  C   UNL     1      -0.466  12.092  20.417  0.00  0.00    +0.000 A 
ATOM     18 BR   UNL     1      -0.282  13.180  18.862  0.00  0.00    +0.000 Br
ATOM     19  C   UNL     1      -1.277  12.532  21.502  0.00  0.00    +0.000 A 
ATOM     20  O   UNL     1      -1.881  13.796  21.509  0.00  0.00    +0.000 OA
ENDROOT
TORSDOF 0
ENDMDL
MODEL 3
REMARK VINA RESULT:      -6.5      2.030      6.530
REMARK  Name = 
REMARK  2 active torsions:
REMARK  status: ('A' for Active; 'I' for Inactive)
REMARK    1  A    between atoms: C_1  and  C_2
REMARK    2  A    between atoms: C_2  and  C_3
REMARK                            x       y       z     vdW  Elec       q    Type
REMARK                         _______ _______ _______ _____ _____    ______ ____
ROOT
ATOM      1  C   UNL     1       0.518  13.940  21.128  0.00  0.00    +0.000 C 
ATOM      2  C   UNL     1       0.619  13.028  19.887  0.00  0.00    +0.000 C 
ATOM      3  C   UNL     1      -0.319  13.601  18.795  0.00  0.00    +0.000 C 
ATOM      4  C   UNL     1       2.044  13.001  19.340  0.00  0.00    +0.000 C 
ATOM      5  C   UNL     1       2.164  12.224  18.246  0.00  0.00    +0.000 C 
ATOM      6  C   UNL     1       1.750  10.850  18.581  0.00  0.00    +0.000 A 
ATOM      7  C   UNL     1       2.241   9.815  17.805  0.00  0.00    +0.000 A 
ATOM      8  C   UNL     1       2.134   8.539  18.333  0.00  0.00    +0.000 A 
ATOM      9  O   UNL     1       2.642   7.465  17.705  0.00  0.00    +0.000 OA
ATOM     10  C   UNL     1       2.574   6.434  18.569  0.00  0.00    +0.000 A 
ATOM     11  C   UNL     1       3.130   5.184  18.299  0.00  0.00    +0.000 A 
ATOM     12  C   UNL     1       3.112   4.260  19.335  0.00  0.00    +0.000 A 
ATOM     13  C   UNL     1       2.531   4.587  20.557  0.00  0.00    +0.000 A 
ATOM     14  C   UNL     1       1.918   5.854  20.780  0.00  0.00    +0.000 A 
ATOM     15  C   UNL     1       1.953   6.827  19.757  0.00  0.00    +0.000 A 
ATOM     16  C   UNL     1       1.559   8.214  19.559  0.00  0.00    +0.000 A 
ATOM     17  C   UNL     1       0.899   9.278  20.237  0.00  0.00    +0.000 A 
ATOM     18 BR   UNL     1      -0.006   8.938  21.882  0.00  0.00    +0.000 Br
ATOM     19  C   UNL     1       0.943  10.600  19.709  0.00  0.00    +0.000 A 
ATOM     20  O   UNL     1       0.259  11.662  20.314  0.00  0.00    +0.000 OA
ENDROOT
TORSDOF 0
ENDMDL
MODEL 4
REMARK VINA RESULT:      -6.4      0.922      1.108
REMARK  Name = 
REMARK  2 active torsions:
REMARK  status: ('A' for Active; 'I' for Inactive)
REMARK    1  A    between atoms: C_1  and  C_2
REMARK    2  A    between atoms: C_2  and  C_3
REMARK                            x       y       z     vdW  Elec       q    Type
REMARK                         _______ _______ _______ _____ _____    ______ ____
ROOT
ATOM      1  C   UNL     1       5.547   4.994  16.958  0.00  0.00    +0.000 C 
ATOM      2  C   UNL     1       4.241   4.821  17.763  0.00  0.00    +0.000 C 
ATOM      3  C   UNL     1       3.491   3.587  17.199  0.00  0.00    +0.000 C 
ATOM      4  C   UNL     1       4.535   4.577  19.241  0.00  0.00    +0.000 C 
ATOM      5  C   UNL     1       3.416   4.408  19.971  0.00  0.00    +0.000 C 
ATOM      6  C   UNL     1       2.567   5.605  19.839  0.00  0.00    +0.000 A 
ATOM      7  C   UNL     1       1.652   5.868  20.844  0.00  0.00    +0.000 A 
ATOM      8  C   UNL     1       1.127   7.149  20.884  0.00  0.00    +0.000 A 
ATOM      9  O   UNL     1       0.288   7.542  21.858  0.00  0.00    +0.000 OA
ATOM     10  C   UNL     1       0.144   8.877  21.740  0.00  0.00    +0.000 A 
ATOM     11  C   UNL     1      -0.560   9.645  22.665  0.00  0.00    +0.000 A 
ATOM     12  C   UNL     1      -0.506  11.023  22.497  0.00  0.00    +0.000 A 
ATOM     13  C   UNL     1       0.198  11.572  21.429  0.00  0.00    +0.000 A 
ATOM     14  C   UNL     1       0.858  10.754  20.467  0.00  0.00    +0.000 A 
ATOM     15  C   UNL     1       0.850   9.351  20.632  0.00  0.00    +0.000 A 
ATOM     16  C   UNL     1       1.423   8.176  19.992  0.00  0.00    +0.000 A 
ATOM     17  C   UNL     1       2.217   7.812  18.867  0.00  0.00    +0.000 A 
ATOM     18 BR   UNL     1       2.615   9.110  17.527  0.00  0.00    +0.000 Br
ATOM     19  C   UNL     1       2.743   6.493  18.760  0.00  0.00    +0.000 A 
ATOM     20  O   UNL     1       3.479   6.079  17.642  0.00  0.00    +0.000 OA
ENDROOT
TORSDOF 0
ENDMDL
MODEL 5
REMARK VINA RESULT:      -6.4      2.188      3.307
REMARK  Name = 
REMARK  2 active torsions:
REMARK  status: ('A' for Active; 'I' for Inactive)
REMARK    1  A    between atoms: C_1  and  C_2
REMARK    2  A    between atoms: C_2  and  C_3
REMARK                            x       y       z     vdW  Elec       q    Type
REMARK                         _______ _______ _______ _____ _____    ______ ____
ROOT
ATOM      1  C   UNL     1       1.426   4.051  20.311  0.00  0.00    +0.000 C 
ATOM      2  C   UNL     1       2.218   5.265  19.783  0.00  0.00    +0.000 C 
ATOM      3  C   UNL     1       3.729   4.947  19.920  0.00  0.00    +0.000 C 
ATOM      4  C   UNL     1       1.908   5.525  18.311  0.00  0.00    +0.000 C 
ATOM      5  C   UNL     1       2.595   6.571  17.813  0.00  0.00    +0.000 C 
ATOM      6  C   UNL     1       2.272   7.778  18.595  0.00  0.00    +0.000 A 
ATOM      7  C   UNL     1       2.451   9.011  17.993  0.00  0.00    +0.000 A 
ATOM      8  C   UNL     1       1.823  10.091  18.592  0.00  0.00    +0.000 A 
ATOM      9  O   UNL     1       1.863  11.322  18.056  0.00  0.00    +0.000 OA
ATOM     10  C   UNL     1       0.986  12.080  18.743  0.00  0.00    +0.000 A 
ATOM     11  C   UNL     1       0.672  13.389  18.379  0.00  0.00    +0.000 A 
ATOM     12  C   UNL     1      -0.353  14.001  19.089  0.00  0.00    +0.000 A 
ATOM     13  C   UNL     1      -0.989  13.324  20.127  0.00  0.00    +0.000 A 
ATOM     14  C   UNL     1      -0.602  12.008  20.511  0.00  0.00    +0.000 A 
ATOM     15  C   UNL     1       0.412  11.347  19.785  0.00  0.00    +0.000 A 
ATOM     16  C   UNL     1       1.055  10.042  19.752  0.00  0.00    +0.000 A 
ATOM     17  C   UNL     1       1.052   8.796  20.443  0.00  0.00    +0.000 A 
ATOM     18 BR   UNL     1       0.110   8.629  22.093  0.00  0.00    +0.000 Br
ATOM     19  C   UNL     1       1.721   7.668  19.887  0.00  0.00    +0.000 A 
ATOM     20  O   UNL     1       1.792   6.443  20.563  0.00  0.00    +0.000 OA
ENDROOT
TORSDOF 0
ENDMDL
MODEL 6
REMARK VINA RESULT:      -6.3      1.810      6.306
REMARK  Name = 
REMARK  2 active torsions:
REMARK  status: ('A' for Active; 'I' for Inactive)
REMARK    1  A    between atoms: C_1  and  C_2
REMARK    2  A    between atoms: C_2  and  C_3
REMARK                            x       y       z     vdW  Elec       q    Type
REMARK                         _______ _______ _______ _____ _____    ______ ____
ROOT
ATOM      1  C   UNL     1       0.213  11.732  18.632  0.00  0.00    +0.000 C 
ATOM      2  C   UNL     1       0.671  10.754  19.735  0.00  0.00    +0.000 C 
ATOM      3  C   UNL     1       1.203  11.593  20.925  0.00  0.00    +0.000 C 
ATOM      4  C   UNL     1      -0.493   9.898  20.227  0.00  0.00    +0.000 C 
ATOM      5  C   UNL     1      -0.131   9.042  21.202  0.00  0.00    +0.000 C 
ATOM      6  C   UNL     1       0.939   8.162  20.700  0.00  0.00    +0.000 A 
ATOM      7  C   UNL     1       1.113   6.933  21.314  0.00  0.00    +0.000 A 
ATOM      8  C   UNL     1       1.861   5.995  20.623  0.00  0.00    +0.000 A 
ATOM      9  O   UNL     1       2.035   4.745  21.085  0.00  0.00    +0.000 OA
ATOM     10  C   UNL     1       2.606   4.033  20.093  0.00  0.00    +0.000 A 
ATOM     11  C   UNL     1       2.817   2.658  20.176  0.00  0.00    +0.000 A 
ATOM     12  C   UNL     1       3.281   2.032  19.027  0.00  0.00    +0.000 A 
ATOM     13  C   UNL     1       3.543   2.776  17.879  0.00  0.00    +0.000 A 
ATOM     14  C   UNL     1       3.372   4.190  17.848  0.00  0.00    +0.000 A 
ATOM     15  C   UNL     1       2.867   4.849  18.990  0.00  0.00    +0.000 A 
ATOM     16  C   UNL     1       2.467   6.192  19.385  0.00  0.00    +0.000 A 
ATOM     17  C   UNL     1       2.425   7.522  18.877  0.00  0.00    +0.000 A 
ATOM     18 BR   UNL     1       3.297   7.938  17.233  0.00  0.00    +0.000 Br
ATOM     19  C   UNL     1       1.703   8.532  19.576  0.00  0.00    +0.000 A 
ATOM     20  O   UNL     1       1.686   9.864  19.141  0.00  0.00    +0.000 OA
ENDROOT
TORSDOF 0
ENDMDL
MODEL 7
REMARK VINA RESULT:      -6.2      8.758      9.379
REMARK  Name = 
REMARK  2 active torsions:
REMARK  status: ('A' for Active; 'I' for Inactive)
REMARK    1  A    between atoms: C_1  and  C_2
REMARK    2  A    between atoms: C_2  and  C_3
REMARK                            x       y       z     vdW  Elec       q    Type
REMARK                         _______ _______ _______ _____ _____    ______ ____
ROOT
ATOM      1  C   UNL     1      11.940  15.240  17.959  0.00  0.00    +0.000 C 
ATOM      2  C   UNL     1      11.261  13.931  18.414  0.00  0.00    +0.000 C 
ATOM      3  C   UNL     1      11.136  13.004  17.179  0.00  0.00    +0.000 C 
ATOM      4  C   UNL     1      12.097  13.219  19.474  0.00  0.00    +0.000 C 
ATOM      5  C   UNL     1      11.539  12.063  19.884  0.00  0.00    +0.000 C 
ATOM      6  C   UNL     1      10.199  12.340  20.431  0.00  0.00    +0.000 A 
ATOM      7  C   UNL     1       9.664  11.435  21.331  0.00  0.00    +0.000 A 
ATOM      8  C   UNL     1       8.591  11.875  22.088  0.00  0.00    +0.000 A 
ATOM      9  O   UNL     1       8.037  11.112  23.046  0.00  0.00    +0.000 OA
ATOM     10  C   UNL     1       7.186  11.898  23.734  0.00  0.00    +0.000 A 
ATOM     11  C   UNL     1       6.525  11.469  24.884  0.00  0.00    +0.000 A 
ATOM     12  C   UNL     1       5.791  12.428  25.571  0.00  0.00    +0.000 A 
ATOM     13  C   UNL     1       5.714  13.731  25.088  0.00  0.00    +0.000 A 
ATOM     14  C   UNL     1       6.353  14.120  23.875  0.00  0.00    +0.000 A 
ATOM     15  C   UNL     1       7.136  13.177  23.175  0.00  0.00    +0.000 A 
ATOM     16  C   UNL     1       7.998  13.132  22.003  0.00  0.00    +0.000 A 
ATOM     17  C   UNL     1       8.452  13.962  20.938  0.00  0.00    +0.000 A 
ATOM     18 BR   UNL     1       7.653  15.671  20.661  0.00  0.00    +0.000 Br
ATOM     19  C   UNL     1       9.524  13.533  20.105  0.00  0.00    +0.000 A 
ATOM     20  O   UNL     1       9.962  14.294  19.012  0.00  0.00    +0.000 OA
ENDROOT
TORSDOF 0
ENDMDL
MODEL 8
REMARK VINA RESULT:      -6.1      2.361      7.295
REMARK  Name = 
REMARK  2 active torsions:
REMARK  status: ('A' for Active; 'I' for Inactive)
REMARK    1  A    between atoms: C_1  and  C_2
REMARK    2  A    between atoms: C_2  and  C_3
REMARK                            x       y       z     vdW  Elec       q    Type
REMARK                         _______ _______ _______ _____ _____    ______ ____
ROOT
ATOM      1  C   UNL     1      -1.092  14.730  23.621  0.00  0.00    +0.000 C 
ATOM      2  C   UNL     1      -1.073  14.262  22.151  0.00  0.00    +0.000 C 
ATOM      3  C   UNL     1      -2.298  14.887  21.435  0.00  0.00    +0.000 C 
ATOM      4  C   UNL     1       0.196  14.731  21.442  0.00  0.00    +0.000 C 
ATOM      5  C   UNL     1       0.238  14.351  20.151  0.00  0.00    +0.000 C 
ATOM      6  C   UNL     1       0.157  12.882  20.076  0.00  0.00    +0.000 A 
ATOM      7  C   UNL     1       0.666  12.259  18.949  0.00  0.00    +0.000 A 
ATOM      8  C   UNL     1       0.903  10.898  19.047  0.00  0.00    +0.000 A 
ATOM      9  O   UNL     1       1.465  10.200  18.045  0.00  0.00    +0.000 OA
ATOM     10  C   UNL     1       1.760   8.979  18.531  0.00  0.00    +0.000 A 
ATOM     11  C   UNL     1       2.471   8.027  17.801  0.00  0.00    +0.000 A 
ATOM     12  C   UNL     1       2.828   6.868  18.476  0.00  0.00    +0.000 A 
ATOM     13  C   UNL     1       2.450   6.684  19.803  0.00  0.00    +0.000 A 
ATOM     14  C   UNL     1       1.672   7.652  20.502  0.00  0.00    +0.000 A 
ATOM     15  C   UNL     1       1.325   8.857  19.852  0.00  0.00    +0.000 A 
ATOM     16  C   UNL     1       0.651  10.108  20.166  0.00  0.00    +0.000 A 
ATOM     17  C   UNL     1      -0.046  10.746  21.232  0.00  0.00    +0.000 A 
ATOM     18 BR   UNL     1      -0.529   9.746  22.782  0.00  0.00    +0.000 Br
ATOM     19  C   UNL     1      -0.350  12.135  21.157  0.00  0.00    +0.000 A 
ATOM     20  O   UNL     1      -1.084  12.786  22.158  0.00  0.00    +0.000 OA
ENDROOT
TORSDOF 0
ENDMDL
MODEL 9
REMARK VINA RESULT:      -6.1      4.869      6.394
REMARK  Name = 
REMARK  2 active torsions:
REMARK  status: ('A' for Active; 'I' for Inactive)
REMARK    1  A    between atoms: C_1  and  C_2
REMARK    2  A    between atoms: C_2  and  C_3
REMARK                            x       y       z     vdW  Elec       q    Type
REMARK                         _______ _______ _______ _____ _____    ______ ____
ROOT
ATOM      1  C   UNL     1       1.854   9.933  17.894  0.00  0.00    +0.000 C 
ATOM      2  C   UNL     1       0.825  10.223  19.006  0.00  0.00    +0.000 C 
ATOM      3  C   UNL     1       1.139   9.290  20.203  0.00  0.00    +0.000 C 
ATOM      4  C   UNL     1       0.922  11.671  19.480  0.00  0.00    +0.000 C 
ATOM      5  C   UNL     1       0.046  11.955  20.462  0.00  0.00    +0.000 C 
ATOM      6  C   UNL     1      -1.322  11.695  19.980  0.00  0.00    +0.000 A 
ATOM      7  C   UNL     1      -2.368  12.358  20.600  0.00  0.00    +0.000 A 
ATOM      8  C   UNL     1      -3.576  12.379  19.923  0.00  0.00    +0.000 A 
ATOM      9  O   UNL     1      -4.640  13.055  20.390  0.00  0.00    +0.000 OA
ATOM     10  C   UNL     1      -5.564  13.063  19.409  0.00  0.00    +0.000 A 
ATOM     11  C   UNL     1      -6.753  13.786  19.498  0.00  0.00    +0.000 A 
ATOM     12  C   UNL     1      -7.545  13.819  18.358  0.00  0.00    +0.000 A 
ATOM     13  C   UNL     1      -7.157  13.128  17.213  0.00  0.00    +0.000 A 
ATOM     14  C   UNL     1      -5.963  12.350  17.177  0.00  0.00    +0.000 A 
ATOM     15  C   UNL     1      -5.120  12.326  18.309  0.00  0.00    +0.000 A 
ATOM     16  C   UNL     1      -3.830  11.775  18.695  0.00  0.00    +0.000 A 
ATOM     17  C   UNL     1      -2.790  10.946  18.184  0.00  0.00    +0.000 A 
ATOM     18 BR   UNL     1      -3.051   9.992  16.553  0.00  0.00    +0.000 Br
ATOM     19  C   UNL     1      -1.544  10.858  18.869  0.00  0.00    +0.000 A 
ATOM     20  O   UNL     1      -0.517  10.011  18.431  0.00  0.00    +0.000 OA
ENDROOT
TORSDOF 0
ENDMDL
