MODEL 1
REMARK VINA RESULT:      -8.3      0.000      0.000
REMARK  Name = 
REMARK  4 active torsions:
REMARK  status: ('A' for Active; 'I' for Inactive)
REMARK    1  A    between atoms: N_2  and  C_3
REMARK    2  A    between atoms: C_5  and  C_6
REMARK    3  A    between atoms: C_12  and  C_14
REMARK    4  A    between atoms: C_14  and  C_15
REMARK                            x       y       z     vdW  Elec       q    Type
REMARK                         _______ _______ _______ _____ _____    ______ ____
ROOT
ATOM      1  C   UNL     1       1.117   9.231  19.133  0.00  0.00    +0.000 C 
ATOM      2  C   UNL     1       1.643   8.262  20.230  0.00  0.00    +0.000 C 
ATOM      3  N   UNL     1       1.996   6.972  19.579  0.00  0.00    +0.000 NA
ATOM      4  C   UNL     1       2.307   5.887  20.517  0.00  0.00    +0.000 C 
ATOM      5  C   UNL     1       3.111   4.685  19.950  0.00  0.00    +0.000 C 
ATOM      6  N   UNL     1       4.082   5.036  18.909  0.00  0.00    +0.000 N 
ATOM      7  C   UNL     1       5.163   4.192  18.701  0.00  0.00    +0.000 C 
ATOM      8  O   UNL     1       5.336   3.175  19.374  0.00  0.00    +0.000 OA
ATOM      9  C   UNL     1       3.559   5.956  17.903  0.00  0.00    +0.000 C 
ATOM     10  C   UNL     1       3.049   7.233  18.570  0.00  0.00    +0.000 C 
ATOM     11  C   UNL     1       2.459   8.178  17.510  0.00  0.00    +0.000 C 
ATOM     12  O   UNL     1       2.122   9.433  18.112  0.00  0.00    +0.000 OA
ENDROOT
BRANCH   1  15
ATOM     13  C   UNL     1      -0.700  11.828  21.168  0.00  0.00    +0.000 A 
ATOM     14  C   UNL     1      -0.363  10.621  20.562  0.00  0.00    +0.000 A 
ATOM     15  C   UNL     1       0.571  10.593  19.505  0.00  0.00    +0.000 A 
ATOM     16  C   UNL     1       1.042  11.810  18.993  0.00  0.00    +0.000 A 
ATOM     17  C   UNL     1       0.672  13.020  19.601  0.00  0.00    +0.000 A 
ATOM     18  C   UNL     1      -0.168  13.016  20.709  0.00  0.00    +0.000 A 
ATOM     19  F   UNL     1      -0.419  14.167  21.350  0.00  0.00    +0.000 F 
BRANCH  13  21
ATOM     20  C   UNL     1      -2.223  11.771  23.222  0.00  0.00    +0.000 C 
ATOM     21  N   UNL     1      -1.505  11.810  22.291  0.00  0.00    +0.000 NA
ENDBRANCH  13  21
ENDBRANCH   1  15
BRANCH   7  22
ATOM     22  C   UNL     1       6.176   4.555  17.619  0.00  0.00    +0.000 C 
BRANCH  22  23
ATOM     23  C   UNL     1       6.877   5.867  17.820  0.00  0.00    +0.000 A 
ATOM     24  C   UNL     1       6.582   6.967  17.037  0.00  0.00    +0.000 A 
ATOM     25  N   UNL     1       7.147   8.182  17.191  0.00  0.00    +0.000 NA
ATOM     26  C   UNL     1       8.044   8.308  18.196  0.00  0.00    +0.000 A 
ATOM     27  N   UNL     1       8.655   9.576  18.374  0.00  0.00    +0.000 N 
ATOM     28  C   UNL     1       8.428  10.714  17.645  0.00  0.00    +0.000 A 
ATOM     29  N   UNL     1       9.198  11.677  18.097  0.00  0.00    +0.000 NA
ATOM     30  N   UNL     1       9.912  11.126  19.132  0.00  0.00    +0.000 NA
ATOM     31  N   UNL     1       9.591   9.852  19.312  0.00  0.00    +0.000 NA
ATOM     32  N   UNL     1       8.384   7.302  19.029  0.00  0.00    +0.000 NA
ATOM     33  C   UNL     1       7.782   6.111  18.832  0.00  0.00    +0.000 A 
ENDBRANCH  22  23
ENDBRANCH   7  22
TORSDOF 4
ENDMDL
MODEL 2
REMARK VINA RESULT:      -8.3      1.197      1.816
REMARK  Name = 
REMARK  4 active torsions:
REMARK  status: ('A' for Active; 'I' for Inactive)
REMARK    1  A    between atoms: N_2  and  C_3
REMARK    2  A    between atoms: C_5  and  C_6
REMARK    3  A    between atoms: C_12  and  C_14
REMARK    4  A    between atoms: C_14  and  C_15
REMARK                            x       y       z     vdW  Elec       q    Type
REMARK                         _______ _______ _______ _____ _____    ______ ____
ROOT
ATOM      1  C   UNL     1       1.082   9.227  19.098  0.00  0.00    +0.000 C 
ATOM      2  C   UNL     1       1.621   8.273  20.201  0.00  0.00    +0.000 C 
ATOM      3  N   UNL     1       1.991   6.983  19.559  0.00  0.00    +0.000 NA
ATOM      4  C   UNL     1       2.317   5.909  20.505  0.00  0.00    +0.000 C 
ATOM      5  C   UNL     1       3.137   4.714  19.946  0.00  0.00    +0.000 C 
ATOM      6  N   UNL     1       4.102   5.070  18.901  0.00  0.00    +0.000 N 
ATOM      7  C   UNL     1       5.194   4.239  18.698  0.00  0.00    +0.000 C 
ATOM      8  O   UNL     1       5.381   3.229  19.379  0.00  0.00    +0.000 OA
ATOM      9  C   UNL     1       3.567   5.976  17.889  0.00  0.00    +0.000 C 
ATOM     10  C   UNL     1       3.040   7.252  18.548  0.00  0.00    +0.000 C 
ATOM     11  C   UNL     1       2.437   8.180  17.481  0.00  0.00    +0.000 C 
ATOM     12  O   UNL     1       2.083   9.435  18.074  0.00  0.00    +0.000 OA
ENDROOT
BRANCH   1  15
ATOM     13  C   UNL     1       0.831  12.983  19.225  0.00  0.00    +0.000 A 
ATOM     14  C   UNL     1       1.352  11.693  19.203  0.00  0.00    +0.000 A 
ATOM     15  C   UNL     1       0.518  10.585  19.460  0.00  0.00    +0.000 A 
ATOM     16  C   UNL     1      -0.802  10.819  19.869  0.00  0.00    +0.000 A 
ATOM     17  C   UNL     1      -1.305  12.129  19.909  0.00  0.00    +0.000 A 
ATOM     18  C   UNL     1      -0.493  13.200  19.550  0.00  0.00    +0.000 A 
ATOM     19  F   UNL     1      -1.019  14.431  19.479  0.00  0.00    +0.000 F 
BRANCH  13  21
ATOM     20  C   UNL     1       2.348  14.899  18.470  0.00  0.00    +0.000 C 
ATOM     21  N   UNL     1       1.635  14.035  18.829  0.00  0.00    +0.000 NA
ENDBRANCH  13  21
ENDBRANCH   1  15
BRANCH   7  22
ATOM     22  C   UNL     1       6.201   4.608  17.613  0.00  0.00    +0.000 C 
BRANCH  22  23
ATOM     23  C   UNL     1       6.900   5.920  17.816  0.00  0.00    +0.000 A 
ATOM     24  C   UNL     1       6.606   7.020  17.032  0.00  0.00    +0.000 A 
ATOM     25  N   UNL     1       7.170   8.235  17.188  0.00  0.00    +0.000 NA
ATOM     26  C   UNL     1       8.065   8.362  18.195  0.00  0.00    +0.000 A 
ATOM     27  N   UNL     1       8.675   9.631  18.374  0.00  0.00    +0.000 N 
ATOM     28  C   UNL     1       8.448  10.769  17.645  0.00  0.00    +0.000 A 
ATOM     29  N   UNL     1       9.217  11.732  18.099  0.00  0.00    +0.000 NA
ATOM     30  N   UNL     1       9.930  11.182  19.135  0.00  0.00    +0.000 NA
ATOM     31  N   UNL     1       9.609   9.907  19.314  0.00  0.00    +0.000 NA
ATOM     32  N   UNL     1       8.404   7.356  19.028  0.00  0.00    +0.000 NA
ATOM     33  C   UNL     1       7.804   6.165  18.829  0.00  0.00    +0.000 A 
ENDBRANCH  22  23
ENDBRANCH   7  22
TORSDOF 4
ENDMDL
MODEL 3
REMARK VINA RESULT:      -8.2      1.070      1.223
REMARK  Name = 
REMARK  4 active torsions:
REMARK  status: ('A' for Active; 'I' for Inactive)
REMARK    1  A    between atoms: N_2  and  C_3
REMARK    2  A    between atoms: C_5  and  C_6
REMARK    3  A    between atoms: C_12  and  C_14
REMARK    4  A    between atoms: C_14  and  C_15
REMARK                            x       y       z     vdW  Elec       q    Type
REMARK                         _______ _______ _______ _____ _____    ______ ____
ROOT
ATOM      1  C   UNL     1       0.961   9.047  19.450  0.00  0.00    +0.000 C 
ATOM      2  C   UNL     1       1.601   8.070  20.475  0.00  0.00    +0.000 C 
ATOM      3  N   UNL     1       1.986   6.827  19.755  0.00  0.00    +0.000 NA
ATOM      4  C   UNL     1       2.409   5.727  20.630  0.00  0.00    +0.000 C 
ATOM      5  C   UNL     1       3.244   4.594  19.972  0.00  0.00    +0.000 C 
ATOM      6  N   UNL     1       4.132   5.038  18.893  0.00  0.00    +0.000 N 
ATOM      7  C   UNL     1       5.243   4.265  18.591  0.00  0.00    +0.000 C 
ATOM      8  O   UNL     1       5.511   3.235  19.213  0.00  0.00    +0.000 OA
ATOM      9  C   UNL     1       3.503   5.963  17.955  0.00  0.00    +0.000 C 
ATOM     10  C   UNL     1       2.963   7.184  18.700  0.00  0.00    +0.000 C 
ATOM     11  C   UNL     1       2.262   8.132  17.713  0.00  0.00    +0.000 C 
ATOM     12  O   UNL     1       1.892   9.343  18.383  0.00  0.00    +0.000 OA
ENDROOT
BRANCH   1  15
ATOM     13  C   UNL     1      -1.650  11.722  19.913  0.00  0.00    +0.000 A 
ATOM     14  C   UNL     1      -0.891  10.699  19.354  0.00  0.00    +0.000 A 
ATOM     15  C   UNL     1       0.363  10.362  19.905  0.00  0.00    +0.000 A 
ATOM     16  C   UNL     1       0.882  11.161  20.932  0.00  0.00    +0.000 A 
ATOM     17  C   UNL     1       0.112  12.205  21.469  0.00  0.00    +0.000 A 
ATOM     18  C   UNL     1      -1.166  12.453  20.979  0.00  0.00    +0.000 A 
ATOM     19  F   UNL     1      -1.934  13.375  21.579  0.00  0.00    +0.000 F 
BRANCH  13  21
ATOM     20  C   UNL     1      -4.025  12.159  19.070  0.00  0.00    +0.000 C 
ATOM     21  N   UNL     1      -2.933  11.935  19.445  0.00  0.00    +0.000 NA
ENDBRANCH  13  21
ENDBRANCH   1  15
BRANCH   7  22
ATOM     22  C   UNL     1       6.171   4.724  17.470  0.00  0.00    +0.000 C 
BRANCH  22  23
ATOM     23  C   UNL     1       6.888   6.016  17.729  0.00  0.00    +0.000 A 
ATOM     24  C   UNL     1       6.617   7.151  16.988  0.00  0.00    +0.000 A 
ATOM     25  N   UNL     1       7.198   8.350  17.196  0.00  0.00    +0.000 NA
ATOM     26  C   UNL     1       8.087   8.423  18.213  0.00  0.00    +0.000 A 
ATOM     27  N   UNL     1       8.715   9.674  18.446  0.00  0.00    +0.000 N 
ATOM     28  C   UNL     1       8.512  10.843  17.762  0.00  0.00    +0.000 A 
ATOM     29  N   UNL     1       9.291  11.776  18.258  0.00  0.00    +0.000 NA
ATOM     30  N   UNL     1       9.988  11.174  19.276  0.00  0.00    +0.000 NA
ATOM     31  N   UNL     1       9.646   9.898  19.403  0.00  0.00    +0.000 NA
ATOM     32  N   UNL     1       8.405   7.380  19.008  0.00  0.00    +0.000 NA
ATOM     33  C   UNL     1       7.788   6.207  18.757  0.00  0.00    +0.000 A 
ENDBRANCH  22  23
ENDBRANCH   7  22
TORSDOF 4
ENDMDL
MODEL 4
REMARK VINA RESULT:      -8.2      0.444      1.043
REMARK  Name = 
REMARK  4 active torsions:
REMARK  status: ('A' for Active; 'I' for Inactive)
REMARK    1  A    between atoms: N_2  and  C_3
REMARK    2  A    between atoms: C_5  and  C_6
REMARK    3  A    between atoms: C_12  and  C_14
REMARK    4  A    between atoms: C_14  and  C_15
REMARK                            x       y       z     vdW  Elec       q    Type
REMARK                         _______ _______ _______ _____ _____    ______ ____
ROOT
ATOM      1  C   UNL     1       1.100   9.220  19.104  0.00  0.00    +0.000 C 
ATOM      2  C   UNL     1       1.604   8.248  20.208  0.00  0.00    +0.000 C 
ATOM      3  N   UNL     1       1.987   6.966  19.559  0.00  0.00    +0.000 NA
ATOM      4  C   UNL     1       2.282   5.877  20.497  0.00  0.00    +0.000 C 
ATOM      5  C   UNL     1       3.113   4.686  19.945  0.00  0.00    +0.000 C 
ATOM      6  N   UNL     1       4.108   5.053  18.932  0.00  0.00    +0.000 N 
ATOM      7  C   UNL     1       5.202   4.220  18.748  0.00  0.00    +0.000 C 
ATOM      8  O   UNL     1       5.366   3.200  19.419  0.00  0.00    +0.000 OA
ATOM      9  C   UNL     1       3.605   5.975  17.919  0.00  0.00    +0.000 C 
ATOM     10  C   UNL     1       3.065   7.244  18.580  0.00  0.00    +0.000 C 
ATOM     11  C   UNL     1       2.496   8.190  17.511  0.00  0.00    +0.000 C 
ATOM     12  O   UNL     1       2.130   9.438  18.112  0.00  0.00    +0.000 OA
ENDROOT
BRANCH   1  15
ATOM     13  C   UNL     1      -0.744  11.799  21.137  0.00  0.00    +0.000 A 
ATOM     14  C   UNL     1      -0.390  10.594  20.538  0.00  0.00    +0.000 A 
ATOM     15  C   UNL     1       0.531  10.575  19.470  0.00  0.00    +0.000 A 
ATOM     16  C   UNL     1       0.972  11.795  18.941  0.00  0.00    +0.000 A 
ATOM     17  C   UNL     1       0.585  13.004  19.542  0.00  0.00    +0.000 A 
ATOM     18  C   UNL     1      -0.241  12.994  20.660  0.00  0.00    +0.000 A 
ATOM     19  F   UNL     1      -0.507  14.146  21.294  0.00  0.00    +0.000 F 
BRANCH  13  21
ATOM     20  C   UNL     1      -2.236  11.790  23.214  0.00  0.00    +0.000 C 
ATOM     21  N   UNL     1      -1.534  11.776  22.270  0.00  0.00    +0.000 NA
ENDBRANCH  13  21
ENDBRANCH   1  15
BRANCH   7  22
ATOM     22  C   UNL     1       6.241   4.600  17.697  0.00  0.00    +0.000 C 
BRANCH  22  23
ATOM     23  C   UNL     1       6.837   5.968  17.859  0.00  0.00    +0.000 A 
ATOM     24  C   UNL     1       7.805   6.222  18.813  0.00  0.00    +0.000 A 
ATOM     25  N   UNL     1       8.407   7.417  18.983  0.00  0.00    +0.000 NA
ATOM     26  C   UNL     1       8.033   8.408  18.142  0.00  0.00    +0.000 A 
ATOM     27  N   UNL     1       8.649   9.676  18.307  0.00  0.00    +0.000 N 
ATOM     28  C   UNL     1       9.608  10.017  19.223  0.00  0.00    +0.000 A 
ATOM     29  N   UNL     1       9.913  11.286  19.077  0.00  0.00    +0.000 NA
ATOM     30  N   UNL     1       9.130  11.739  18.044  0.00  0.00    +0.000 NA
ATOM     31  N   UNL     1       8.360  10.771  17.565  0.00  0.00    +0.000 NA
ATOM     32  N   UNL     1       7.114   8.256  17.165  0.00  0.00    +0.000 NA
ATOM     33  C   UNL     1       6.550   7.037  17.037  0.00  0.00    +0.000 A 
ENDBRANCH  22  23
ENDBRANCH   7  22
TORSDOF 4
ENDMDL
MODEL 5
REMARK VINA RESULT:      -8.2      1.300      2.102
REMARK  Name = 
REMARK  4 active torsions:
REMARK  status: ('A' for Active; 'I' for Inactive)
REMARK    1  A    between atoms: N_2  and  C_3
REMARK    2  A    between atoms: C_5  and  C_6
REMARK    3  A    between atoms: C_12  and  C_14
REMARK    4  A    between atoms: C_14  and  C_15
REMARK                            x       y       z     vdW  Elec       q    Type
REMARK                         _______ _______ _______ _____ _____    ______ ____
ROOT
ATOM      1  C   UNL     1       1.116   9.221  19.033  0.00  0.00    +0.000 C 
ATOM      2  C   UNL     1       1.610   8.254  20.146  0.00  0.00    +0.000 C 
ATOM      3  N   UNL     1       2.007   6.972  19.504  0.00  0.00    +0.000 NA
ATOM      4  C   UNL     1       2.294   5.886  20.449  0.00  0.00    +0.000 C 
ATOM      5  C   UNL     1       3.137   4.698  19.909  0.00  0.00    +0.000 C 
ATOM      6  N   UNL     1       4.144   5.067  18.909  0.00  0.00    +0.000 N 
ATOM      7  C   UNL     1       5.244   4.239  18.741  0.00  0.00    +0.000 C 
ATOM      8  O   UNL     1       5.404   3.220  19.417  0.00  0.00    +0.000 OA
ATOM      9  C   UNL     1       3.651   5.985  17.888  0.00  0.00    +0.000 C 
ATOM     10  C   UNL     1       3.096   7.253  18.540  0.00  0.00    +0.000 C 
ATOM     11  C   UNL     1       2.537   8.194  17.461  0.00  0.00    +0.000 C 
ATOM     12  O   UNL     1       2.159   9.442  18.055  0.00  0.00    +0.000 OA
ENDROOT
BRANCH   1  15
ATOM     13  C   UNL     1       0.851  12.975  19.185  0.00  0.00    +0.000 A 
ATOM     14  C   UNL     1       1.376  11.687  19.169  0.00  0.00    +0.000 A 
ATOM     15  C   UNL     1       0.537  10.574  19.389  0.00  0.00    +0.000 A 
ATOM     16  C   UNL     1      -0.796  10.802  19.756  0.00  0.00    +0.000 A 
ATOM     17  C   UNL     1      -1.304  12.110  19.791  0.00  0.00    +0.000 A 
ATOM     18  C   UNL     1      -0.484  13.186  19.468  0.00  0.00    +0.000 A 
ATOM     19  F   UNL     1      -1.011  14.417  19.391  0.00  0.00    +0.000 F 
BRANCH  13  21
ATOM     20  C   UNL     1       2.351  14.920  18.472  0.00  0.00    +0.000 C 
ATOM     21  N   UNL     1       1.664  14.033  18.825  0.00  0.00    +0.000 NA
ENDBRANCH  13  21
ENDBRANCH   1  15
BRANCH   7  22
ATOM     22  C   UNL     1       6.295   4.621  17.704  0.00  0.00    +0.000 C 
BRANCH  22  23
ATOM     23  C   UNL     1       6.882   5.992  17.870  0.00  0.00    +0.000 A 
ATOM     24  C   UNL     1       7.843   6.251  18.830  0.00  0.00    +0.000 A 
ATOM     25  N   UNL     1       8.436   7.450  19.005  0.00  0.00    +0.000 NA
ATOM     26  C   UNL     1       8.062   8.439  18.162  0.00  0.00    +0.000 A 
ATOM     27  N   UNL     1       8.669   9.710  18.332  0.00  0.00    +0.000 N 
ATOM     28  C   UNL     1       9.621  10.057  19.254  0.00  0.00    +0.000 A 
ATOM     29  N   UNL     1       9.919  11.327  19.111  0.00  0.00    +0.000 NA
ATOM     30  N   UNL     1       9.141  11.776  18.073  0.00  0.00    +0.000 NA
ATOM     31  N   UNL     1       8.379  10.804  17.589  0.00  0.00    +0.000 NA
ATOM     32  N   UNL     1       7.150   8.283  17.180  0.00  0.00    +0.000 NA
ATOM     33  C   UNL     1       6.594   7.061  17.047  0.00  0.00    +0.000 A 
ENDBRANCH  22  23
ENDBRANCH   7  22
TORSDOF 4
ENDMDL
MODEL 6
REMARK VINA RESULT:      -8.2      4.601     11.115
REMARK  Name = 
REMARK  4 active torsions:
REMARK  status: ('A' for Active; 'I' for Inactive)
REMARK    1  A    between atoms: N_2  and  C_3
REMARK    2  A    between atoms: C_5  and  C_6
REMARK    3  A    between atoms: C_12  and  C_14
REMARK    4  A    between atoms: C_14  and  C_15
REMARK                            x       y       z     vdW  Elec       q    Type
REMARK                         _______ _______ _______ _____ _____    ______ ____
ROOT
ATOM      1  C   UNL     1       1.898   8.072  18.705  0.00  0.00    +0.000 C 
ATOM      2  C   UNL     1       2.341   9.520  18.356  0.00  0.00    +0.000 C 
ATOM      3  N   UNL     1       1.219  10.441  18.685  0.00  0.00    +0.000 NA
ATOM      4  C   UNL     1       1.408  11.817  18.213  0.00  0.00    +0.000 C 
ATOM      5  C   UNL     1       0.540  12.912  18.892  0.00  0.00    +0.000 C 
ATOM      6  N   UNL     1       0.251  12.671  20.309  0.00  0.00    +0.000 N 
ATOM      7  C   UNL     1      -0.054  13.757  21.116  0.00  0.00    +0.000 C 
ATOM      8  O   UNL     1      -0.069  14.910  20.681  0.00  0.00    +0.000 OA
ATOM      9  C   UNL     1      -0.149  11.299  20.602  0.00  0.00    +0.000 C 
ATOM     10  C   UNL     1       0.929  10.322  20.133  0.00  0.00    +0.000 C 
ATOM     11  C   UNL     1       0.481   8.877  20.404  0.00  0.00    +0.000 C 
ATOM     12  O   UNL     1       1.550   7.972  20.106  0.00  0.00    +0.000 OA
ENDROOT
BRANCH   1  15
ATOM     13  C   UNL     1       2.906   4.467  18.281  0.00  0.00    +0.000 A 
ATOM     14  C   UNL     1       2.319   5.626  18.781  0.00  0.00    +0.000 A 
ATOM     15  C   UNL     1       2.790   6.893  18.377  0.00  0.00    +0.000 A 
ATOM     16  C   UNL     1       3.938   6.957  17.576  0.00  0.00    +0.000 A 
ATOM     17  C   UNL     1       4.533   5.778  17.101  0.00  0.00    +0.000 A 
ATOM     18  C   UNL     1       3.988   4.541  17.427  0.00  0.00    +0.000 A 
ATOM     19  F   UNL     1       4.494   3.430  16.871  0.00  0.00    +0.000 F 
BRANCH  13  21
ATOM     20  C   UNL     1       1.892   2.187  18.842  0.00  0.00    +0.000 C 
ATOM     21  N   UNL     1       2.334   3.246  18.580  0.00  0.00    +0.000 NA
ENDBRANCH  13  21
ENDBRANCH   1  15
BRANCH   7  22
ATOM     22  C   UNL     1      -0.353  13.511  22.591  0.00  0.00    +0.000 C 
BRANCH  22  23
ATOM     23  C   UNL     1      -1.811  13.447  22.942  0.00  0.00    +0.000 A 
ATOM     24  C   UNL     1      -2.573  14.595  23.056  0.00  0.00    +0.000 A 
ATOM     25  N   UNL     1      -3.894  14.604  23.330  0.00  0.00    +0.000 NA
ATOM     26  C   UNL     1      -4.488  13.398  23.481  0.00  0.00    +0.000 A 
ATOM     27  N   UNL     1      -5.876  13.384  23.776  0.00  0.00    +0.000 N 
ATOM     28  C   UNL     1      -6.705  14.466  23.911  0.00  0.00    +0.000 A 
ATOM     29  N   UNL     1      -7.915  14.050  24.205  0.00  0.00    +0.000 NA
ATOM     30  N   UNL     1      -7.837  12.680  24.246  0.00  0.00    +0.000 NA
ATOM     31  N   UNL     1      -6.605  12.262  23.985  0.00  0.00    +0.000 NA
ATOM     32  N   UNL     1      -3.838  12.221  23.369  0.00  0.00    +0.000 NA
ATOM     33  C   UNL     1      -2.520  12.273  23.087  0.00  0.00    +0.000 A 
ENDBRANCH  22  23
ENDBRANCH   7  22
TORSDOF 4
ENDMDL
MODEL 7
REMARK VINA RESULT:      -8.2      1.144      1.553
REMARK  Name = 
REMARK  4 active torsions:
REMARK  status: ('A' for Active; 'I' for Inactive)
REMARK    1  A    between atoms: N_2  and  C_3
REMARK    2  A    between atoms: C_5  and  C_6
REMARK    3  A    between atoms: C_12  and  C_14
REMARK    4  A    between atoms: C_14  and  C_15
REMARK                            x       y       z     vdW  Elec       q    Type
REMARK                         _______ _______ _______ _____ _____    ______ ____
ROOT
ATOM      1  C   UNL     1       1.020   9.206  19.206  0.00  0.00    +0.000 C 
ATOM      2  C   UNL     1       1.566   8.237  20.292  0.00  0.00    +0.000 C 
ATOM      3  N   UNL     1       1.954   6.965  19.626  0.00  0.00    +0.000 NA
ATOM      4  C   UNL     1       2.290   5.876  20.551  0.00  0.00    +0.000 C 
ATOM      5  C   UNL     1       3.126   4.702  19.971  0.00  0.00    +0.000 C 
ATOM      6  N   UNL     1       4.090   5.091  18.937  0.00  0.00    +0.000 N 
ATOM      7  C   UNL     1       5.193   4.277  18.722  0.00  0.00    +0.000 C 
ATOM      8  O   UNL     1       5.390   3.256  19.383  0.00  0.00    +0.000 OA
ATOM      9  C   UNL     1       3.548   6.010  17.942  0.00  0.00    +0.000 C 
ATOM     10  C   UNL     1       3.003   7.266  18.624  0.00  0.00    +0.000 C 
ATOM     11  C   UNL     1       2.393   8.209  17.574  0.00  0.00    +0.000 C 
ATOM     12  O   UNL     1       2.022   9.447  18.191  0.00  0.00    +0.000 OA
ENDROOT
BRANCH   1  15
ATOM     13  C   UNL     1      -1.603  11.863  19.706  0.00  0.00    +0.000 A 
ATOM     14  C   UNL     1      -0.882  10.802  19.166  0.00  0.00    +0.000 A 
ATOM     15  C   UNL     1       0.438  10.550  19.594  0.00  0.00    +0.000 A 
ATOM     16  C   UNL     1       1.048  11.464  20.463  0.00  0.00    +0.000 A 
ATOM     17  C   UNL     1       0.314  12.543  20.979  0.00  0.00    +0.000 A 
ATOM     18  C   UNL     1      -1.020  12.713  20.625  0.00  0.00    +0.000 A 
ATOM     19  F   UNL     1      -1.742  13.677  21.215  0.00  0.00    +0.000 F 
BRANCH  13  21
ATOM     20  C   UNL     1      -4.078  12.153  19.128  0.00  0.00    +0.000 C 
ATOM     21  N   UNL     1      -2.938  12.000  19.377  0.00  0.00    +0.000 NA
ENDBRANCH  13  21
ENDBRANCH   1  15
BRANCH   7  22
ATOM     22  C   UNL     1       6.200   4.679  17.649  0.00  0.00    +0.000 C 
BRANCH  22  23
ATOM     23  C   UNL     1       6.809   6.039  17.827  0.00  0.00    +0.000 A 
ATOM     24  C   UNL     1       7.797   6.267  18.767  0.00  0.00    +0.000 A 
ATOM     25  N   UNL     1       8.411   7.454  18.950  0.00  0.00    +0.000 NA
ATOM     26  C   UNL     1       8.027   8.465  18.138  0.00  0.00    +0.000 A 
ATOM     27  N   UNL     1       8.655   9.724  18.317  0.00  0.00    +0.000 N 
ATOM     28  C   UNL     1       9.635  10.040  19.221  0.00  0.00    +0.000 A 
ATOM     29  N   UNL     1       9.946  11.309  19.096  0.00  0.00    +0.000 NA
ATOM     30  N   UNL     1       9.147  11.790  18.088  0.00  0.00    +0.000 NA
ATOM     31  N   UNL     1       8.360  10.837  17.605  0.00  0.00    +0.000 NA
ATOM     32  N   UNL     1       7.088   8.340  17.177  0.00  0.00    +0.000 NA
ATOM     33  C   UNL     1       6.513   7.128  17.034  0.00  0.00    +0.000 A 
ENDBRANCH  22  23
ENDBRANCH   7  22
TORSDOF 4
ENDMDL
MODEL 8
REMARK VINA RESULT:      -8.1      0.984      1.612
REMARK  Name = 
REMARK  4 active torsions:
REMARK  status: ('A' for Active; 'I' for Inactive)
REMARK    1  A    between atoms: N_2  and  C_3
REMARK    2  A    between atoms: C_5  and  C_6
REMARK    3  A    between atoms: C_12  and  C_14
REMARK    4  A    between atoms: C_14  and  C_15
REMARK                            x       y       z     vdW  Elec       q    Type
REMARK                         _______ _______ _______ _____ _____    ______ ____
ROOT
ATOM      1  C   UNL     1       0.958   8.842  20.064  0.00  0.00    +0.000 C 
ATOM      2  C   UNL     1       1.644   7.755  20.937  0.00  0.00    +0.000 C 
ATOM      3  N   UNL     1       1.900   6.565  20.082  0.00  0.00    +0.000 NA
ATOM      4  C   UNL     1       2.350   5.377  20.818  0.00  0.00    +0.000 C 
ATOM      5  C   UNL     1       3.064   4.274  19.989  0.00  0.00    +0.000 C 
ATOM      6  N   UNL     1       3.867   4.775  18.869  0.00  0.00    +0.000 N 
ATOM      7  C   UNL     1       4.907   3.987  18.397  0.00  0.00    +0.000 C 
ATOM      8  O   UNL     1       5.182   2.897  18.902  0.00  0.00    +0.000 OA
ATOM      9  C   UNL     1       3.199   5.802  18.078  0.00  0.00    +0.000 C 
ATOM     10  C   UNL     1       2.790   6.974  18.971  0.00  0.00    +0.000 C 
ATOM     11  C   UNL     1       2.046   8.032  18.139  0.00  0.00    +0.000 C 
ATOM     12  O   UNL     1       1.799   9.193  18.940  0.00  0.00    +0.000 OA
ENDROOT
BRANCH   1  15
ATOM     13  C   UNL     1      -0.106  12.452  20.229  0.00  0.00    +0.000 A 
ATOM     14  C   UNL     1       0.570  11.288  19.876  0.00  0.00    +0.000 A 
ATOM     15  C   UNL     1       0.470  10.135  20.683  0.00  0.00    +0.000 A 
ATOM     16  C   UNL     1      -0.206  10.230  21.907  0.00  0.00    +0.000 A 
ATOM     17  C   UNL     1      -0.861  11.420  22.259  0.00  0.00    +0.000 A 
ATOM     18  C   UNL     1      -0.837  12.511  21.398  0.00  0.00    +0.000 A 
ATOM     19  F   UNL     1      -1.564  13.600  21.692  0.00  0.00    +0.000 F 
BRANCH  13  21
ATOM     20  C   UNL     1      -0.147  14.443  18.623  0.00  0.00    +0.000 C 
ATOM     21  N   UNL     1      -0.108  13.517  19.349  0.00  0.00    +0.000 NA
ENDBRANCH  13  21
ENDBRANCH   1  15
BRANCH   7  22
ATOM     22  C   UNL     1       5.747   4.505  17.234  0.00  0.00    +0.000 C 
BRANCH  22  23
ATOM     23  C   UNL     1       6.513   5.765  17.515  0.00  0.00    +0.000 A 
ATOM     24  C   UNL     1       6.259   6.931  16.818  0.00  0.00    +0.000 A 
ATOM     25  N   UNL     1       6.884   8.104  17.049  0.00  0.00    +0.000 NA
ATOM     26  C   UNL     1       7.800   8.116  18.043  0.00  0.00    +0.000 A 
ATOM     27  N   UNL     1       8.474   9.338  18.299  0.00  0.00    +0.000 N 
ATOM     28  C   UNL     1       8.291  10.535  17.658  0.00  0.00    +0.000 A 
ATOM     29  N   UNL     1       9.113  11.426  18.164  0.00  0.00    +0.000 NA
ATOM     30  N   UNL     1       9.816  10.769  19.143  0.00  0.00    +0.000 NA
ATOM     31  N   UNL     1       9.436   9.501  19.238  0.00  0.00    +0.000 NA
ATOM     32  N   UNL     1       8.105   7.038  18.796  0.00  0.00    +0.000 NA
ATOM     33  C   UNL     1       7.444   5.894  18.525  0.00  0.00    +0.000 A 
ENDBRANCH  22  23
ENDBRANCH   7  22
TORSDOF 4
ENDMDL
MODEL 9
REMARK VINA RESULT:      -7.9      1.075      1.924
REMARK  Name = 
REMARK  4 active torsions:
REMARK  status: ('A' for Active; 'I' for Inactive)
REMARK    1  A    between atoms: N_2  and  C_3
REMARK    2  A    between atoms: C_5  and  C_6
REMARK    3  A    between atoms: C_12  and  C_14
REMARK    4  A    between atoms: C_14  and  C_15
REMARK                            x       y       z     vdW  Elec       q    Type
REMARK                         _______ _______ _______ _____ _____    ______ ____
ROOT
ATOM      1  C   UNL     1       0.926   8.837  20.088  0.00  0.00    +0.000 C 
ATOM      2  C   UNL     1       1.610   7.757  20.972  0.00  0.00    +0.000 C 
ATOM      3  N   UNL     1       1.881   6.565  20.124  0.00  0.00    +0.000 NA
ATOM      4  C   UNL     1       2.331   5.383  20.868  0.00  0.00    +0.000 C 
ATOM      5  C   UNL     1       3.059   4.281  20.050  0.00  0.00    +0.000 C 
ATOM      6  N   UNL     1       3.870   4.782  18.936  0.00  0.00    +0.000 N 
ATOM      7  C   UNL     1       4.919   3.999  18.477  0.00  0.00    +0.000 C 
ATOM      8  O   UNL     1       5.195   2.912  18.988  0.00  0.00    +0.000 OA
ATOM      9  C   UNL     1       3.202   5.803  18.135  0.00  0.00    +0.000 C 
ATOM     10  C   UNL     1       2.779   6.976  19.019  0.00  0.00    +0.000 C 
ATOM     11  C   UNL     1       2.036   8.026  18.177  0.00  0.00    +0.000 C 
ATOM     12  O   UNL     1       1.775   9.189  18.971  0.00  0.00    +0.000 OA
ENDROOT
BRANCH   1  15
ATOM     13  C   UNL     1      -0.120  12.452  20.239  0.00  0.00    +0.000 A 
ATOM     14  C   UNL     1       0.560  11.286  19.902  0.00  0.00    +0.000 A 
ATOM     15  C   UNL     1       0.424  10.129  20.698  0.00  0.00    +0.000 A 
ATOM     16  C   UNL     1      -0.293  10.220  21.898  0.00  0.00    +0.000 A 
ATOM     17  C   UNL     1      -0.954  11.412  22.235  0.00  0.00    +0.000 A 
ATOM     18  C   UNL     1      -0.892  12.509  21.382  0.00  0.00    +0.000 A 
ATOM     19  F   UNL     1      -1.622  13.600  21.657  0.00  0.00    +0.000 F 
BRANCH  13  21
ATOM     20  C   UNL     1      -0.100  14.443  18.634  0.00  0.00    +0.000 C 
ATOM     21  N   UNL     1      -0.084  13.522  19.366  0.00  0.00    +0.000 NA
ENDBRANCH  13  21
ENDBRANCH   1  15
BRANCH   7  22
ATOM     22  C   UNL     1       5.766   4.518  17.319  0.00  0.00    +0.000 C 
BRANCH  22  23
ATOM     23  C   UNL     1       6.433   5.840  17.563  0.00  0.00    +0.000 A 
ATOM     24  C   UNL     1       7.436   5.977  18.504  0.00  0.00    +0.000 A 
ATOM     25  N   UNL     1       8.100   7.127  18.743  0.00  0.00    +0.000 NA
ATOM     26  C   UNL     1       7.753   8.194  17.988  0.00  0.00    +0.000 A 
ATOM     27  N   UNL     1       8.434   9.416  18.227  0.00  0.00    +0.000 N 
ATOM     28  C   UNL     1       9.433   9.643  19.137  0.00  0.00    +0.000 A 
ATOM     29  N   UNL     1       9.795  10.903  19.075  0.00  0.00    +0.000 NA
ATOM     30  N   UNL     1       9.009  11.468  18.102  0.00  0.00    +0.000 NA
ATOM     31  N   UNL     1       8.180  10.576  17.577  0.00  0.00    +0.000 NA
ATOM     32  N   UNL     1       6.802   8.159  17.031  0.00  0.00    +0.000 NA
ATOM     33  C   UNL     1       6.176   6.981  16.830  0.00  0.00    +0.000 A 
ENDBRANCH  22  23
ENDBRANCH   7  22
TORSDOF 4
ENDMDL
