MODEL 1
REMARK VINA RESULT:      -7.6      0.000      0.000
REMARK  Name = 
REMARK  5 active torsions:
REMARK  status: ('A' for Active; 'I' for Inactive)
REMARK    1  A    between atoms: C_1  and  O_2
REMARK    2  A    between atoms: O_2  and  C_3
REMARK    3  A    between atoms: C_3  and  C_5
REMARK    4  A    between atoms: C_11  and  N_12
REMARK    5  A    between atoms: C_13  and  C_15
REMARK                            x       y       z     vdW  Elec       q    Type
REMARK                         _______ _______ _______ _____ _____    ______ ____
ROOT
ATOM      1  C   UNL     1       6.810   4.796  16.406  0.00  0.00    +0.000 A 
ATOM      2  C   UNL     1       7.499   5.186  15.236  0.00  0.00    +0.000 A 
ATOM      3  C   UNL     1       7.030   4.812  13.983  0.00  0.00    +0.000 A 
ATOM      4 CL   UNL     1       7.897   5.276  12.571  0.00  0.00    +0.000 Cl
ATOM      5  C   UNL     1       5.867   4.061  13.868  0.00  0.00    +0.000 A 
ATOM      6  C   UNL     1       5.183   3.665  15.022  0.00  0.00    +0.000 A 
ATOM      7  C   UNL     1       5.649   3.989  16.307  0.00  0.00    +0.000 A 
ENDROOT
BRANCH   7   8
ATOM      8  N   UNL     1       4.944   3.544  17.466  0.00  0.00    +0.000 N 
ATOM      9  C   UNL     1       4.041   4.293  18.222  0.00  0.00    +0.000 C 
ATOM     10  O   UNL     1       3.585   5.386  17.896  0.00  0.00    +0.000 OA
ATOM     11  H   UNL     1       5.021   2.548  17.677  0.00  0.00    +0.000 HD
BRANCH   9  12
ATOM     12  C   UNL     1       3.646   3.633  19.550  0.00  0.00    +0.000 C 
ATOM     13  C   UNL     1       2.755   4.558  20.414  0.00  0.00    +0.000 C 
ATOM     14  C   UNL     1       1.250   4.440  20.174  0.00  0.00    +0.000 C 
ATOM     15  C   UNL     1       0.791   2.991  20.150  0.00  0.00    +0.000 C 
ATOM     16  C   UNL     1       1.550   2.222  19.079  0.00  0.00    +0.000 C 
ATOM     17  C   UNL     1       3.055   2.233  19.345  0.00  0.00    +0.000 C 
ENDBRANCH   9  12
ENDBRANCH   7   8
BRANCH   1  18
ATOM     18  C   UNL     1       7.355   5.224  17.729  0.00  0.00    +0.000 C 
ATOM     19  O   UNL     1       7.938   4.476  18.497  0.00  0.00    +0.000 OA
BRANCH  18  21
ATOM     20  C   UNL     1       8.169   7.317  18.460  0.00  0.00    +0.000 C 
ATOM     21  O   UNL     1       7.090   6.539  17.940  0.00  0.00    +0.000 OA
ENDBRANCH  18  21
ENDBRANCH   1  18
TORSDOF 4
ENDMDL
MODEL 2
REMARK VINA RESULT:      -7.3      0.749      1.042
REMARK  Name = 
REMARK  5 active torsions:
REMARK  status: ('A' for Active; 'I' for Inactive)
REMARK    1  A    between atoms: C_1  and  O_2
REMARK    2  A    between atoms: O_2  and  C_3
REMARK    3  A    between atoms: C_3  and  C_5
REMARK    4  A    between atoms: C_11  and  N_12
REMARK    5  A    between atoms: C_13  and  C_15
REMARK                            x       y       z     vdW  Elec       q    Type
REMARK                         _______ _______ _______ _____ _____    ______ ____
ROOT
ATOM      1  C   UNL     1       6.788   5.170  16.009  0.00  0.00    +0.000 A 
ATOM      2  C   UNL     1       7.348   5.382  14.730  0.00  0.00    +0.000 A 
ATOM      3  C   UNL     1       6.893   4.661  13.633  0.00  0.00    +0.000 A 
ATOM      4 CL   UNL     1       7.605   4.916  12.087  0.00  0.00    +0.000 Cl
ATOM      5  C   UNL     1       5.870   3.734  13.782  0.00  0.00    +0.000 A 
ATOM      6  C   UNL     1       5.315   3.514  15.046  0.00  0.00    +0.000 A 
ATOM      7  C   UNL     1       5.776   4.194  16.186  0.00  0.00    +0.000 A 
ENDROOT
BRANCH   7   8
ATOM      8  N   UNL     1       5.210   3.924  17.468  0.00  0.00    +0.000 N 
ATOM      9  C   UNL     1       4.144   4.604  18.060  0.00  0.00    +0.000 C 
ATOM     10  O   UNL     1       3.422   5.418  17.488  0.00  0.00    +0.000 OA
ATOM     11  H   UNL     1       5.541   3.076  17.930  0.00  0.00    +0.000 HD
BRANCH   9  12
ATOM     12  C   UNL     1       3.932   4.259  19.540  0.00  0.00    +0.000 C 
ATOM     13  C   UNL     1       2.788   5.089  20.170  0.00  0.00    +0.000 C 
ATOM     14  C   UNL     1       1.391   4.477  20.066  0.00  0.00    +0.000 C 
ATOM     15  C   UNL     1       1.383   3.012  20.470  0.00  0.00    +0.000 C 
ATOM     16  C   UNL     1       2.359   2.227  19.607  0.00  0.00    +0.000 C 
ATOM     17  C   UNL     1       3.787   2.749  19.765  0.00  0.00    +0.000 C 
ENDBRANCH   9  12
ENDBRANCH   7   8
BRANCH   1  18
ATOM     18  C   UNL     1       7.312   5.971  17.157  0.00  0.00    +0.000 C 
ATOM     19  O   UNL     1       7.387   7.188  17.157  0.00  0.00    +0.000 OA
BRANCH  18  21
ATOM     20  C   UNL     1       7.694   5.716  19.473  0.00  0.00    +0.000 C 
ATOM     21  O   UNL     1       7.698   5.145  18.164  0.00  0.00    +0.000 OA
ENDBRANCH  18  21
ENDBRANCH   1  18
TORSDOF 4
ENDMDL
MODEL 3
REMARK VINA RESULT:      -7.2      1.099      1.163
REMARK  Name = 
REMARK  5 active torsions:
REMARK  status: ('A' for Active; 'I' for Inactive)
REMARK    1  A    between atoms: C_1  and  O_2
REMARK    2  A    between atoms: O_2  and  C_3
REMARK    3  A    between atoms: C_3  and  C_5
REMARK    4  A    between atoms: C_11  and  N_12
REMARK    5  A    between atoms: C_13  and  C_15
REMARK                            x       y       z     vdW  Elec       q    Type
REMARK                         _______ _______ _______ _____ _____    ______ ____
ROOT
ATOM      1  C   UNL     1       6.854   4.544  16.691  0.00  0.00    +0.000 A 
ATOM      2  C   UNL     1       7.372   4.752  15.394  0.00  0.00    +0.000 A 
ATOM      3  C   UNL     1       6.558   4.611  14.278  0.00  0.00    +0.000 A 
ATOM      4 CL   UNL     1       7.214   4.845  12.704  0.00  0.00    +0.000 Cl
ATOM      5  C   UNL     1       5.218   4.278  14.429  0.00  0.00    +0.000 A 
ATOM      6  C   UNL     1       4.699   4.064  15.709  0.00  0.00    +0.000 A 
ATOM      7  C   UNL     1       5.501   4.157  16.858  0.00  0.00    +0.000 A 
ENDROOT
BRANCH   7   8
ATOM      8  N   UNL     1       4.949   3.902  18.150  0.00  0.00    +0.000 N 
ATOM      9  C   UNL     1       4.033   2.900  18.475  0.00  0.00    +0.000 C 
ATOM     10  O   UNL     1       3.706   1.977  17.732  0.00  0.00    +0.000 OA
ATOM     11  H   UNL     1       5.363   4.428  18.922  0.00  0.00    +0.000 HD
BRANCH   9  12
ATOM     12  C   UNL     1       3.430   3.039  19.879  0.00  0.00    +0.000 C 
ATOM     13  C   UNL     1       3.294   4.520  20.306  0.00  0.00    +0.000 C 
ATOM     14  C   UNL     1       1.979   5.200  19.926  0.00  0.00    +0.000 C 
ATOM     15  C   UNL     1       0.774   4.344  20.281  0.00  0.00    +0.000 C 
ATOM     16  C   UNL     1       0.877   2.990  19.594  0.00  0.00    +0.000 C 
ATOM     17  C   UNL     1       2.133   2.237  20.031  0.00  0.00    +0.000 C 
ENDBRANCH   9  12
ENDBRANCH   7   8
BRANCH   1  18
ATOM     18  C   UNL     1       7.772   4.708  17.859  0.00  0.00    +0.000 C 
ATOM     19  O   UNL     1       8.747   4.003  18.060  0.00  0.00    +0.000 OA
BRANCH  18  21
ATOM     20  C   UNL     1       7.922   7.008  18.373  0.00  0.00    +0.000 C 
ATOM     21  O   UNL     1       7.347   5.730  18.647  0.00  0.00    +0.000 OA
ENDBRANCH  18  21
ENDBRANCH   1  18
TORSDOF 4
ENDMDL
MODEL 4
REMARK VINA RESULT:      -7.0      2.331      3.574
REMARK  Name = 
REMARK  5 active torsions:
REMARK  status: ('A' for Active; 'I' for Inactive)
REMARK    1  A    between atoms: C_1  and  O_2
REMARK    2  A    between atoms: O_2  and  C_3
REMARK    3  A    between atoms: C_3  and  C_5
REMARK    4  A    between atoms: C_11  and  N_12
REMARK    5  A    between atoms: C_13  and  C_15
REMARK                            x       y       z     vdW  Elec       q    Type
REMARK                         _______ _______ _______ _____ _____    ______ ____
ROOT
ATOM      1  C   UNL     1       6.378   6.386  17.358  0.00  0.00    +0.000 A 
ATOM      2  C   UNL     1       7.127   7.579  17.257  0.00  0.00    +0.000 A 
ATOM      3  C   UNL     1       8.120   7.870  18.184  0.00  0.00    +0.000 A 
ATOM      4 CL   UNL     1       9.004   9.341  18.059  0.00  0.00    +0.000 Cl
ATOM      5  C   UNL     1       8.396   6.979  19.213  0.00  0.00    +0.000 A 
ATOM      6  C   UNL     1       7.655   5.799  19.324  0.00  0.00    +0.000 A 
ATOM      7  C   UNL     1       6.617   5.490  18.430  0.00  0.00    +0.000 A 
ENDROOT
BRANCH   7   8
ATOM      8  N   UNL     1       5.858   4.291  18.588  0.00  0.00    +0.000 N 
ATOM      9  C   UNL     1       4.659   4.158  19.290  0.00  0.00    +0.000 C 
ATOM     10  O   UNL     1       3.989   5.092  19.725  0.00  0.00    +0.000 OA
ATOM     11  H   UNL     1       6.165   3.495  18.027  0.00  0.00    +0.000 HD
BRANCH   9  12
ATOM     12  C   UNL     1       4.220   2.702  19.499  0.00  0.00    +0.000 C 
ATOM     13  C   UNL     1       3.191   2.567  20.647  0.00  0.00    +0.000 C 
ATOM     14  C   UNL     1       1.724   2.708  20.241  0.00  0.00    +0.000 C 
ATOM     15  C   UNL     1       1.392   1.873  19.016  0.00  0.00    +0.000 C 
ATOM     16  C   UNL     1       2.293   2.268  17.855  0.00  0.00    +0.000 C 
ATOM     17  C   UNL     1       3.767   2.043  18.192  0.00  0.00    +0.000 C 
ENDBRANCH   9  12
ENDBRANCH   7   8
BRANCH   1  18
ATOM     18  C   UNL     1       5.321   6.120  16.336  0.00  0.00    +0.000 C 
ATOM     19  O   UNL     1       4.141   5.969  16.604  0.00  0.00    +0.000 OA
BRANCH  18  21
ATOM     20  C   UNL     1       6.187   4.751  14.618  0.00  0.00    +0.000 C 
ATOM     21  O   UNL     1       5.875   6.060  15.097  0.00  0.00    +0.000 OA
ENDBRANCH  18  21
ENDBRANCH   1  18
TORSDOF 4
ENDMDL
MODEL 5
REMARK VINA RESULT:      -7.0      2.759      3.636
REMARK  Name = 
REMARK  5 active torsions:
REMARK  status: ('A' for Active; 'I' for Inactive)
REMARK    1  A    between atoms: C_1  and  O_2
REMARK    2  A    between atoms: O_2  and  C_3
REMARK    3  A    between atoms: C_3  and  C_5
REMARK    4  A    between atoms: C_11  and  N_12
REMARK    5  A    between atoms: C_13  and  C_15
REMARK                            x       y       z     vdW  Elec       q    Type
REMARK                         _______ _______ _______ _____ _____    ______ ____
ROOT
ATOM      1  C   UNL     1       6.186   6.717  17.314  0.00  0.00    +0.000 A 
ATOM      2  C   UNL     1       6.973   7.890  17.288  0.00  0.00    +0.000 A 
ATOM      3  C   UNL     1       8.049   8.037  18.154  0.00  0.00    +0.000 A 
ATOM      4 CL   UNL     1       8.980   9.484  18.124  0.00  0.00    +0.000 Cl
ATOM      5  C   UNL     1       8.371   7.022  19.046  0.00  0.00    +0.000 A 
ATOM      6  C   UNL     1       7.593   5.862  19.082  0.00  0.00    +0.000 A 
ATOM      7  C   UNL     1       6.473   5.694  18.251  0.00  0.00    +0.000 A 
ENDROOT
BRANCH   7   8
ATOM      8  N   UNL     1       5.680   4.509  18.334  0.00  0.00    +0.000 N 
ATOM      9  C   UNL     1       4.649   4.266  19.242  0.00  0.00    +0.000 C 
ATOM     10  O   UNL     1       4.154   5.108  19.987  0.00  0.00    +0.000 OA
ATOM     11  H   UNL     1       5.806   3.838  17.574  0.00  0.00    +0.000 HD
BRANCH   9  12
ATOM     12  C   UNL     1       4.161   2.811  19.254  0.00  0.00    +0.000 C 
ATOM     13  C   UNL     1       3.176   2.541  20.416  0.00  0.00    +0.000 C 
ATOM     14  C   UNL     1       1.700   2.790  20.104  0.00  0.00    +0.000 C 
ATOM     15  C   UNL     1       1.284   2.159  18.785  0.00  0.00    +0.000 C 
ATOM     16  C   UNL     1       2.152   2.694  17.655  0.00  0.00    +0.000 C 
ATOM     17  C   UNL     1       3.628   2.371  17.885  0.00  0.00    +0.000 C 
ENDBRANCH   9  12
ENDBRANCH   7   8
BRANCH   1  18
ATOM     18  C   UNL     1       5.039   6.608  16.362  0.00  0.00    +0.000 C 
ATOM     19  O   UNL     1       5.156   6.674  15.149  0.00  0.00    +0.000 OA
BRANCH  18  21
ATOM     20  C   UNL     1       3.325   7.628  17.625  0.00  0.00    +0.000 C 
ATOM     21  O   UNL     1       3.878   6.445  17.047  0.00  0.00    +0.000 OA
ENDBRANCH  18  21
ENDBRANCH   1  18
TORSDOF 4
ENDMDL
MODEL 6
REMARK VINA RESULT:      -7.0      1.168      1.622
REMARK  Name = 
REMARK  5 active torsions:
REMARK  status: ('A' for Active; 'I' for Inactive)
REMARK    1  A    between atoms: C_1  and  O_2
REMARK    2  A    between atoms: O_2  and  C_3
REMARK    3  A    between atoms: C_3  and  C_5
REMARK    4  A    between atoms: C_11  and  N_12
REMARK    5  A    between atoms: C_13  and  C_15
REMARK                            x       y       z     vdW  Elec       q    Type
REMARK                         _______ _______ _______ _____ _____    ______ ____
ROOT
ATOM      1  C   UNL     1       6.153   4.598  16.878  0.00  0.00    +0.000 A 
ATOM      2  C   UNL     1       6.958   5.269  15.930  0.00  0.00    +0.000 A 
ATOM      3  C   UNL     1       6.923   4.903  14.590  0.00  0.00    +0.000 A 
ATOM      4 CL   UNL     1       7.928   5.716  13.455  0.00  0.00    +0.000 Cl
ATOM      5  C   UNL     1       6.083   3.882  14.167  0.00  0.00    +0.000 A 
ATOM      6  C   UNL     1       5.289   3.209  15.101  0.00  0.00    +0.000 A 
ATOM      7  C   UNL     1       5.327   3.522  16.469  0.00  0.00    +0.000 A 
ENDROOT
BRANCH   7   8
ATOM      8  N   UNL     1       4.526   2.796  17.402  0.00  0.00    +0.000 N 
ATOM      9  C   UNL     1       3.137   2.853  17.519  0.00  0.00    +0.000 C 
ATOM     10  O   UNL     1       2.384   3.402  16.717  0.00  0.00    +0.000 OA
ATOM     11  H   UNL     1       5.014   2.079  17.942  0.00  0.00    +0.000 HD
BRANCH   9  12
ATOM     12  C   UNL     1       2.589   2.162  18.775  0.00  0.00    +0.000 C 
ATOM     13  C   UNL     1       3.414   2.515  20.036  0.00  0.00    +0.000 C 
ATOM     14  C   UNL     1       2.954   3.757  20.800  0.00  0.00    +0.000 C 
ATOM     15  C   UNL     1       1.451   3.760  21.027  0.00  0.00    +0.000 C 
ATOM     16  C   UNL     1       0.723   3.672  19.694  0.00  0.00    +0.000 C 
ATOM     17  C   UNL     1       1.083   2.388  18.946  0.00  0.00    +0.000 C 
ENDBRANCH   9  12
ENDBRANCH   7   8
BRANCH   1  18
ATOM     18  C   UNL     1       6.228   5.030  18.307  0.00  0.00    +0.000 C 
ATOM     19  O   UNL     1       5.297   5.534  18.913  0.00  0.00    +0.000 OA
BRANCH  18  21
ATOM     20  C   UNL     1       8.126   5.910  19.401  0.00  0.00    +0.000 C 
ATOM     21  O   UNL     1       7.470   4.792  18.802  0.00  0.00    +0.000 OA
ENDBRANCH  18  21
ENDBRANCH   1  18
TORSDOF 4
ENDMDL
MODEL 7
REMARK VINA RESULT:      -6.9      1.226      1.303
REMARK  Name = 
REMARK  5 active torsions:
REMARK  status: ('A' for Active; 'I' for Inactive)
REMARK    1  A    between atoms: C_1  and  O_2
REMARK    2  A    between atoms: O_2  and  C_3
REMARK    3  A    between atoms: C_3  and  C_5
REMARK    4  A    between atoms: C_11  and  N_12
REMARK    5  A    between atoms: C_13  and  C_15
REMARK                            x       y       z     vdW  Elec       q    Type
REMARK                         _______ _______ _______ _____ _____    ______ ____
ROOT
ATOM      1  C   UNL     1       6.551   5.701  16.380  0.00  0.00    +0.000 A 
ATOM      2  C   UNL     1       7.293   5.568  15.185  0.00  0.00    +0.000 A 
ATOM      3  C   UNL     1       6.797   4.816  14.128  0.00  0.00    +0.000 A 
ATOM      4 CL   UNL     1       7.726   4.646  12.689  0.00  0.00    +0.000 Cl
ATOM      5  C   UNL     1       5.558   4.197  14.231  0.00  0.00    +0.000 A 
ATOM      6  C   UNL     1       4.822   4.318  15.413  0.00  0.00    +0.000 A 
ATOM      7  C   UNL     1       5.307   5.036  16.518  0.00  0.00    +0.000 A 
ENDROOT
BRANCH   7   8
ATOM      8  N   UNL     1       4.544   5.116  17.723  0.00  0.00    +0.000 N 
ATOM      9  C   UNL     1       4.606   4.232  18.800  0.00  0.00    +0.000 C 
ATOM     10  O   UNL     1       5.456   3.356  18.945  0.00  0.00    +0.000 OA
ATOM     11  H   UNL     1       4.000   5.971  17.847  0.00  0.00    +0.000 HD
BRANCH   9  12
ATOM     12  C   UNL     1       3.488   4.429  19.832  0.00  0.00    +0.000 C 
ATOM     13  C   UNL     1       2.238   5.098  19.210  0.00  0.00    +0.000 C 
ATOM     14  C   UNL     1       1.204   4.142  18.615  0.00  0.00    +0.000 C 
ATOM     15  C   UNL     1       0.883   2.994  19.558  0.00  0.00    +0.000 C 
ATOM     16  C   UNL     1       2.154   2.233  19.905  0.00  0.00    +0.000 C 
ATOM     17  C   UNL     1       3.174   3.137  20.596  0.00  0.00    +0.000 C 
ENDBRANCH   9  12
ENDBRANCH   7   8
BRANCH   1  18
ATOM     18  C   UNL     1       7.128   6.521  17.488  0.00  0.00    +0.000 C 
ATOM     19  O   UNL     1       7.483   6.060  18.560  0.00  0.00    +0.000 OA
BRANCH  18  21
ATOM     20  C   UNL     1       8.070   8.652  17.875  0.00  0.00    +0.000 C 
ATOM     21  O   UNL     1       7.177   7.829  17.124  0.00  0.00    +0.000 OA
ENDBRANCH  18  21
ENDBRANCH   1  18
TORSDOF 4
ENDMDL
MODEL 8
REMARK VINA RESULT:      -6.9      1.096      1.299
REMARK  Name = 
REMARK  5 active torsions:
REMARK  status: ('A' for Active; 'I' for Inactive)
REMARK    1  A    between atoms: C_1  and  O_2
REMARK    2  A    between atoms: O_2  and  C_3
REMARK    3  A    between atoms: C_3  and  C_5
REMARK    4  A    between atoms: C_11  and  N_12
REMARK    5  A    between atoms: C_13  and  C_15
REMARK                            x       y       z     vdW  Elec       q    Type
REMARK                         _______ _______ _______ _____ _____    ______ ____
ROOT
ATOM      1  C   UNL     1       6.471   5.090  16.366  0.00  0.00    +0.000 A 
ATOM      2  C   UNL     1       7.135   5.589  15.224  0.00  0.00    +0.000 A 
ATOM      3  C   UNL     1       7.054   4.916  14.011  0.00  0.00    +0.000 A 
ATOM      4 CL   UNL     1       7.891   5.526  12.636  0.00  0.00    +0.000 Cl
ATOM      5  C   UNL     1       6.305   3.752  13.908  0.00  0.00    +0.000 A 
ATOM      6  C   UNL     1       5.650   3.249  15.036  0.00  0.00    +0.000 A 
ATOM      7  C   UNL     1       5.742   3.878  16.288  0.00  0.00    +0.000 A 
ENDROOT
BRANCH   7   8
ATOM      8  N   UNL     1       5.086   3.322  17.428  0.00  0.00    +0.000 N 
ATOM      9  C   UNL     1       3.712   3.320  17.672  0.00  0.00    +0.000 C 
ATOM     10  O   UNL     1       2.851   3.638  16.854  0.00  0.00    +0.000 OA
ATOM     11  H   UNL     1       5.675   2.770  18.053  0.00  0.00    +0.000 HD
BRANCH   9  12
ATOM     12  C   UNL     1       3.333   2.884  19.093  0.00  0.00    +0.000 C 
ATOM     13  C   UNL     1       3.260   4.084  20.067  0.00  0.00    +0.000 C 
ATOM     14  C   UNL     1       1.899   4.774  20.165  0.00  0.00    +0.000 C 
ATOM     15  C   UNL     1       0.767   3.775  20.335  0.00  0.00    +0.000 C 
ATOM     16  C   UNL     1       0.767   2.787  19.177  0.00  0.00    +0.000 C 
ATOM     17  C   UNL     1       2.077   2.005  19.111  0.00  0.00    +0.000 C 
ENDBRANCH   9  12
ENDBRANCH   7   8
BRANCH   1  18
ATOM     18  C   UNL     1       6.590   5.851  17.647  0.00  0.00    +0.000 C 
ATOM     19  O   UNL     1       7.655   6.159  18.157  0.00  0.00    +0.000 OA
BRANCH  18  21
ATOM     20  C   UNL     1       4.544   6.995  17.356  0.00  0.00    +0.000 C 
ATOM     21  O   UNL     1       5.356   6.123  18.145  0.00  0.00    +0.000 OA
ENDBRANCH  18  21
ENDBRANCH   1  18
TORSDOF 4
ENDMDL
MODEL 9
REMARK VINA RESULT:      -6.9      1.389      1.922
REMARK  Name = 
REMARK  5 active torsions:
REMARK  status: ('A' for Active; 'I' for Inactive)
REMARK    1  A    between atoms: C_1  and  O_2
REMARK    2  A    between atoms: O_2  and  C_3
REMARK    3  A    between atoms: C_3  and  C_5
REMARK    4  A    between atoms: C_11  and  N_12
REMARK    5  A    between atoms: C_13  and  C_15
REMARK                            x       y       z     vdW  Elec       q    Type
REMARK                         _______ _______ _______ _____ _____    ______ ____
ROOT
ATOM      1  C   UNL     1       5.876   4.756  16.894  0.00  0.00    +0.000 A 
ATOM      2  C   UNL     1       6.700   5.428  15.964  0.00  0.00    +0.000 A 
ATOM      3  C   UNL     1       6.865   4.929  14.678  0.00  0.00    +0.000 A 
ATOM      4 CL   UNL     1       7.893   5.749  13.567  0.00  0.00    +0.000 Cl
ATOM      5  C   UNL     1       6.208   3.769  14.290  0.00  0.00    +0.000 A 
ATOM      6  C   UNL     1       5.396   3.095  15.206  0.00  0.00    +0.000 A 
ATOM      7  C   UNL     1       5.237   3.546  16.527  0.00  0.00    +0.000 A 
ENDROOT
BRANCH   7   8
ATOM      8  N   UNL     1       4.425   2.817  17.448  0.00  0.00    +0.000 N 
ATOM      9  C   UNL     1       3.032   2.850  17.527  0.00  0.00    +0.000 C 
ATOM     10  O   UNL     1       2.291   3.372  16.697  0.00  0.00    +0.000 OA
ATOM     11  H   UNL     1       4.912   2.119  18.012  0.00  0.00    +0.000 HD
BRANCH   9  12
ATOM     12  C   UNL     1       2.464   2.167  18.778  0.00  0.00    +0.000 C 
ATOM     13  C   UNL     1       3.370   2.377  20.015  0.00  0.00    +0.000 C 
ATOM     14  C   UNL     1       3.076   3.626  20.846  0.00  0.00    +0.000 C 
ATOM     15  C   UNL     1       1.592   3.776  21.138  0.00  0.00    +0.000 C 
ATOM     16  C   UNL     1       0.807   3.822  19.836  0.00  0.00    +0.000 C 
ATOM     17  C   UNL     1       0.998   2.542  19.024  0.00  0.00    +0.000 C 
ENDBRANCH   9  12
ENDBRANCH   7   8
BRANCH   1  18
ATOM     18  C   UNL     1       5.731   5.334  18.264  0.00  0.00    +0.000 C 
ATOM     19  O   UNL     1       6.181   4.813  19.271  0.00  0.00    +0.000 OA
BRANCH  18  21
ATOM     20  C   UNL     1       3.608   6.364  18.355  0.00  0.00    +0.000 C 
ATOM     21  O   UNL     1       5.023   6.492  18.210  0.00  0.00    +0.000 OA
ENDBRANCH  18  21
ENDBRANCH   1  18
TORSDOF 4
ENDMDL
