MODEL 1
REMARK VINA RESULT:      -8.3      0.000      0.000
REMARK  Name = 
REMARK  7 active torsions:
REMARK  status: ('A' for Active; 'I' for Inactive)
REMARK    1  A    between atoms: C_1  and  O_2
REMARK    2  A    between atoms: O_2  and  C_3
REMARK    3  A    between atoms: C_7  and  C_8
REMARK    4  A    between atoms: C_8  and  N_9
REMARK    5  A    between atoms: N_17  and  C_18
REMARK    6  A    between atoms: C_18  and  C_19
REMARK    7  A    between atoms: C_19  and  C_20
REMARK                            x       y       z     vdW  Elec       q    Type
REMARK                         _______ _______ _______ _____ _____    ______ ____
ROOT
ATOM      1  N   UNL     1       6.062   4.335  17.027  0.00  0.00    +0.000 NA
ATOM      2  C   UNL     1       6.099   4.895  18.379  0.00  0.00    +0.000 C 
ATOM      3  C   UNL     1       4.883   5.744  18.760  0.00  0.00    +0.000 C 
ATOM      4  C   UNL     1       3.485   5.161  18.406  0.00  0.00    +0.000 C 
ATOM      5  C   UNL     1       2.815   4.396  19.576  0.00  0.00    +0.000 C 
ATOM      6  C   UNL     1       2.419   5.273  20.760  0.00  0.00    +0.000 C 
ATOM      7  C   UNL     1       1.809   6.616  20.402  0.00  0.00    +0.000 C 
ATOM      8  O   UNL     1       0.998   7.160  21.149  0.00  0.00    +0.000 OA
ATOM      9  N   UNL     1       2.354   7.229  19.274  0.00  0.00    +0.000 N 
ATOM     10  C   UNL     1       2.548   6.366  18.107  0.00  0.00    +0.000 C 
ATOM     11  C   UNL     1       3.534   4.222  17.162  0.00  0.00    +0.000 C 
ATOM     12  C   UNL     1       4.864   3.500  16.906  0.00  0.00    +0.000 C 
ENDROOT
BRANCH   1  13
ATOM     13  C   UNL     1       6.164   5.333  15.937  0.00  0.00    +0.000 C 
BRANCH  13  18
ATOM     14  C   UNL     1       6.042   3.586  12.532  0.00  0.00    +0.000 A 
ATOM     15  C   UNL     1       7.154   4.182  11.947  0.00  0.00    +0.000 A 
ATOM     16  C   UNL     1       7.900   5.074  12.687  0.00  0.00    +0.000 A 
ATOM     17  N   UNL     1       7.623   5.404  13.968  0.00  0.00    +0.000 NA
ATOM     18  C   UNL     1       6.540   4.817  14.544  0.00  0.00    +0.000 A 
ATOM     19  C   UNL     1       5.722   3.919  13.850  0.00  0.00    +0.000 A 
BRANCH  14  21
ATOM     20  C   UNL     1       4.151   3.049  11.131  0.00  0.00    +0.000 C 
ATOM     21  O   UNL     1       5.399   2.706  11.713  0.00  0.00    +0.000 OA
ENDBRANCH  14  21
ENDBRANCH  13  18
ENDBRANCH   1  13
BRANCH   9  22
ATOM     22  C   UNL     1       2.038   8.650  19.030  0.00  0.00    +0.000 C 
BRANCH  22  23
ATOM     23  C   UNL     1       0.907   8.865  18.001  0.00  0.00    +0.000 C 
BRANCH  23  24
ATOM     24  C   UNL     1       0.116  10.136  18.225  0.00  0.00    +0.000 A 
ATOM     25  C   UNL     1      -1.209  10.238  17.777  0.00  0.00    +0.000 A 
ATOM     26  C   UNL     1      -1.954  11.397  18.009  0.00  0.00    +0.000 A 
ATOM     27  C   UNL     1      -1.383  12.471  18.691  0.00  0.00    +0.000 A 
ATOM     28  C   UNL     1      -0.066  12.383  19.138  0.00  0.00    +0.000 A 
ATOM     29  C   UNL     1       0.681  11.224  18.905  0.00  0.00    +0.000 A 
ENDBRANCH  23  24
ENDBRANCH  22  23
ENDBRANCH   9  22
TORSDOF 6
ENDMDL
MODEL 2
REMARK VINA RESULT:      -8.3      3.643      8.775
REMARK  Name = 
REMARK  7 active torsions:
REMARK  status: ('A' for Active; 'I' for Inactive)
REMARK    1  A    between atoms: C_1  and  O_2
REMARK    2  A    between atoms: O_2  and  C_3
REMARK    3  A    between atoms: C_7  and  C_8
REMARK    4  A    between atoms: C_8  and  N_9
REMARK    5  A    between atoms: N_17  and  C_18
REMARK    6  A    between atoms: C_18  and  C_19
REMARK    7  A    between atoms: C_19  and  C_20
REMARK                            x       y       z     vdW  Elec       q    Type
REMARK                         _______ _______ _______ _____ _____    ______ ____
ROOT
ATOM      1  N   UNL     1       1.732   6.389  19.523  0.00  0.00    +0.000 NA
ATOM      2  C   UNL     1       2.263   6.556  18.169  0.00  0.00    +0.000 C 
ATOM      3  C   UNL     1       3.779   6.388  18.045  0.00  0.00    +0.000 C 
ATOM      4  C   UNL     1       4.410   5.167  18.775  0.00  0.00    +0.000 C 
ATOM      5  C   UNL     1       4.601   3.928  17.862  0.00  0.00    +0.000 C 
ATOM      6  C   UNL     1       5.637   4.111  16.757  0.00  0.00    +0.000 C 
ATOM      7  C   UNL     1       6.902   4.845  17.163  0.00  0.00    +0.000 C 
ATOM      8  O   UNL     1       7.973   4.612  16.606  0.00  0.00    +0.000 OA
ATOM      9  N   UNL     1       6.714   5.882  18.076  0.00  0.00    +0.000 N 
ATOM     10  C   UNL     1       5.842   5.584  19.214  0.00  0.00    +0.000 C 
ATOM     11  C   UNL     1       3.587   4.739  20.028  0.00  0.00    +0.000 C 
ATOM     12  C   UNL     1       2.084   5.047  19.994  0.00  0.00    +0.000 C 
ENDROOT
BRANCH   1  13
ATOM     13  C   UNL     1       2.130   7.444  20.483  0.00  0.00    +0.000 C 
BRANCH  13  18
ATOM     14  C   UNL     1      -0.112  10.074  22.132  0.00  0.00    +0.000 A 
ATOM     15  C   UNL     1      -0.361  10.870  21.019  0.00  0.00    +0.000 A 
ATOM     16  C   UNL     1       0.166  10.497  19.800  0.00  0.00    +0.000 A 
ATOM     17  N   UNL     1       0.912   9.386  19.613  0.00  0.00    +0.000 NA
ATOM     18  C   UNL     1       1.152   8.603  20.699  0.00  0.00    +0.000 A 
ATOM     19  C   UNL     1       0.670   8.927  21.972  0.00  0.00    +0.000 A 
BRANCH  14  21
ATOM     20  C   UNL     1      -1.663  11.574  23.215  0.00  0.00    +0.000 C 
ATOM     21  O   UNL     1      -0.703  10.529  23.273  0.00  0.00    +0.000 OA
ENDBRANCH  14  21
ENDBRANCH  13  18
ENDBRANCH   1  13
BRANCH   9  22
ATOM     22  C   UNL     1       7.824   6.830  18.293  0.00  0.00    +0.000 C 
BRANCH  22  23
ATOM     23  C   UNL     1       7.741   8.094  17.409  0.00  0.00    +0.000 C 
BRANCH  23  24
ATOM     24  C   UNL     1       8.334   9.328  18.056  0.00  0.00    +0.000 A 
ATOM     25  C   UNL     1       9.030   9.230  19.270  0.00  0.00    +0.000 A 
ATOM     26  C   UNL     1       9.607  10.360  19.854  0.00  0.00    +0.000 A 
ATOM     27  C   UNL     1       9.495  11.604  19.234  0.00  0.00    +0.000 A 
ATOM     28  C   UNL     1       8.803  11.714  18.029  0.00  0.00    +0.000 A 
ATOM     29  C   UNL     1       8.223  10.584  17.444  0.00  0.00    +0.000 A 
ENDBRANCH  23  24
ENDBRANCH  22  23
ENDBRANCH   9  22
TORSDOF 6
ENDMDL
MODEL 3
REMARK VINA RESULT:      -8.0      0.603      1.088
REMARK  Name = 
REMARK  7 active torsions:
REMARK  status: ('A' for Active; 'I' for Inactive)
REMARK    1  A    between atoms: C_1  and  O_2
REMARK    2  A    between atoms: O_2  and  C_3
REMARK    3  A    between atoms: C_7  and  C_8
REMARK    4  A    between atoms: C_8  and  N_9
REMARK    5  A    between atoms: N_17  and  C_18
REMARK    6  A    between atoms: C_18  and  C_19
REMARK    7  A    between atoms: C_19  and  C_20
REMARK                            x       y       z     vdW  Elec       q    Type
REMARK                         _______ _______ _______ _____ _____    ______ ____
ROOT
ATOM      1  N   UNL     1       5.785   4.230  17.117  0.00  0.00    +0.000 NA
ATOM      2  C   UNL     1       5.863   4.769  18.475  0.00  0.00    +0.000 C 
ATOM      3  C   UNL     1       4.695   5.672  18.880  0.00  0.00    +0.000 C 
ATOM      4  C   UNL     1       3.266   5.166  18.531  0.00  0.00    +0.000 C 
ATOM      5  C   UNL     1       2.568   4.419  19.698  0.00  0.00    +0.000 C 
ATOM      6  C   UNL     1       2.228   5.299  20.897  0.00  0.00    +0.000 C 
ATOM      7  C   UNL     1       1.683   6.676  20.563  0.00  0.00    +0.000 C 
ATOM      8  O   UNL     1       0.907   7.250  21.324  0.00  0.00    +0.000 OA
ATOM      9  N   UNL     1       2.248   7.276  19.438  0.00  0.00    +0.000 N 
ATOM     10  C   UNL     1       2.388   6.420  18.257  0.00  0.00    +0.000 C 
ATOM     11  C   UNL     1       3.257   4.243  17.274  0.00  0.00    +0.000 C 
ATOM     12  C   UNL     1       4.546   3.458  16.996  0.00  0.00    +0.000 C 
ENDROOT
BRANCH   1  13
ATOM     13  C   UNL     1       5.928   5.236  16.039  0.00  0.00    +0.000 C 
BRANCH  13  18
ATOM     14  C   UNL     1       6.055   3.514  12.621  0.00  0.00    +0.000 A 
ATOM     15  C   UNL     1       7.190   4.134  12.112  0.00  0.00    +0.000 A 
ATOM     16  C   UNL     1       7.872   5.033  12.905  0.00  0.00    +0.000 A 
ATOM     17  N   UNL     1       7.508   5.348  14.168  0.00  0.00    +0.000 NA
ATOM     18  C   UNL     1       6.401   4.738  14.670  0.00  0.00    +0.000 A 
ATOM     19  C   UNL     1       5.645   3.831  13.919  0.00  0.00    +0.000 A 
BRANCH  14  21
ATOM     20  C   UNL     1       6.222   1.519  11.272  0.00  0.00    +0.000 C 
ATOM     21  O   UNL     1       5.481   2.629  11.758  0.00  0.00    +0.000 OA
ENDBRANCH  14  21
ENDBRANCH  13  18
ENDBRANCH   1  13
BRANCH   9  22
ATOM     22  C   UNL     1       2.003   8.714  19.215  0.00  0.00    +0.000 C 
BRANCH  22  23
ATOM     23  C   UNL     1       0.744   9.003  18.368  0.00  0.00    +0.000 C 
BRANCH  23  24
ATOM     24  C   UNL     1       0.278  10.442  18.445  0.00  0.00    +0.000 A 
ATOM     25  C   UNL     1       1.152  11.451  18.877  0.00  0.00    +0.000 A 
ATOM     26  C   UNL     1       0.736  12.784  18.919  0.00  0.00    +0.000 A 
ATOM     27  C   UNL     1      -0.558  13.127  18.531  0.00  0.00    +0.000 A 
ATOM     28  C   UNL     1      -1.437  12.132  18.103  0.00  0.00    +0.000 A 
ATOM     29  C   UNL     1      -1.023  10.798  18.063  0.00  0.00    +0.000 A 
ENDBRANCH  23  24
ENDBRANCH  22  23
ENDBRANCH   9  22
TORSDOF 6
ENDMDL
MODEL 4
REMARK VINA RESULT:      -7.8      3.567      8.388
REMARK  Name = 
REMARK  7 active torsions:
REMARK  status: ('A' for Active; 'I' for Inactive)
REMARK    1  A    between atoms: C_1  and  O_2
REMARK    2  A    between atoms: O_2  and  C_3
REMARK    3  A    between atoms: C_7  and  C_8
REMARK    4  A    between atoms: C_8  and  N_9
REMARK    5  A    between atoms: N_17  and  C_18
REMARK    6  A    between atoms: C_18  and  C_19
REMARK    7  A    between atoms: C_19  and  C_20
REMARK                            x       y       z     vdW  Elec       q    Type
REMARK                         _______ _______ _______ _____ _____    ______ ____
ROOT
ATOM      1  N   UNL     1       1.748   6.374  19.594  0.00  0.00    +0.000 NA
ATOM      2  C   UNL     1       2.259   6.571  18.237  0.00  0.00    +0.000 C 
ATOM      3  C   UNL     1       3.772   6.400  18.086  0.00  0.00    +0.000 C 
ATOM      4  C   UNL     1       4.408   5.159  18.776  0.00  0.00    +0.000 C 
ATOM      5  C   UNL     1       4.579   3.941  17.832  0.00  0.00    +0.000 C 
ATOM      6  C   UNL     1       5.599   4.146  16.716  0.00  0.00    +0.000 C 
ATOM      7  C   UNL     1       6.874   4.864  17.119  0.00  0.00    +0.000 C 
ATOM      8  O   UNL     1       7.935   4.640  16.540  0.00  0.00    +0.000 OA
ATOM      9  N   UNL     1       6.705   5.880  18.059  0.00  0.00    +0.000 N 
ATOM     10  C   UNL     1       5.849   5.559  19.203  0.00  0.00    +0.000 C 
ATOM     11  C   UNL     1       3.603   4.704  20.032  0.00  0.00    +0.000 C 
ATOM     12  C   UNL     1       2.101   5.020  20.028  0.00  0.00    +0.000 C 
ENDROOT
BRANCH   1  13
ATOM     13  C   UNL     1       2.165   7.404  20.573  0.00  0.00    +0.000 C 
BRANCH  13  18
ATOM     14  C   UNL     1      -0.200  10.318  19.814  0.00  0.00    +0.000 A 
ATOM     15  C   UNL     1      -0.563  10.643  21.117  0.00  0.00    +0.000 A 
ATOM     16  C   UNL     1       0.001   9.941  22.161  0.00  0.00    +0.000 A 
ATOM     17  N   UNL     1       0.904   8.949  21.999  0.00  0.00    +0.000 NA
ATOM     18  C   UNL     1       1.265   8.635  20.726  0.00  0.00    +0.000 A 
ATOM     19  C   UNL     1       0.721   9.286  19.615  0.00  0.00    +0.000 A 
BRANCH  14  21
ATOM     20  C   UNL     1      -1.546  10.497  17.818  0.00  0.00    +0.000 C 
ATOM     21  O   UNL     1      -0.802  11.095  18.869  0.00  0.00    +0.000 OA
ENDBRANCH  14  21
ENDBRANCH  13  18
ENDBRANCH   1  13
BRANCH   9  22
ATOM     22  C   UNL     1       7.822   6.818  18.282  0.00  0.00    +0.000 C 
BRANCH  22  23
ATOM     23  C   UNL     1       7.764   8.075  17.387  0.00  0.00    +0.000 C 
BRANCH  23  24
ATOM     24  C   UNL     1       8.327   9.317  18.044  0.00  0.00    +0.000 A 
ATOM     25  C   UNL     1       9.051   9.221  19.242  0.00  0.00    +0.000 A 
ATOM     26  C   UNL     1       9.600  10.360  19.836  0.00  0.00    +0.000 A 
ATOM     27  C   UNL     1       9.432  11.610  19.242  0.00  0.00    +0.000 A 
ATOM     28  C   UNL     1       8.712  11.718  18.053  0.00  0.00    +0.000 A 
ATOM     29  C   UNL     1       8.160  10.579  17.459  0.00  0.00    +0.000 A 
ENDBRANCH  23  24
ENDBRANCH  22  23
ENDBRANCH   9  22
TORSDOF 6
ENDMDL
MODEL 5
REMARK VINA RESULT:      -7.8      3.607      8.499
REMARK  Name = 
REMARK  7 active torsions:
REMARK  status: ('A' for Active; 'I' for Inactive)
REMARK    1  A    between atoms: C_1  and  O_2
REMARK    2  A    between atoms: O_2  and  C_3
REMARK    3  A    between atoms: C_7  and  C_8
REMARK    4  A    between atoms: C_8  and  N_9
REMARK    5  A    between atoms: N_17  and  C_18
REMARK    6  A    between atoms: C_18  and  C_19
REMARK    7  A    between atoms: C_19  and  C_20
REMARK                            x       y       z     vdW  Elec       q    Type
REMARK                         _______ _______ _______ _____ _____    ______ ____
ROOT
ATOM      1  N   UNL     1       2.157   5.701  19.639  0.00  0.00    +0.000 NA
ATOM      2  C   UNL     1       2.272   5.976  18.205  0.00  0.00    +0.000 C 
ATOM      3  C   UNL     1       3.698   6.224  17.708  0.00  0.00    +0.000 C 
ATOM      4  C   UNL     1       4.793   5.237  18.204  0.00  0.00    +0.000 C 
ATOM      5  C   UNL     1       5.079   4.076  17.217  0.00  0.00    +0.000 C 
ATOM      6  C   UNL     1       5.721   4.508  15.902  0.00  0.00    +0.000 C 
ATOM      7  C   UNL     1       6.802   5.568  16.020  0.00  0.00    +0.000 C 
ATOM      8  O   UNL     1       7.723   5.623  15.209  0.00  0.00    +0.000 OA
ATOM      9  N   UNL     1       6.573   6.536  16.998  0.00  0.00    +0.000 N 
ATOM     10  C   UNL     1       6.124   6.038  18.300  0.00  0.00    +0.000 C 
ATOM     11  C   UNL     1       4.453   4.630  19.600  0.00  0.00    +0.000 C 
ATOM     12  C   UNL     1       2.962   4.517  19.948  0.00  0.00    +0.000 C 
ENDROOT
BRANCH   1  13
ATOM     13  C   UNL     1       2.481   6.847  20.520  0.00  0.00    +0.000 C 
BRANCH  13  18
ATOM     14  C   UNL     1       0.032   9.574  21.628  0.00  0.00    +0.000 A 
ATOM     15  C   UNL     1       0.039  10.349  20.473  0.00  0.00    +0.000 A 
ATOM     16  C   UNL     1       0.791   9.932  19.395  0.00  0.00    +0.000 A 
ATOM     17  N   UNL     1       1.526   8.798  19.384  0.00  0.00    +0.000 NA
ATOM     18  C   UNL     1       1.515   8.036  20.511  0.00  0.00    +0.000 A 
ATOM     19  C   UNL     1       0.795   8.403  21.652  0.00  0.00    +0.000 A 
BRANCH  14  21
ATOM     20  C   UNL     1      -1.192  11.426  22.578  0.00  0.00    +0.000 C 
ATOM     21  O   UNL     1      -0.765  10.072  22.615  0.00  0.00    +0.000 OA
ENDBRANCH  14  21
ENDBRANCH  13  18
ENDBRANCH   1  13
BRANCH   9  22
ATOM     22  C   UNL     1       7.405   7.755  16.982  0.00  0.00    +0.000 C 
BRANCH  22  23
ATOM     23  C   UNL     1       8.228   7.960  18.272  0.00  0.00    +0.000 C 
BRANCH  23  24
ATOM     24  C   UNL     1       8.625   9.400  18.517  0.00  0.00    +0.000 A 
ATOM     25  C   UNL     1       8.352  10.386  17.558  0.00  0.00    +0.000 A 
ATOM     26  C   UNL     1       8.687  11.722  17.793  0.00  0.00    +0.000 A 
ATOM     27  C   UNL     1       9.300  12.090  18.990  0.00  0.00    +0.000 A 
ATOM     28  C   UNL     1       9.580  11.118  19.950  0.00  0.00    +0.000 A 
ATOM     29  C   UNL     1       9.247   9.781  19.714  0.00  0.00    +0.000 A 
ENDBRANCH  23  24
ENDBRANCH  22  23
ENDBRANCH   9  22
TORSDOF 6
ENDMDL
MODEL 6
REMARK VINA RESULT:      -7.6      3.557      8.184
REMARK  Name = 
REMARK  7 active torsions:
REMARK  status: ('A' for Active; 'I' for Inactive)
REMARK    1  A    between atoms: C_1  and  O_2
REMARK    2  A    between atoms: O_2  and  C_3
REMARK    3  A    between atoms: C_7  and  C_8
REMARK    4  A    between atoms: C_8  and  N_9
REMARK    5  A    between atoms: N_17  and  C_18
REMARK    6  A    between atoms: C_18  and  C_19
REMARK    7  A    between atoms: C_19  and  C_20
REMARK                            x       y       z     vdW  Elec       q    Type
REMARK                         _______ _______ _______ _____ _____    ______ ____
ROOT
ATOM      1  N   UNL     1       2.188   5.578  19.577  0.00  0.00    +0.000 NA
ATOM      2  C   UNL     1       2.298   5.891  18.152  0.00  0.00    +0.000 C 
ATOM      3  C   UNL     1       3.724   6.137  17.653  0.00  0.00    +0.000 C 
ATOM      4  C   UNL     1       4.811   5.126  18.116  0.00  0.00    +0.000 C 
ATOM      5  C   UNL     1       5.079   3.989  17.095  0.00  0.00    +0.000 C 
ATOM      6  C   UNL     1       5.718   4.450  15.789  0.00  0.00    +0.000 C 
ATOM      7  C   UNL     1       6.811   5.495  15.930  0.00  0.00    +0.000 C 
ATOM      8  O   UNL     1       7.729   5.562  15.115  0.00  0.00    +0.000 OA
ATOM      9  N   UNL     1       6.599   6.437  16.935  0.00  0.00    +0.000 N 
ATOM     10  C   UNL     1       6.151   5.908  18.225  0.00  0.00    +0.000 C 
ATOM     11  C   UNL     1       4.472   4.484  19.496  0.00  0.00    +0.000 C 
ATOM     12  C   UNL     1       2.982   4.377  19.849  0.00  0.00    +0.000 C 
ENDROOT
BRANCH   1  13
ATOM     13  C   UNL     1       2.529   6.695  20.488  0.00  0.00    +0.000 C 
BRANCH  13  18
ATOM     14  C   UNL     1       0.710   9.927  19.535  0.00  0.00    +0.000 A 
ATOM     15  C   UNL     1      -0.334   9.862  20.451  0.00  0.00    +0.000 A 
ATOM     16  C   UNL     1      -0.373   8.813  21.345  0.00  0.00    +0.000 A 
ATOM     17  N   UNL     1       0.558   7.835  21.397  0.00  0.00    +0.000 NA
ATOM     18  C   UNL     1       1.584   7.901  20.507  0.00  0.00    +0.000 A 
ATOM     19  C   UNL     1       1.680   8.921  19.555  0.00  0.00    +0.000 A 
BRANCH  14  21
ATOM     20  C   UNL     1       1.844  11.713  18.372  0.00  0.00    +0.000 C 
ATOM     21  O   UNL     1       0.656  11.019  18.721  0.00  0.00    +0.000 OA
ENDBRANCH  14  21
ENDBRANCH  13  18
ENDBRANCH   1  13
BRANCH   9  22
ATOM     22  C   UNL     1       7.443   7.648  16.948  0.00  0.00    +0.000 C 
BRANCH  22  23
ATOM     23  C   UNL     1       8.126   7.912  18.307  0.00  0.00    +0.000 C 
BRANCH  23  24
ATOM     24  C   UNL     1       8.537   9.354  18.511  0.00  0.00    +0.000 A 
ATOM     25  C   UNL     1       9.251   9.736  19.656  0.00  0.00    +0.000 A 
ATOM     26  C   UNL     1       9.661  11.060  19.833  0.00  0.00    +0.000 A 
ATOM     27  C   UNL     1       9.360  12.021  18.869  0.00  0.00    +0.000 A 
ATOM     28  C   UNL     1       8.648  11.655  17.728  0.00  0.00    +0.000 A 
ATOM     29  C   UNL     1       8.236  10.330  17.550  0.00  0.00    +0.000 A 
ENDBRANCH  23  24
ENDBRANCH  22  23
ENDBRANCH   9  22
TORSDOF 6
ENDMDL
MODEL 7
REMARK VINA RESULT:      -7.2      3.401      7.948
REMARK  Name = 
REMARK  7 active torsions:
REMARK  status: ('A' for Active; 'I' for Inactive)
REMARK    1  A    between atoms: C_1  and  O_2
REMARK    2  A    between atoms: O_2  and  C_3
REMARK    3  A    between atoms: C_7  and  C_8
REMARK    4  A    between atoms: C_8  and  N_9
REMARK    5  A    between atoms: N_17  and  C_18
REMARK    6  A    between atoms: C_18  and  C_19
REMARK    7  A    between atoms: C_19  and  C_20
REMARK                            x       y       z     vdW  Elec       q    Type
REMARK                         _______ _______ _______ _____ _____    ______ ____
ROOT
ATOM      1  N   UNL     1       2.086   4.889  19.139  0.00  0.00    +0.000 NA
ATOM      2  C   UNL     1       2.327   5.514  17.838  0.00  0.00    +0.000 C 
ATOM      3  C   UNL     1       3.801   5.730  17.487  0.00  0.00    +0.000 C 
ATOM      4  C   UNL     1       4.764   4.536  17.749  0.00  0.00    +0.000 C 
ATOM      5  C   UNL     1       5.011   3.649  16.501  0.00  0.00    +0.000 C 
ATOM      6  C   UNL     1       5.780   4.339  15.379  0.00  0.00    +0.000 C 
ATOM      7  C   UNL     1       6.942   5.209  15.822  0.00  0.00    +0.000 C 
ATOM      8  O   UNL     1       7.920   5.375  15.096  0.00  0.00    +0.000 OA
ATOM      9  N   UNL     1       6.736   5.906  17.012  0.00  0.00    +0.000 N 
ATOM     10  C   UNL     1       6.152   5.137  18.113  0.00  0.00    +0.000 C 
ATOM     11  C   UNL     1       4.272   3.626  18.916  0.00  0.00    +0.000 C 
ATOM     12  C   UNL     1       2.756   3.586  19.156  0.00  0.00    +0.000 C 
ENDROOT
BRANCH   1  13
ATOM     13  C   UNL     1       2.451   5.723  20.308  0.00  0.00    +0.000 C 
BRANCH  13  18
ATOM     14  C   UNL     1       1.346   9.282  19.430  0.00  0.00    +0.000 A 
ATOM     15  C   UNL     1       0.470   9.500  20.488  0.00  0.00    +0.000 A 
ATOM     16  C   UNL     1       0.317   8.515  21.441  0.00  0.00    +0.000 A 
ATOM     17  N   UNL     1       0.979   7.338  21.419  0.00  0.00    +0.000 NA
ATOM     18  C   UNL     1       1.841   7.126  20.388  0.00  0.00    +0.000 A 
ATOM     19  C   UNL     1       2.034   8.067  19.372  0.00  0.00    +0.000 A 
BRANCH  14  21
ATOM     20  C   UNL     1       0.830  11.578  18.890  0.00  0.00    +0.000 C 
ATOM     21  O   UNL     1       1.433  10.333  18.567  0.00  0.00    +0.000 OA
ENDBRANCH  14  21
ENDBRANCH  13  18
ENDBRANCH   1  13
BRANCH   9  22
ATOM     22  C   UNL     1       7.674   6.991  17.358  0.00  0.00    +0.000 C 
BRANCH  22  23
ATOM     23  C   UNL     1       7.008   8.382  17.445  0.00  0.00    +0.000 C 
BRANCH  23  24
ATOM     24  C   UNL     1       7.936   9.469  17.944  0.00  0.00    +0.000 A 
ATOM     25  C   UNL     1       7.937  10.735  17.340  0.00  0.00    +0.000 A 
ATOM     26  C   UNL     1       8.768  11.752  17.817  0.00  0.00    +0.000 A 
ATOM     27  C   UNL     1       9.610  11.517  18.903  0.00  0.00    +0.000 A 
ATOM     28  C   UNL     1       9.621  10.262  19.509  0.00  0.00    +0.000 A 
ATOM     29  C   UNL     1       8.791   9.243  19.032  0.00  0.00    +0.000 A 
ENDBRANCH  23  24
ENDBRANCH  22  23
ENDBRANCH   9  22
TORSDOF 6
ENDMDL
MODEL 8
REMARK VINA RESULT:      -7.2      2.816      3.711
REMARK  Name = 
REMARK  7 active torsions:
REMARK  status: ('A' for Active; 'I' for Inactive)
REMARK    1  A    between atoms: C_1  and  O_2
REMARK    2  A    between atoms: O_2  and  C_3
REMARK    3  A    between atoms: C_7  and  C_8
REMARK    4  A    between atoms: C_8  and  N_9
REMARK    5  A    between atoms: N_17  and  C_18
REMARK    6  A    between atoms: C_18  and  C_19
REMARK    7  A    between atoms: C_19  and  C_20
REMARK                            x       y       z     vdW  Elec       q    Type
REMARK                         _______ _______ _______ _____ _____    ______ ____
ROOT
ATOM      1  N   UNL     1       4.823   3.137  17.879  0.00  0.00    +0.000 NA
ATOM      2  C   UNL     1       4.828   3.673  19.241  0.00  0.00    +0.000 C 
ATOM      3  C   UNL     1       3.974   4.926  19.446  0.00  0.00    +0.000 C 
ATOM      4  C   UNL     1       2.545   4.907  18.830  0.00  0.00    +0.000 C 
ATOM      5  C   UNL     1       1.441   4.478  19.832  0.00  0.00    +0.000 C 
ATOM      6  C   UNL     1       1.201   5.468  20.968  0.00  0.00    +0.000 C 
ATOM      7  C   UNL     1       1.214   6.933  20.572  0.00  0.00    +0.000 C 
ATOM      8  O   UNL     1       0.549   7.760  21.192  0.00  0.00    +0.000 OA
ATOM      9  N   UNL     1       2.139   7.268  19.584  0.00  0.00    +0.000 N 
ATOM     10  C   UNL     1       2.197   6.369  18.429  0.00  0.00    +0.000 C 
ATOM     11  C   UNL     1       2.457   3.990  17.572  0.00  0.00    +0.000 C 
ATOM     12  C   UNL     1       3.440   2.813  17.516  0.00  0.00    +0.000 C 
ENDROOT
BRANCH   1  13
ATOM     13  C   UNL     1       5.482   3.996  16.870  0.00  0.00    +0.000 C 
BRANCH  13  18
ATOM     14  C   UNL     1       7.302   7.294  17.559  0.00  0.00    +0.000 A 
ATOM     15  C   UNL     1       8.155   6.860  18.567  0.00  0.00    +0.000 A 
ATOM     16  C   UNL     1       8.129   5.532  18.938  0.00  0.00    +0.000 A 
ATOM     17  N   UNL     1       7.322   4.609  18.369  0.00  0.00    +0.000 NA
ATOM     18  C   UNL     1       6.491   5.030  17.378  0.00  0.00    +0.000 A 
ATOM     19  C   UNL     1       6.445   6.365  16.963  0.00  0.00    +0.000 A 
BRANCH  14  21
ATOM     20  C   UNL     1       8.326   9.433  18.008  0.00  0.00    +0.000 C 
ATOM     21  O   UNL     1       7.435   8.618  17.262  0.00  0.00    +0.000 OA
ENDBRANCH  14  21
ENDBRANCH  13  18
ENDBRANCH   1  13
BRANCH   9  22
ATOM     22  C   UNL     1       2.429   8.697  19.353  0.00  0.00    +0.000 C 
BRANCH  22  23
ATOM     23  C   UNL     1       1.774   9.263  18.074  0.00  0.00    +0.000 C 
BRANCH  23  24
ATOM     24  C   UNL     1       0.752  10.346  18.344  0.00  0.00    +0.000 A 
ATOM     25  C   UNL     1       1.162  11.665  18.592  0.00  0.00    +0.000 A 
ATOM     26  C   UNL     1       0.221  12.675  18.809  0.00  0.00    +0.000 A 
ATOM     27  C   UNL     1      -1.142  12.381  18.783  0.00  0.00    +0.000 A 
ATOM     28  C   UNL     1      -1.561  11.073  18.541  0.00  0.00    +0.000 A 
ATOM     29  C   UNL     1      -0.620  10.061  18.325  0.00  0.00    +0.000 A 
ENDBRANCH  23  24
ENDBRANCH  22  23
ENDBRANCH   9  22
TORSDOF 6
ENDMDL
MODEL 9
REMARK VINA RESULT:      -7.1      1.333      1.635
REMARK  Name = 
REMARK  7 active torsions:
REMARK  status: ('A' for Active; 'I' for Inactive)
REMARK    1  A    between atoms: C_1  and  O_2
REMARK    2  A    between atoms: O_2  and  C_3
REMARK    3  A    between atoms: C_7  and  C_8
REMARK    4  A    between atoms: C_8  and  N_9
REMARK    5  A    between atoms: N_17  and  C_18
REMARK    6  A    between atoms: C_18  and  C_19
REMARK    7  A    between atoms: C_19  and  C_20
REMARK                            x       y       z     vdW  Elec       q    Type
REMARK                         _______ _______ _______ _____ _____    ______ ____
ROOT
ATOM      1  N   UNL     1       6.231   4.355  17.147  0.00  0.00    +0.000 NA
ATOM      2  C   UNL     1       6.170   4.905  18.502  0.00  0.00    +0.000 C 
ATOM      3  C   UNL     1       4.848   5.584  18.865  0.00  0.00    +0.000 C 
ATOM      4  C   UNL     1       3.544   4.827  18.482  0.00  0.00    +0.000 C 
ATOM      5  C   UNL     1       2.959   3.971  19.636  0.00  0.00    +0.000 C 
ATOM      6  C   UNL     1       2.431   4.780  20.816  0.00  0.00    +0.000 C 
ATOM      7  C   UNL     1       1.657   6.035  20.454  0.00  0.00    +0.000 C 
ATOM      8  O   UNL     1       0.769   6.463  21.189  0.00  0.00    +0.000 OA
ATOM      9  N   UNL     1       2.137   6.722  19.340  0.00  0.00    +0.000 N 
ATOM     10  C   UNL     1       2.463   5.900  18.172  0.00  0.00    +0.000 C 
ATOM     11  C   UNL     1       3.738   3.911  17.234  0.00  0.00    +0.000 C 
ATOM     12  C   UNL     1       5.155   3.371  16.999  0.00  0.00    +0.000 C 
ENDROOT
BRANCH   1  13
ATOM     13  C   UNL     1       6.220   5.365  16.064  0.00  0.00    +0.000 C 
BRANCH  13  18
ATOM     14  C   UNL     1       6.133   3.733  12.601  0.00  0.00    +0.000 A 
ATOM     15  C   UNL     1       7.254   4.344  12.049  0.00  0.00    +0.000 A 
ATOM     16  C   UNL     1       7.994   5.208  12.828  0.00  0.00    +0.000 A 
ATOM     17  N   UNL     1       7.703   5.496  14.116  0.00  0.00    +0.000 NA
ATOM     18  C   UNL     1       6.611   4.894  14.659  0.00  0.00    +0.000 A 
ATOM     19  C   UNL     1       5.798   4.024  13.926  0.00  0.00    +0.000 A 
BRANCH  14  21
ATOM     20  C   UNL     1       4.155   3.132  11.354  0.00  0.00    +0.000 C 
ATOM     21  O   UNL     1       5.497   2.883  11.746  0.00  0.00    +0.000 OA
ENDBRANCH  14  21
ENDBRANCH  13  18
ENDBRANCH   1  13
BRANCH   9  22
ATOM     22  C   UNL     1       1.643   8.091  19.097  0.00  0.00    +0.000 C 
BRANCH  22  23
ATOM     23  C   UNL     1       2.043   9.098  20.196  0.00  0.00    +0.000 C 
BRANCH  23  24
ATOM     24  C   UNL     1       0.879   9.898  20.741  0.00  0.00    +0.000 A 
ATOM     25  C   UNL     1       0.543   9.829  22.101  0.00  0.00    +0.000 A 
ATOM     26  C   UNL     1      -0.510  10.590  22.615  0.00  0.00    +0.000 A 
ATOM     27  C   UNL     1      -1.243  11.428  21.776  0.00  0.00    +0.000 A 
ATOM     28  C   UNL     1      -0.922  11.502  20.421  0.00  0.00    +0.000 A 
ATOM     29  C   UNL     1       0.131  10.740  19.906  0.00  0.00    +0.000 A 
ENDBRANCH  23  24
ENDBRANCH  22  23
ENDBRANCH   9  22
TORSDOF 6
ENDMDL
