MODEL 1
REMARK VINA RESULT:      -6.4      0.000      0.000
REMARK  Name = 
REMARK  5 active torsions:
REMARK  status: ('A' for Active; 'I' for Inactive)
REMARK    1  A    between atoms: C_1  and  C_2
REMARK    2  A    between atoms: C_2  and  N_3
REMARK    3  A    between atoms: C_7  and  C_8
REMARK    4  A    between atoms: C_11  and  C_12
REMARK    5  A    between atoms: N_14  and  C_15
REMARK                            x       y       z     vdW  Elec       q    Type
REMARK                         _______ _______ _______ _____ _____    ______ ____
ROOT
ATOM      1  N   UNL     1       1.806   4.275  19.398  0.00  0.00    +0.000 N 
ATOM      2  C   UNL     1       2.251   3.390  18.442  0.00  0.00    +0.000 C 
ATOM      3  O   UNL     1       1.928   2.228  18.271  0.00  0.00    +0.000 OA
ATOM      4  C   UNL     1       3.284   4.144  17.667  0.00  0.00    +0.000 C 
ATOM      5  C   UNL     1       4.078   3.473  16.823  0.00  0.00    +0.000 C 
ATOM      6  N   UNL     1       3.244   5.450  18.114  0.00  0.00    +0.000 N 
ATOM      7  C   UNL     1       3.891   6.586  17.485  0.00  0.00    +0.000 C 
ATOM      8  C   UNL     1       2.381   5.530  19.227  0.00  0.00    +0.000 C 
ATOM      9  S   UNL     1       2.117   6.882  20.173  0.00  0.00    +0.000 S 
ENDROOT
BRANCH   5  10
ATOM     10  C   UNL     1       5.316   3.943  16.311  0.00  0.00    +0.000 A 
ATOM     11  C   UNL     1       6.434   4.391  17.010  0.00  0.00    +0.000 A 
ATOM     12  C   UNL     1       7.381   4.863  16.067  0.00  0.00    +0.000 A 
ATOM     13  C   UNL     1       6.804   4.685  14.834  0.00  0.00    +0.000 A 
ATOM     14  C   UNL     1       7.244   4.950  13.450  0.00  0.00    +0.000 C 
ATOM     15  O   UNL     1       5.568   4.148  14.974  0.00  0.00    +0.000 OA
ENDBRANCH   5  10
BRANCH   1  17
ATOM     16  C   UNL     1       1.805   3.172  21.591  0.00  0.00    +0.000 C 
ATOM     17  C   UNL     1       0.966   3.828  20.501  0.00  0.00    +0.000 C 
ENDBRANCH   1  17
TORSDOF 2
ENDMDL
MODEL 2
REMARK VINA RESULT:      -6.1      1.142      1.542
REMARK  Name = 
REMARK  5 active torsions:
REMARK  status: ('A' for Active; 'I' for Inactive)
REMARK    1  A    between atoms: C_1  and  C_2
REMARK    2  A    between atoms: C_2  and  N_3
REMARK    3  A    between atoms: C_7  and  C_8
REMARK    4  A    between atoms: C_11  and  C_12
REMARK    5  A    between atoms: N_14  and  C_15
REMARK                            x       y       z     vdW  Elec       q    Type
REMARK                         _______ _______ _______ _____ _____    ______ ____
ROOT
ATOM      1  N   UNL     1       1.761   3.706  19.647  0.00  0.00    +0.000 N 
ATOM      2  C   UNL     1       2.385   3.041  18.615  0.00  0.00    +0.000 C 
ATOM      3  O   UNL     1       2.335   1.858  18.331  0.00  0.00    +0.000 OA
ATOM      4  C   UNL     1       3.210   4.082  17.927  0.00  0.00    +0.000 C 
ATOM      5  C   UNL     1       4.127   3.693  17.031  0.00  0.00    +0.000 C 
ATOM      6  N   UNL     1       2.878   5.296  18.496  0.00  0.00    +0.000 N 
ATOM      7  C   UNL     1       3.241   6.604  17.985  0.00  0.00    +0.000 C 
ATOM      8  C   UNL     1       2.032   5.070  19.602  0.00  0.00    +0.000 C 
ATOM      9  S   UNL     1       1.478   6.230  20.670  0.00  0.00    +0.000 S 
ENDROOT
BRANCH   5  10
ATOM     10  C   UNL     1       5.219   4.480  16.580  0.00  0.00    +0.000 A 
ATOM     11  C   UNL     1       5.910   4.400  15.374  0.00  0.00    +0.000 A 
ATOM     12  C   UNL     1       6.991   5.315  15.426  0.00  0.00    +0.000 A 
ATOM     13  C   UNL     1       6.917   5.914  16.659  0.00  0.00    +0.000 A 
ATOM     14  C   UNL     1       7.715   6.950  17.343  0.00  0.00    +0.000 C 
ATOM     15  O   UNL     1       5.870   5.412  17.356  0.00  0.00    +0.000 OA
ENDBRANCH   5  10
BRANCH   1  17
ATOM     16  C   UNL     1       2.004   2.618  21.833  0.00  0.00    +0.000 C 
ATOM     17  C   UNL     1       1.058   2.976  20.693  0.00  0.00    +0.000 C 
ENDBRANCH   1  17
TORSDOF 2
ENDMDL
MODEL 3
REMARK VINA RESULT:      -6.0      3.119      6.201
REMARK  Name = 
REMARK  5 active torsions:
REMARK  status: ('A' for Active; 'I' for Inactive)
REMARK    1  A    between atoms: C_1  and  C_2
REMARK    2  A    between atoms: C_2  and  N_3
REMARK    3  A    between atoms: C_7  and  C_8
REMARK    4  A    between atoms: C_11  and  C_12
REMARK    5  A    between atoms: N_14  and  C_15
REMARK                            x       y       z     vdW  Elec       q    Type
REMARK                         _______ _______ _______ _____ _____    ______ ____
ROOT
ATOM      1  N   UNL     1       5.502   5.157  17.801  0.00  0.00    +0.000 N 
ATOM      2  C   UNL     1       5.146   6.358  17.230  0.00  0.00    +0.000 C 
ATOM      3  O   UNL     1       5.794   7.067  16.481  0.00  0.00    +0.000 OA
ATOM      4  C   UNL     1       3.786   6.657  17.775  0.00  0.00    +0.000 C 
ATOM      5  C   UNL     1       3.273   7.882  17.599  0.00  0.00    +0.000 C 
ATOM      6  N   UNL     1       3.384   5.541  18.482  0.00  0.00    +0.000 N 
ATOM      7  C   UNL     1       2.045   5.281  18.975  0.00  0.00    +0.000 C 
ATOM      8  C   UNL     1       4.460   4.633  18.559  0.00  0.00    +0.000 C 
ATOM      9  S   UNL     1       4.481   3.201  19.420  0.00  0.00    +0.000 S 
ENDROOT
BRANCH   5  10
ATOM     10  C   UNL     1       2.203   8.440  18.347  0.00  0.00    +0.000 A 
ATOM     11  C   UNL     1       1.207   9.315  17.923  0.00  0.00    +0.000 A 
ATOM     12  C   UNL     1       0.433   9.681  19.052  0.00  0.00    +0.000 A 
ATOM     13  C   UNL     1       0.987   9.016  20.118  0.00  0.00    +0.000 A 
ATOM     14  C   UNL     1       0.668   8.943  21.557  0.00  0.00    +0.000 C 
ATOM     15  O   UNL     1       2.050   8.284  19.706  0.00  0.00    +0.000 OA
ENDBRANCH   5  10
BRANCH   1  17
ATOM     16  C   UNL     1       7.779   5.358  18.696  0.00  0.00    +0.000 C 
ATOM     17  C   UNL     1       6.866   4.654  17.700  0.00  0.00    +0.000 C 
ENDBRANCH   1  17
TORSDOF 2
ENDMDL
MODEL 4
REMARK VINA RESULT:      -6.0      2.729      6.045
REMARK  Name = 
REMARK  5 active torsions:
REMARK  status: ('A' for Active; 'I' for Inactive)
REMARK    1  A    between atoms: C_1  and  C_2
REMARK    2  A    between atoms: C_2  and  N_3
REMARK    3  A    between atoms: C_7  and  C_8
REMARK    4  A    between atoms: C_11  and  C_12
REMARK    5  A    between atoms: N_14  and  C_15
REMARK                            x       y       z     vdW  Elec       q    Type
REMARK                         _______ _______ _______ _____ _____    ______ ____
ROOT
ATOM      1  N   UNL     1       5.697   6.616  17.076  0.00  0.00    +0.000 N 
ATOM      2  C   UNL     1       4.405   6.923  17.439  0.00  0.00    +0.000 C 
ATOM      3  O   UNL     1       3.900   8.019  17.601  0.00  0.00    +0.000 OA
ATOM      4  C   UNL     1       3.742   5.601  17.660  0.00  0.00    +0.000 C 
ATOM      5  C   UNL     1       2.546   5.570  18.262  0.00  0.00    +0.000 C 
ATOM      6  N   UNL     1       4.635   4.631  17.250  0.00  0.00    +0.000 N 
ATOM      7  C   UNL     1       4.336   3.226  17.050  0.00  0.00    +0.000 C 
ATOM      8  C   UNL     1       5.870   5.241  16.947  0.00  0.00    +0.000 C 
ATOM      9  S   UNL     1       7.283   4.452  16.530  0.00  0.00    +0.000 S 
ENDROOT
BRANCH   5  10
ATOM     10  C   UNL     1       1.963   4.428  18.873  0.00  0.00    +0.000 A 
ATOM     11  C   UNL     1       1.042   3.530  18.342  0.00  0.00    +0.000 A 
ATOM     12  C   UNL     1       0.672   2.624  19.366  0.00  0.00    +0.000 A 
ATOM     13  C   UNL     1       1.379   3.005  20.479  0.00  0.00    +0.000 A 
ATOM     14  C   UNL     1       1.469   2.491  21.860  0.00  0.00    +0.000 C 
ATOM     15  O   UNL     1       2.141   4.088  20.195  0.00  0.00    +0.000 OA
ENDBRANCH   5  10
BRANCH   1  17
ATOM     16  C   UNL     1       7.772   7.439  18.097  0.00  0.00    +0.000 C 
ATOM     17  C   UNL     1       6.724   7.648  17.012  0.00  0.00    +0.000 C 
ENDBRANCH   1  17
TORSDOF 2
ENDMDL
MODEL 5
REMARK VINA RESULT:      -5.8      3.620      5.443
REMARK  Name = 
REMARK  5 active torsions:
REMARK  status: ('A' for Active; 'I' for Inactive)
REMARK    1  A    between atoms: C_1  and  C_2
REMARK    2  A    between atoms: C_2  and  N_3
REMARK    3  A    between atoms: C_7  and  C_8
REMARK    4  A    between atoms: C_11  and  C_12
REMARK    5  A    between atoms: N_14  and  C_15
REMARK                            x       y       z     vdW  Elec       q    Type
REMARK                         _______ _______ _______ _____ _____    ______ ____
ROOT
ATOM      1  N   UNL     1       1.086   9.685  19.331  0.00  0.00    +0.000 N 
ATOM      2  C   UNL     1       1.898   9.130  18.367  0.00  0.00    +0.000 C 
ATOM      3  O   UNL     1       2.293   9.625  17.327  0.00  0.00    +0.000 OA
ATOM      4  C   UNL     1       2.160   7.735  18.839  0.00  0.00    +0.000 C 
ATOM      5  C   UNL     1       2.719   6.860  17.992  0.00  0.00    +0.000 C 
ATOM      6  N   UNL     1       1.629   7.636  20.109  0.00  0.00    +0.000 N 
ATOM      7  C   UNL     1       1.858   6.553  21.047  0.00  0.00    +0.000 C 
ATOM      8  C   UNL     1       0.907   8.812  20.400  0.00  0.00    +0.000 C 
ATOM      9  S   UNL     1      -0.010   9.093  21.768  0.00  0.00    +0.000 S 
ENDROOT
BRANCH   5  10
ATOM     10  C   UNL     1       2.692   5.448  18.135  0.00  0.00    +0.000 A 
ATOM     11  C   UNL     1       1.699   4.552  17.747  0.00  0.00    +0.000 A 
ATOM     12  C   UNL     1       2.070   3.262  18.200  0.00  0.00    +0.000 A 
ATOM     13  C   UNL     1       3.271   3.422  18.847  0.00  0.00    +0.000 A 
ATOM     14  C   UNL     1       4.197   2.498  19.531  0.00  0.00    +0.000 C 
ATOM     15  O   UNL     1       3.641   4.725  18.822  0.00  0.00    +0.000 OA
ENDBRANCH   5  10
BRANCH   1  17
ATOM     16  C   UNL     1      -0.916  10.756  18.399  0.00  0.00    +0.000 C 
ATOM     17  C   UNL     1       0.419  10.960  19.105  0.00  0.00    +0.000 C 
ENDBRANCH   1  17
TORSDOF 2
ENDMDL
MODEL 6
REMARK VINA RESULT:      -5.7      3.380      5.356
REMARK  Name = 
REMARK  5 active torsions:
REMARK  status: ('A' for Active; 'I' for Inactive)
REMARK    1  A    between atoms: C_1  and  C_2
REMARK    2  A    between atoms: C_2  and  N_3
REMARK    3  A    between atoms: C_7  and  C_8
REMARK    4  A    between atoms: C_11  and  C_12
REMARK    5  A    between atoms: N_14  and  C_15
REMARK                            x       y       z     vdW  Elec       q    Type
REMARK                         _______ _______ _______ _____ _____    ______ ____
ROOT
ATOM      1  N   UNL     1       1.278   9.479  19.345  0.00  0.00    +0.000 N 
ATOM      2  C   UNL     1       2.004   8.933  18.310  0.00  0.00    +0.000 C 
ATOM      3  O   UNL     1       2.315   9.442  17.248  0.00  0.00    +0.000 OA
ATOM      4  C   UNL     1       2.293   7.530  18.737  0.00  0.00    +0.000 C 
ATOM      5  C   UNL     1       2.773   6.664  17.835  0.00  0.00    +0.000 C 
ATOM      6  N   UNL     1       1.866   7.414  20.045  0.00  0.00    +0.000 N 
ATOM      7  C   UNL     1       2.163   6.316  20.945  0.00  0.00    +0.000 C 
ATOM      8  C   UNL     1       1.180   8.591  20.412  0.00  0.00    +0.000 C 
ATOM      9  S   UNL     1       0.381   8.856  21.855  0.00  0.00    +0.000 S 
ENDROOT
BRANCH   5  10
ATOM     10  C   UNL     1       2.746   5.250  17.958  0.00  0.00    +0.000 A 
ATOM     11  C   UNL     1       3.732   4.328  17.619  0.00  0.00    +0.000 A 
ATOM     12  C   UNL     1       3.204   3.028  17.817  0.00  0.00    +0.000 A 
ATOM     13  C   UNL     1       1.920   3.208  18.266  0.00  0.00    +0.000 A 
ATOM     14  C   UNL     1       0.836   2.289  18.666  0.00  0.00    +0.000 C 
ATOM     15  O   UNL     1       1.636   4.531  18.340  0.00  0.00    +0.000 OA
ENDBRANCH   5  10
BRANCH   1  17
ATOM     16  C   UNL     1      -0.777  10.580  18.579  0.00  0.00    +0.000 C 
ATOM     17  C   UNL     1       0.604  10.762  19.195  0.00  0.00    +0.000 C 
ENDBRANCH   1  17
TORSDOF 2
ENDMDL
MODEL 7
REMARK VINA RESULT:      -5.6      2.000      2.407
REMARK  Name = 
REMARK  5 active torsions:
REMARK  status: ('A' for Active; 'I' for Inactive)
REMARK    1  A    between atoms: C_1  and  C_2
REMARK    2  A    between atoms: C_2  and  N_3
REMARK    3  A    between atoms: C_7  and  C_8
REMARK    4  A    between atoms: C_11  and  C_12
REMARK    5  A    between atoms: N_14  and  C_15
REMARK                            x       y       z     vdW  Elec       q    Type
REMARK                         _______ _______ _______ _____ _____    ______ ____
ROOT
ATOM      1  N   UNL     1       2.915   3.850  20.555  0.00  0.00    +0.000 N 
ATOM      2  C   UNL     1       3.931   3.276  19.825  0.00  0.00    +0.000 C 
ATOM      3  O   UNL     1       4.427   2.171  19.950  0.00  0.00    +0.000 OA
ATOM      4  C   UNL     1       4.357   4.333  18.857  0.00  0.00    +0.000 C 
ATOM      5  C   UNL     1       5.496   4.163  18.172  0.00  0.00    +0.000 C 
ATOM      6  N   UNL     1       3.456   5.373  18.978  0.00  0.00    +0.000 N 
ATOM      7  C   UNL     1       3.328   6.499  18.073  0.00  0.00    +0.000 C 
ATOM      8  C   UNL     1       2.599   5.115  20.068  0.00  0.00    +0.000 C 
ATOM      9  S   UNL     1       1.433   6.149  20.670  0.00  0.00    +0.000 S 
ENDROOT
BRANCH   5  10
ATOM     10  C   UNL     1       6.224   5.193  17.520  0.00  0.00    +0.000 A 
ATOM     11  C   UNL     1       6.696   5.231  16.211  0.00  0.00    +0.000 A 
ATOM     12  C   UNL     1       7.461   6.413  16.055  0.00  0.00    +0.000 A 
ATOM     13  C   UNL     1       7.427   7.046  17.272  0.00  0.00    +0.000 A 
ATOM     14  C   UNL     1       7.998   8.307  17.787  0.00  0.00    +0.000 C 
ATOM     15  O   UNL     1       6.701   6.318  18.154  0.00  0.00    +0.000 OA
ENDBRANCH   5  10
BRANCH   1  17
ATOM     16  C   UNL     1       1.094   2.489  21.480  0.00  0.00    +0.000 C 
ATOM     17  C   UNL     1       2.405   3.213  21.762  0.00  0.00    +0.000 C 
ENDBRANCH   1  17
TORSDOF 2
ENDMDL
MODEL 8
REMARK VINA RESULT:      -5.6      2.726      5.894
REMARK  Name = 
REMARK  5 active torsions:
REMARK  status: ('A' for Active; 'I' for Inactive)
REMARK    1  A    between atoms: C_1  and  C_2
REMARK    2  A    between atoms: C_2  and  N_3
REMARK    3  A    between atoms: C_7  and  C_8
REMARK    4  A    between atoms: C_11  and  C_12
REMARK    5  A    between atoms: N_14  and  C_15
REMARK                            x       y       z     vdW  Elec       q    Type
REMARK                         _______ _______ _______ _____ _____    ______ ____
ROOT
ATOM      1  N   UNL     1       6.875   6.569  17.408  0.00  0.00    +0.000 N 
ATOM      2  C   UNL     1       5.683   6.452  16.728  0.00  0.00    +0.000 C 
ATOM      3  O   UNL     1       5.330   7.014  15.707  0.00  0.00    +0.000 OA
ATOM      4  C   UNL     1       4.860   5.512  17.550  0.00  0.00    +0.000 C 
ATOM      5  C   UNL     1       3.554   5.389  17.280  0.00  0.00    +0.000 C 
ATOM      6  N   UNL     1       5.684   5.024  18.545  0.00  0.00    +0.000 N 
ATOM      7  C   UNL     1       5.392   3.907  19.423  0.00  0.00    +0.000 C 
ATOM      8  C   UNL     1       6.912   5.718  18.507  0.00  0.00    +0.000 C 
ATOM      9  S   UNL     1       8.168   5.556  19.597  0.00  0.00    +0.000 S 
ENDROOT
BRANCH   5  10
ATOM     10  C   UNL     1       2.579   4.855  18.163  0.00  0.00    +0.000 A 
ATOM     11  C   UNL     1       2.099   5.389  19.356  0.00  0.00    +0.000 A 
ATOM     12  C   UNL     1       1.220   4.442  19.938  0.00  0.00    +0.000 A 
ATOM     13  C   UNL     1       1.200   3.371  19.080  0.00  0.00    +0.000 A 
ATOM     14  C   UNL     1       0.496   2.073  19.078  0.00  0.00    +0.000 C 
ATOM     15  O   UNL     1       2.018   3.606  18.026  0.00  0.00    +0.000 OA
ENDBRANCH   5  10
BRANCH   1  17
ATOM     16  C   UNL     1       7.658   8.845  17.888  0.00  0.00    +0.000 C 
ATOM     17  C   UNL     1       7.848   7.591  17.044  0.00  0.00    +0.000 C 
ENDBRANCH   1  17
TORSDOF 2
ENDMDL
MODEL 9
REMARK VINA RESULT:      -5.5      2.570      3.138
REMARK  Name = 
REMARK  5 active torsions:
REMARK  status: ('A' for Active; 'I' for Inactive)
REMARK    1  A    between atoms: C_1  and  C_2
REMARK    2  A    between atoms: C_2  and  N_3
REMARK    3  A    between atoms: C_7  and  C_8
REMARK    4  A    between atoms: C_11  and  C_12
REMARK    5  A    between atoms: N_14  and  C_15
REMARK                            x       y       z     vdW  Elec       q    Type
REMARK                         _______ _______ _______ _____ _____    ______ ____
ROOT
ATOM      1  N   UNL     1       1.575   7.526  20.067  0.00  0.00    +0.000 N 
ATOM      2  C   UNL     1       2.120   6.286  20.316  0.00  0.00    +0.000 C 
ATOM      3  O   UNL     1       1.850   5.501  21.206  0.00  0.00    +0.000 OA
ATOM      4  C   UNL     1       3.183   6.116  19.278  0.00  0.00    +0.000 C 
ATOM      5  C   UNL     1       4.061   5.113  19.409  0.00  0.00    +0.000 C 
ATOM      6  N   UNL     1       3.067   7.181  18.407  0.00  0.00    +0.000 N 
ATOM      7  C   UNL     1       3.721   7.304  17.118  0.00  0.00    +0.000 C 
ATOM      8  C   UNL     1       2.120   8.093  18.919  0.00  0.00    +0.000 C 
ATOM      9  S   UNL     1       1.740   9.585  18.271  0.00  0.00    +0.000 S 
ENDROOT
BRANCH   5  10
ATOM     10  C   UNL     1       5.318   5.030  18.754  0.00  0.00    +0.000 A 
ATOM     11  C   UNL     1       6.566   5.450  19.207  0.00  0.00    +0.000 A 
ATOM     12  C   UNL     1       7.500   5.262  18.159  0.00  0.00    +0.000 A 
ATOM     13  C   UNL     1       6.787   4.737  17.110  0.00  0.00    +0.000 A 
ATOM     14  C   UNL     1       7.143   4.304  15.744  0.00  0.00    +0.000 C 
ATOM     15  O   UNL     1       5.483   4.608  17.454  0.00  0.00    +0.000 OA
ENDBRANCH   5  10
BRANCH   1  17
ATOM     16  C   UNL     1       1.445   8.946  22.064  0.00  0.00    +0.000 C 
ATOM     17  C   UNL     1       0.669   8.152  21.021  0.00  0.00    +0.000 C 
ENDBRANCH   1  17
TORSDOF 2
ENDMDL
