MODEL 1
REMARK VINA RESULT:      -8.2      0.000      0.000
REMARK  Name = 
REMARK  6 active torsions:
REMARK  status: ('A' for Active; 'I' for Inactive)
REMARK    1  A    between atoms: N_3  and  C_4
REMARK    2  A    between atoms: C_4  and  C_5
REMARK    3  A    between atoms: C_5  and  N_6
REMARK    4  A    between atoms: C_11  and  C_12
REMARK    5  A    between atoms: N_23  and  C_24
REMARK    6  A    between atoms: C_24  and  C_25
REMARK                            x       y       z     vdW  Elec       q    Type
REMARK                         _______ _______ _______ _____ _____    ______ ____
ROOT
ATOM      1  N   UNL     1       4.629   4.705  16.798  0.00  0.00    +0.000 N 
ATOM      2  N   UNL     1       4.258   3.525  17.323  0.00  0.00    +0.000 NA
ATOM      3  N   UNL     1       3.369   3.774  18.280  0.00  0.00    +0.000 NA
ATOM      4  C   UNL     1       3.189   5.132  18.355  0.00  0.00    +0.000 A 
ATOM      5  C   UNL     1       2.373   5.918  19.186  0.00  0.00    +0.000 A 
ATOM      6  C   UNL     1       2.424   7.318  19.042  0.00  0.00    +0.000 A 
ATOM      7  C   UNL     1       3.307   7.906  18.125  0.00  0.00    +0.000 A 
ATOM      8  C   UNL     1       4.074   7.136  17.252  0.00  0.00    +0.000 A 
ATOM      9  C   UNL     1       3.997   5.753  17.416  0.00  0.00    +0.000 A 
ENDROOT
BRANCH   6  10
ATOM     10  C   UNL     1       1.606   8.160  19.956  0.00  0.00    +0.000 C 
ATOM     11  O   UNL     1       1.532   7.796  21.129  0.00  0.00    +0.000 OA
ATOM     12  N   UNL     1       0.986   9.323  19.487  0.00  0.00    +0.000 N 
ATOM     13  C   UNL     1       0.473  10.281  20.465  0.00  0.00    +0.000 C 
ATOM     14  C   UNL     1      -0.993  10.612  20.208  0.00  0.00    +0.000 C 
ATOM     15  C   UNL     1      -1.213  11.066  18.768  0.00  0.00    +0.000 C 
ATOM     16  C   UNL     1      -0.668  10.031  17.790  0.00  0.00    +0.000 C 
ATOM     17  C   UNL     1       0.788   9.697  18.084  0.00  0.00    +0.000 C 
ENDBRANCH   6  10
BRANCH   1  18
ATOM     18  C   UNL     1       5.579   4.825  15.718  0.00  0.00    +0.000 C 
BRANCH  18  19
ATOM     19  C   UNL     1       7.040   5.016  16.116  0.00  0.00    +0.000 C 
BRANCH  19  22
ATOM     20  O   UNL     1       7.811   6.299  18.492  0.00  0.00    +0.000 OA
ATOM     21  C   UNL     1       7.726   6.957  17.463  0.00  0.00    +0.000 C 
ATOM     22  N   UNL     1       7.397   6.427  16.240  0.00  0.00    +0.000 N 
ATOM     23  N   UNL     1       7.964   8.300  17.387  0.00  0.00    +0.000 N 
ATOM     24  H   UNL     1       6.927   7.070  15.617  0.00  0.00    +0.000 HD
ATOM     25  H   UNL     1       8.251   8.661  16.490  0.00  0.00    +0.000 HD
BRANCH  23  26
ATOM     26  C   UNL     1       8.423   9.034  18.547  0.00  0.00    +0.000 C 
BRANCH  26  27
ATOM     27  C   UNL     1       8.868  10.391  18.138  0.00  0.00    +0.000 A 
ATOM     28  C   UNL     1      10.104  10.998  18.062  0.00  0.00    +0.000 A 
ATOM     29  C   UNL     1       9.874  12.331  17.643  0.00  0.00    +0.000 A 
ATOM     30  C   UNL     1       8.512  12.448  17.481  0.00  0.00    +0.000 A 
ATOM     31  O   UNL     1       7.894  11.276  17.773  0.00  0.00    +0.000 OA
ENDBRANCH  26  27
ENDBRANCH  23  26
ENDBRANCH  19  22
ENDBRANCH  18  19
ENDBRANCH   1  18
TORSDOF 6
ENDMDL
MODEL 2
REMARK VINA RESULT:      -8.1      1.317      1.680
REMARK  Name = 
REMARK  6 active torsions:
REMARK  status: ('A' for Active; 'I' for Inactive)
REMARK    1  A    between atoms: N_3  and  C_4
REMARK    2  A    between atoms: C_4  and  C_5
REMARK    3  A    between atoms: C_5  and  N_6
REMARK    4  A    between atoms: C_11  and  C_12
REMARK    5  A    between atoms: N_23  and  C_24
REMARK    6  A    between atoms: C_24  and  C_25
REMARK                            x       y       z     vdW  Elec       q    Type
REMARK                         _______ _______ _______ _____ _____    ______ ____
ROOT
ATOM      1  N   UNL     1       4.088   5.868  17.873  0.00  0.00    +0.000 N 
ATOM      2  N   UNL     1       4.058   5.010  18.906  0.00  0.00    +0.000 NA
ATOM      3  N   UNL     1       3.252   5.526  19.831  0.00  0.00    +0.000 NA
ATOM      4  C   UNL     1       2.779   6.727  19.366  0.00  0.00    +0.000 A 
ATOM      5  C   UNL     1       1.908   7.669  19.939  0.00  0.00    +0.000 A 
ATOM      6  C   UNL     1       1.623   8.843  19.215  0.00  0.00    +0.000 A 
ATOM      7  C   UNL     1       2.237   9.080  17.977  0.00  0.00    +0.000 A 
ATOM      8  C   UNL     1       3.053   8.127  17.370  0.00  0.00    +0.000 A 
ATOM      9  C   UNL     1       3.311   6.972  18.109  0.00  0.00    +0.000 A 
ENDROOT
BRANCH   6  10
ATOM     10  C   UNL     1       0.747   9.871  19.838  0.00  0.00    +0.000 C 
ATOM     11  O   UNL     1       0.941  10.118  21.027  0.00  0.00    +0.000 OA
ATOM     12  N   UNL     1      -0.223  10.533  19.079  0.00  0.00    +0.000 N 
ATOM     13  C   UNL     1      -0.831  11.743  19.629  0.00  0.00    +0.000 C 
ATOM     14  C   UNL     1      -2.354  11.654  19.633  0.00  0.00    +0.000 C 
ATOM     15  C   UNL     1      -2.889  11.302  18.247  0.00  0.00    +0.000 C 
ATOM     16  C   UNL     1      -2.231  10.031  17.724  0.00  0.00    +0.000 C 
ATOM     17  C   UNL     1      -0.712  10.136  17.755  0.00  0.00    +0.000 C 
ENDBRANCH   6  10
BRANCH   1  18
ATOM     18  C   UNL     1       4.855   5.631  16.672  0.00  0.00    +0.000 C 
BRANCH  18  19
ATOM     19  C   UNL     1       6.372   5.722  16.807  0.00  0.00    +0.000 C 
BRANCH  19  22
ATOM     20  O   UNL     1       8.120   6.768  18.739  0.00  0.00    +0.000 OA
ATOM     21  C   UNL     1       7.667   7.516  17.882  0.00  0.00    +0.000 C 
ATOM     22  N   UNL     1       6.838   7.105  16.868  0.00  0.00    +0.000 N 
ATOM     23  N   UNL     1       7.939   8.852  17.805  0.00  0.00    +0.000 N 
ATOM     24  H   UNL     1       6.198   7.814  16.536  0.00  0.00    +0.000 HD
ATOM     25  H   UNL     1       7.860   9.281  16.896  0.00  0.00    +0.000 HD
BRANCH  23  26
ATOM     26  C   UNL     1       8.875   9.468  18.722  0.00  0.00    +0.000 C 
BRANCH  26  27
ATOM     27  C   UNL     1       9.216  10.834  18.249  0.00  0.00    +0.000 A 
ATOM     28  C   UNL     1       8.457  11.908  17.834  0.00  0.00    +0.000 A 
ATOM     29  C   UNL     1       9.367  12.925  17.459  0.00  0.00    +0.000 A 
ATOM     30  C   UNL     1      10.624  12.410  17.680  0.00  0.00    +0.000 A 
ATOM     31  O   UNL     1      10.543  11.145  18.165  0.00  0.00    +0.000 OA
ENDBRANCH  26  27
ENDBRANCH  23  26
ENDBRANCH  19  22
ENDBRANCH  18  19
ENDBRANCH   1  18
TORSDOF 6
ENDMDL
MODEL 3
REMARK VINA RESULT:      -8.0      3.783      5.468
REMARK  Name = 
REMARK  6 active torsions:
REMARK  status: ('A' for Active; 'I' for Inactive)
REMARK    1  A    between atoms: N_3  and  C_4
REMARK    2  A    between atoms: C_4  and  C_5
REMARK    3  A    between atoms: C_5  and  N_6
REMARK    4  A    between atoms: C_11  and  C_12
REMARK    5  A    between atoms: N_23  and  C_24
REMARK    6  A    between atoms: C_24  and  C_25
REMARK                            x       y       z     vdW  Elec       q    Type
REMARK                         _______ _______ _______ _____ _____    ______ ____
ROOT
ATOM      1  N   UNL     1       7.721   7.481  18.131  0.00  0.00    +0.000 N 
ATOM      2  N   UNL     1       8.500   6.845  19.022  0.00  0.00    +0.000 NA
ATOM      3  N   UNL     1       7.932   5.671  19.283  0.00  0.00    +0.000 NA
ATOM      4  C   UNL     1       6.778   5.579  18.546  0.00  0.00    +0.000 A 
ATOM      5  C   UNL     1       5.813   4.562  18.452  0.00  0.00    +0.000 A 
ATOM      6  C   UNL     1       4.702   4.772  17.612  0.00  0.00    +0.000 A 
ATOM      7  C   UNL     1       4.545   5.987  16.931  0.00  0.00    +0.000 A 
ATOM      8  C   UNL     1       5.526   6.977  16.967  0.00  0.00    +0.000 A 
ATOM      9  C   UNL     1       6.617   6.737  17.802  0.00  0.00    +0.000 A 
ENDROOT
BRANCH   6  10
ATOM     10  C   UNL     1       3.647   3.724  17.550  0.00  0.00    +0.000 C 
ATOM     11  O   UNL     1       3.475   3.175  16.463  0.00  0.00    +0.000 OA
ATOM     12  N   UNL     1       2.921   3.377  18.693  0.00  0.00    +0.000 N 
ATOM     13  C   UNL     1       2.138   2.142  18.673  0.00  0.00    +0.000 C 
ATOM     14  C   UNL     1       0.686   2.393  19.064  0.00  0.00    +0.000 C 
ATOM     15  C   UNL     1       0.593   3.128  20.399  0.00  0.00    +0.000 C 
ATOM     16  C   UNL     1       1.418   4.409  20.365  0.00  0.00    +0.000 C 
ATOM     17  C   UNL     1       2.856   4.136  19.946  0.00  0.00    +0.000 C 
ENDBRANCH   6  10
BRANCH   1  18
ATOM     18  C   UNL     1       8.032   8.788  17.601  0.00  0.00    +0.000 C 
BRANCH  18  19
ATOM     19  C   UNL     1       8.739   9.754  18.548  0.00  0.00    +0.000 C 
BRANCH  19  22
ATOM     20  O   UNL     1      10.421  11.646  19.762  0.00  0.00    +0.000 OA
ATOM     21  C   UNL     1      10.446  11.525  18.544  0.00  0.00    +0.000 C 
ATOM     22  N   UNL     1       9.697  10.607  17.850  0.00  0.00    +0.000 N 
ATOM     23  N   UNL     1      11.232  12.271  17.712  0.00  0.00    +0.000 N 
ATOM     24  H   UNL     1       9.452  10.890  16.910  0.00  0.00    +0.000 HD
ATOM     25  H   UNL     1      11.477  11.858  16.826  0.00  0.00    +0.000 HD
BRANCH  23  26
ATOM     26  C   UNL     1      12.174  13.230  18.251  0.00  0.00    +0.000 C 
BRANCH  26  27
ATOM     27  C   UNL     1      11.621  14.602  18.124  0.00  0.00    +0.000 A 
ATOM     28  C   UNL     1      11.270  15.570  19.042  0.00  0.00    +0.000 A 
ATOM     29  C   UNL     1      10.754  16.660  18.302  0.00  0.00    +0.000 A 
ATOM     30  C   UNL     1      10.833  16.293  16.978  0.00  0.00    +0.000 A 
ATOM     31  O   UNL     1      11.363  15.049  16.859  0.00  0.00    +0.000 OA
ENDBRANCH  26  27
ENDBRANCH  23  26
ENDBRANCH  19  22
ENDBRANCH  18  19
ENDBRANCH   1  18
TORSDOF 6
ENDMDL
MODEL 4
REMARK VINA RESULT:      -8.0      3.637      7.795
REMARK  Name = 
REMARK  6 active torsions:
REMARK  status: ('A' for Active; 'I' for Inactive)
REMARK    1  A    between atoms: N_3  and  C_4
REMARK    2  A    between atoms: C_4  and  C_5
REMARK    3  A    between atoms: C_5  and  N_6
REMARK    4  A    between atoms: C_11  and  C_12
REMARK    5  A    between atoms: N_23  and  C_24
REMARK    6  A    between atoms: C_24  and  C_25
REMARK                            x       y       z     vdW  Elec       q    Type
REMARK                         _______ _______ _______ _____ _____    ______ ____
ROOT
ATOM      1  N   UNL     1       2.997   2.761  19.308  0.00  0.00    +0.000 N 
ATOM      2  N   UNL     1       2.013   2.417  18.460  0.00  0.00    +0.000 NA
ATOM      3  N   UNL     1       2.370   2.827  17.246  0.00  0.00    +0.000 NA
ATOM      4  C   UNL     1       3.593   3.442  17.343  0.00  0.00    +0.000 A 
ATOM      5  C   UNL     1       4.410   4.046  16.373  0.00  0.00    +0.000 A 
ATOM      6  C   UNL     1       5.624   4.627  16.789  0.00  0.00    +0.000 A 
ATOM      7  C   UNL     1       5.976   4.641  18.146  0.00  0.00    +0.000 A 
ATOM      8  C   UNL     1       5.206   3.989  19.108  0.00  0.00    +0.000 A 
ATOM      9  C   UNL     1       4.013   3.419  18.664  0.00  0.00    +0.000 A 
ENDROOT
BRANCH   6  10
ATOM     10  C   UNL     1       6.468   5.319  15.778  0.00  0.00    +0.000 C 
ATOM     11  O   UNL     1       6.804   6.474  16.033  0.00  0.00    +0.000 OA
ATOM     12  N   UNL     1       6.873   4.655  14.616  0.00  0.00    +0.000 N 
ATOM     13  C   UNL     1       7.949   5.241  13.818  0.00  0.00    +0.000 C 
ATOM     14  C   UNL     1       7.537   5.411  12.360  0.00  0.00    +0.000 C 
ATOM     15  C   UNL     1       7.017   4.100  11.776  0.00  0.00    +0.000 C 
ATOM     16  C   UNL     1       5.894   3.536  12.639  0.00  0.00    +0.000 C 
ATOM     17  C   UNL     1       6.322   3.401  14.094  0.00  0.00    +0.000 C 
ENDBRANCH   6  10
BRANCH   1  18
ATOM     18  C   UNL     1       2.962   2.464  20.721  0.00  0.00    +0.000 C 
BRANCH  18  19
ATOM     19  C   UNL     1       2.022   3.316  21.570  0.00  0.00    +0.000 C 
BRANCH  19  22
ATOM     20  O   UNL     1       0.825   5.225  19.896  0.00  0.00    +0.000 OA
ATOM     21  C   UNL     1       1.737   5.572  20.634  0.00  0.00    +0.000 C 
ATOM     22  N   UNL     1       2.367   4.734  21.520  0.00  0.00    +0.000 N 
ATOM     23  N   UNL     1       2.240   6.841  20.691  0.00  0.00    +0.000 N 
ATOM     24  H   UNL     1       3.331   4.974  21.712  0.00  0.00    +0.000 HD
ATOM     25  H   UNL     1       2.681   7.118  21.555  0.00  0.00    +0.000 HD
BRANCH  23  26
ATOM     26  C   UNL     1       1.648   7.905  19.908  0.00  0.00    +0.000 C 
BRANCH  26  27
ATOM     27  C   UNL     1       0.938   8.853  20.804  0.00  0.00    +0.000 A 
ATOM     28  C   UNL     1       0.198   9.995  20.577  0.00  0.00    +0.000 A 
ATOM     29  C   UNL     1      -0.184  10.487  21.848  0.00  0.00    +0.000 A 
ATOM     30  C   UNL     1       0.339   9.608  22.769  0.00  0.00    +0.000 A 
ATOM     31  O   UNL     1       1.016   8.610  22.146  0.00  0.00    +0.000 OA
ENDBRANCH  26  27
ENDBRANCH  23  26
ENDBRANCH  19  22
ENDBRANCH  18  19
ENDBRANCH   1  18
TORSDOF 6
ENDMDL
MODEL 5
REMARK VINA RESULT:      -7.9      4.280     10.417
REMARK  Name = 
REMARK  6 active torsions:
REMARK  status: ('A' for Active; 'I' for Inactive)
REMARK    1  A    between atoms: N_3  and  C_4
REMARK    2  A    between atoms: C_4  and  C_5
REMARK    3  A    between atoms: C_5  and  N_6
REMARK    4  A    between atoms: C_11  and  C_12
REMARK    5  A    between atoms: N_23  and  C_24
REMARK    6  A    between atoms: C_24  and  C_25
REMARK                            x       y       z     vdW  Elec       q    Type
REMARK                         _______ _______ _______ _____ _____    ______ ____
ROOT
ATOM      1  N   UNL     1       0.383  10.303  20.356  0.00  0.00    +0.000 N 
ATOM      2  N   UNL     1       0.298   9.853  21.619  0.00  0.00    +0.000 NA
ATOM      3  N   UNL     1       0.970   8.707  21.681  0.00  0.00    +0.000 NA
ATOM      4  C   UNL     1       1.474   8.437  20.434  0.00  0.00    +0.000 A 
ATOM      5  C   UNL     1       2.247   7.366  19.955  0.00  0.00    +0.000 A 
ATOM      6  C   UNL     1       2.598   7.353  18.591  0.00  0.00    +0.000 A 
ATOM      7  C   UNL     1       2.142   8.361  17.731  0.00  0.00    +0.000 A 
ATOM      8  C   UNL     1       1.429   9.461  18.206  0.00  0.00    +0.000 A 
ATOM      9  C   UNL     1       1.102   9.447  19.562  0.00  0.00    +0.000 A 
ENDROOT
BRANCH   6  10
ATOM     10  C   UNL     1       3.368   6.194  18.063  0.00  0.00    +0.000 C 
ATOM     11  O   UNL     1       4.288   6.447  17.286  0.00  0.00    +0.000 OA
ATOM     12  N   UNL     1       3.061   4.892  18.470  0.00  0.00    +0.000 N 
ATOM     13  C   UNL     1       4.027   3.830  18.193  0.00  0.00    +0.000 C 
ATOM     14  C   UNL     1       3.381   2.665  17.451  0.00  0.00    +0.000 C 
ATOM     15  C   UNL     1       2.145   2.159  18.189  0.00  0.00    +0.000 C 
ATOM     16  C   UNL     1       1.168   3.300  18.446  0.00  0.00    +0.000 C 
ATOM     17  C   UNL     1       1.844   4.462  19.163  0.00  0.00    +0.000 C 
ENDBRANCH   6  10
BRANCH   1  18
ATOM     18  C   UNL     1      -0.221  11.539  19.916  0.00  0.00    +0.000 C 
BRANCH  18  19
ATOM     19  C   UNL     1      -0.695  12.490  21.010  0.00  0.00    +0.000 C 
BRANCH  19  22
ATOM     20  O   UNL     1      -1.860  13.636  23.293  0.00  0.00    +0.000 OA
ATOM     21  C   UNL     1      -2.348  12.614  22.828  0.00  0.00    +0.000 C 
ATOM     22  N   UNL     1      -1.886  11.992  21.695  0.00  0.00    +0.000 N 
ATOM     23  N   UNL     1      -3.428  11.966  23.358  0.00  0.00    +0.000 N 
ATOM     24  H   UNL     1      -2.036  10.992  21.674  0.00  0.00    +0.000 HD
ATOM     25  H   UNL     1      -3.977  11.405  22.725  0.00  0.00    +0.000 HD
BRANCH  23  26
ATOM     26  C   UNL     1      -4.129  12.514  24.499  0.00  0.00    +0.000 C 
BRANCH  26  27
ATOM     27  C   UNL     1      -5.474  12.988  24.082  0.00  0.00    +0.000 A 
ATOM     28  C   UNL     1      -5.960  14.211  23.668  0.00  0.00    +0.000 A 
ATOM     29  C   UNL     1      -7.348  14.041  23.453  0.00  0.00    +0.000 A 
ATOM     30  C   UNL     1      -7.619  12.723  23.740  0.00  0.00    +0.000 A 
ATOM     31  O   UNL     1      -6.488  12.074  24.116  0.00  0.00    +0.000 OA
ENDBRANCH  26  27
ENDBRANCH  23  26
ENDBRANCH  19  22
ENDBRANCH  18  19
ENDBRANCH   1  18
TORSDOF 6
ENDMDL
MODEL 6
REMARK VINA RESULT:      -7.9      3.668      5.576
REMARK  Name = 
REMARK  6 active torsions:
REMARK  status: ('A' for Active; 'I' for Inactive)
REMARK    1  A    between atoms: N_3  and  C_4
REMARK    2  A    between atoms: C_4  and  C_5
REMARK    3  A    between atoms: C_5  and  N_6
REMARK    4  A    between atoms: C_11  and  C_12
REMARK    5  A    between atoms: N_23  and  C_24
REMARK    6  A    between atoms: C_24  and  C_25
REMARK                            x       y       z     vdW  Elec       q    Type
REMARK                         _______ _______ _______ _____ _____    ______ ____
ROOT
ATOM      1  N   UNL     1       3.428   6.439  18.708  0.00  0.00    +0.000 N 
ATOM      2  N   UNL     1       3.791   6.810  17.468  0.00  0.00    +0.000 NA
ATOM      3  N   UNL     1       3.147   7.939  17.184  0.00  0.00    +0.000 NA
ATOM      4  C   UNL     1       2.366   8.270  18.262  0.00  0.00    +0.000 A 
ATOM      5  C   UNL     1       1.495   9.350  18.484  0.00  0.00    +0.000 A 
ATOM      6  C   UNL     1       0.798   9.407  19.706  0.00  0.00    +0.000 A 
ATOM      7  C   UNL     1       0.938   8.381  20.651  0.00  0.00    +0.000 A 
ATOM      8  C   UNL     1       1.845   7.338  20.471  0.00  0.00    +0.000 A 
ATOM      9  C   UNL     1       2.524   7.313  19.253  0.00  0.00    +0.000 A 
ENDROOT
BRANCH   6  10
ATOM     10  C   UNL     1      -0.169  10.516  19.926  0.00  0.00    +0.000 C 
ATOM     11  O   UNL     1      -0.091  11.115  20.998  0.00  0.00    +0.000 OA
ATOM     12  N   UNL     1      -1.091  10.862  18.934  0.00  0.00    +0.000 N 
ATOM     13  C   UNL     1      -1.790  12.141  19.049  0.00  0.00    +0.000 C 
ATOM     14  C   UNL     1      -3.303  11.962  18.967  0.00  0.00    +0.000 C 
ATOM     15  C   UNL     1      -3.698  11.185  17.715  0.00  0.00    +0.000 C 
ATOM     16  C   UNL     1      -2.949   9.859  17.646  0.00  0.00    +0.000 C 
ATOM     17  C   UNL     1      -1.444  10.063  17.758  0.00  0.00    +0.000 C 
ENDBRANCH   6  10
BRANCH   1  18
ATOM     18  C   UNL     1       3.942   5.257  19.360  0.00  0.00    +0.000 C 
BRANCH  18  19
ATOM     19  C   UNL     1       5.322   4.782  18.915  0.00  0.00    +0.000 C 
BRANCH  19  22
ATOM     20  O   UNL     1       6.885   5.466  16.686  0.00  0.00    +0.000 OA
ATOM     21  C   UNL     1       6.070   4.558  16.582  0.00  0.00    +0.000 C 
ATOM     22  N   UNL     1       5.283   4.115  17.616  0.00  0.00    +0.000 N 
ATOM     23  N   UNL     1       5.846   3.852  15.435  0.00  0.00    +0.000 N 
ATOM     24  H   UNL     1       4.392   3.731  17.330  0.00  0.00    +0.000 HD
ATOM     25  H   UNL     1       5.478   2.919  15.539  0.00  0.00    +0.000 HD
BRANCH  23  26
ATOM     26  C   UNL     1       6.645   4.094  14.252  0.00  0.00    +0.000 C 
BRANCH  26  27
ATOM     27  C   UNL     1       5.944   3.561  13.056  0.00  0.00    +0.000 A 
ATOM     28  C   UNL     1       4.698   3.788  12.510  0.00  0.00    +0.000 A 
ATOM     29  C   UNL     1       4.592   2.941  11.381  0.00  0.00    +0.000 A 
ATOM     30  C   UNL     1       5.784   2.258  11.305  0.00  0.00    +0.000 A 
ATOM     31  O   UNL     1       6.613   2.632  12.312  0.00  0.00    +0.000 OA
ENDBRANCH  26  27
ENDBRANCH  23  26
ENDBRANCH  19  22
ENDBRANCH  18  19
ENDBRANCH   1  18
TORSDOF 6
ENDMDL
MODEL 7
REMARK VINA RESULT:      -7.8      3.827      5.441
REMARK  Name = 
REMARK  6 active torsions:
REMARK  status: ('A' for Active; 'I' for Inactive)
REMARK    1  A    between atoms: N_3  and  C_4
REMARK    2  A    between atoms: C_4  and  C_5
REMARK    3  A    between atoms: C_5  and  N_6
REMARK    4  A    between atoms: C_11  and  C_12
REMARK    5  A    between atoms: N_23  and  C_24
REMARK    6  A    between atoms: C_24  and  C_25
REMARK                            x       y       z     vdW  Elec       q    Type
REMARK                         _______ _______ _______ _____ _____    ______ ____
ROOT
ATOM      1  N   UNL     1       3.061   4.252  19.232  0.00  0.00    +0.000 N 
ATOM      2  N   UNL     1       2.579   3.513  20.246  0.00  0.00    +0.000 NA
ATOM      3  N   UNL     1       1.857   4.320  21.019  0.00  0.00    +0.000 NA
ATOM      4  C   UNL     1       1.897   5.581  20.480  0.00  0.00    +0.000 A 
ATOM      5  C   UNL     1       1.315   6.790  20.897  0.00  0.00    +0.000 A 
ATOM      6  C   UNL     1       1.562   7.948  20.134  0.00  0.00    +0.000 A 
ATOM      7  C   UNL     1       2.410   7.896  19.020  0.00  0.00    +0.000 A 
ATOM      8  C   UNL     1       2.943   6.693  18.560  0.00  0.00    +0.000 A 
ATOM      9  C   UNL     1       2.675   5.563  19.333  0.00  0.00    +0.000 A 
ENDROOT
BRANCH   6  10
ATOM     10  C   UNL     1       0.996   9.243  20.599  0.00  0.00    +0.000 C 
ATOM     11  O   UNL     1       1.095   9.493  21.800  0.00  0.00    +0.000 OA
ATOM     12  N   UNL     1       0.411  10.130  19.690  0.00  0.00    +0.000 N 
ATOM     13  C   UNL     1       0.165  11.506  20.120  0.00  0.00    +0.000 C 
ATOM     14  C   UNL     1      -1.287  11.912  19.895  0.00  0.00    +0.000 C 
ATOM     15  C   UNL     1      -1.713  11.661  18.450  0.00  0.00    +0.000 C 
ATOM     16  C   UNL     1      -1.444  10.213  18.055  0.00  0.00    +0.000 C 
ATOM     17  C   UNL     1       0.006   9.825  18.315  0.00  0.00    +0.000 C 
ENDBRANCH   6  10
BRANCH   1  18
ATOM     18  C   UNL     1       3.885   3.705  18.180  0.00  0.00    +0.000 C 
BRANCH  18  19
ATOM     19  C   UNL     1       5.325   4.207  18.115  0.00  0.00    +0.000 C 
BRANCH  19  22
ATOM     20  O   UNL     1       5.342   5.416  15.581  0.00  0.00    +0.000 OA
ATOM     21  C   UNL     1       5.941   4.360  15.738  0.00  0.00    +0.000 C 
ATOM     22  N   UNL     1       6.032   3.703  16.940  0.00  0.00    +0.000 N 
ATOM     23  N   UNL     1       6.614   3.703  14.748  0.00  0.00    +0.000 N 
ATOM     24  H   UNL     1       6.125   2.699  16.863  0.00  0.00    +0.000 HD
ATOM     25  H   UNL     1       7.368   3.097  15.035  0.00  0.00    +0.000 HD
BRANCH  23  26
ATOM     26  C   UNL     1       6.727   4.279  13.425  0.00  0.00    +0.000 C 
BRANCH  26  27
ATOM     27  C   UNL     1       5.896   3.505  12.468  0.00  0.00    +0.000 A 
ATOM     28  C   UNL     1       4.633   3.690  11.946  0.00  0.00    +0.000 A 
ATOM     29  C   UNL     1       4.372   2.577  11.113  0.00  0.00    +0.000 A 
ATOM     30  C   UNL     1       5.498   1.787  11.170  0.00  0.00    +0.000 A 
ATOM     31  O   UNL     1       6.430   2.345  11.984  0.00  0.00    +0.000 OA
ENDBRANCH  26  27
ENDBRANCH  23  26
ENDBRANCH  19  22
ENDBRANCH  18  19
ENDBRANCH   1  18
TORSDOF 6
ENDMDL
MODEL 8
REMARK VINA RESULT:      -7.7      3.458      9.656
REMARK  Name = 
REMARK  6 active torsions:
REMARK  status: ('A' for Active; 'I' for Inactive)
REMARK    1  A    between atoms: N_3  and  C_4
REMARK    2  A    between atoms: C_4  and  C_5
REMARK    3  A    between atoms: C_5  and  N_6
REMARK    4  A    between atoms: C_11  and  C_12
REMARK    5  A    between atoms: N_23  and  C_24
REMARK    6  A    between atoms: C_24  and  C_25
REMARK                            x       y       z     vdW  Elec       q    Type
REMARK                         _______ _______ _______ _____ _____    ______ ____
ROOT
ATOM      1  N   UNL     1       1.094   9.831  20.265  0.00  0.00    +0.000 N 
ATOM      2  N   UNL     1       0.856   9.288  21.471  0.00  0.00    +0.000 NA
ATOM      3  N   UNL     1       1.291   8.031  21.436  0.00  0.00    +0.000 NA
ATOM      4  C   UNL     1       1.802   7.788  20.186  0.00  0.00    +0.000 A 
ATOM      5  C   UNL     1       2.380   6.637  19.625  0.00  0.00    +0.000 A 
ATOM      6  C   UNL     1       2.797   6.686  18.281  0.00  0.00    +0.000 A 
ATOM      7  C   UNL     1       2.590   7.842  17.515  0.00  0.00    +0.000 A 
ATOM      8  C   UNL     1       2.076   9.010  18.077  0.00  0.00    +0.000 A 
ATOM      9  C   UNL     1       1.678   8.931  19.412  0.00  0.00    +0.000 A 
ENDROOT
BRANCH   6  10
ATOM     10  C   UNL     1       3.359   5.455  17.662  0.00  0.00    +0.000 C 
ATOM     11  O   UNL     1       2.754   4.405  17.870  0.00  0.00    +0.000 OA
ATOM     12  N   UNL     1       4.502   5.521  16.861  0.00  0.00    +0.000 N 
ATOM     13  C   UNL     1       4.830   4.371  16.019  0.00  0.00    +0.000 C 
ATOM     14  C   UNL     1       6.260   3.894  16.255  0.00  0.00    +0.000 C 
ATOM     15  C   UNL     1       7.256   5.039  16.102  0.00  0.00    +0.000 C 
ATOM     16  C   UNL     1       6.875   6.208  17.003  0.00  0.00    +0.000 C 
ATOM     17  C   UNL     1       5.436   6.647  16.768  0.00  0.00    +0.000 C 
ENDBRANCH   6  10
BRANCH   1  18
ATOM     18  C   UNL     1       0.763  11.197  19.935  0.00  0.00    +0.000 C 
BRANCH  18  19
ATOM     19  C   UNL     1      -0.546  11.736  20.506  0.00  0.00    +0.000 C 
BRANCH  19  22
ATOM     20  O   UNL     1      -2.200  10.225  18.813  0.00  0.00    +0.000 OA
ATOM     21  C   UNL     1      -2.159  11.440  18.672  0.00  0.00    +0.000 C 
ATOM     22  N   UNL     1      -1.418  12.278  19.467  0.00  0.00    +0.000 N 
ATOM     23  N   UNL     1      -2.857  12.128  17.721  0.00  0.00    +0.000 N 
ATOM     24  H   UNL     1      -1.104  13.123  19.008  0.00  0.00    +0.000 HD
ATOM     25  H   UNL     1      -3.070  13.093  17.922  0.00  0.00    +0.000 HD
BRANCH  23  26
ATOM     26  C   UNL     1      -3.780  11.441  16.842  0.00  0.00    +0.000 C 
BRANCH  26  27
ATOM     27  C   UNL     1      -5.174  11.664  17.303  0.00  0.00    +0.000 A 
ATOM     28  C   UNL     1      -6.086  12.678  17.100  0.00  0.00    +0.000 A 
ATOM     29  C   UNL     1      -7.240  12.338  17.846  0.00  0.00    +0.000 A 
ATOM     30  C   UNL     1      -6.962  11.133  18.448  0.00  0.00    +0.000 A 
ATOM     31  O   UNL     1      -5.713  10.712  18.120  0.00  0.00    +0.000 OA
ENDBRANCH  26  27
ENDBRANCH  23  26
ENDBRANCH  19  22
ENDBRANCH  18  19
ENDBRANCH   1  18
TORSDOF 6
ENDMDL
MODEL 9
REMARK VINA RESULT:      -7.7      1.226      1.368
REMARK  Name = 
REMARK  6 active torsions:
REMARK  status: ('A' for Active; 'I' for Inactive)
REMARK    1  A    between atoms: N_3  and  C_4
REMARK    2  A    between atoms: C_4  and  C_5
REMARK    3  A    between atoms: C_5  and  N_6
REMARK    4  A    between atoms: C_11  and  C_12
REMARK    5  A    between atoms: N_23  and  C_24
REMARK    6  A    between atoms: C_24  and  C_25
REMARK                            x       y       z     vdW  Elec       q    Type
REMARK                         _______ _______ _______ _____ _____    ______ ____
ROOT
ATOM      1  N   UNL     1       4.769   4.484  18.235  0.00  0.00    +0.000 N 
ATOM      2  N   UNL     1       4.500   3.488  19.096  0.00  0.00    +0.000 NA
ATOM      3  N   UNL     1       3.567   3.927  19.936  0.00  0.00    +0.000 NA
ATOM      4  C   UNL     1       3.256   5.219  19.595  0.00  0.00    +0.000 A 
ATOM      5  C   UNL     1       2.347   6.135  20.151  0.00  0.00    +0.000 A 
ATOM      6  C   UNL     1       2.268   7.423  19.587  0.00  0.00    +0.000 A 
ATOM      7  C   UNL     1       3.113   7.789  18.530  0.00  0.00    +0.000 A 
ATOM      8  C   UNL     1       3.973   6.871  17.929  0.00  0.00    +0.000 A 
ATOM      9  C   UNL     1       4.024   5.603  18.507  0.00  0.00    +0.000 A 
ENDROOT
BRANCH   6  10
ATOM     10  C   UNL     1       1.349   8.418  20.205  0.00  0.00    +0.000 C 
ATOM     11  O   UNL     1       1.139   8.303  21.411  0.00  0.00    +0.000 OA
ATOM     12  N   UNL     1       0.789   9.442  19.435  0.00  0.00    +0.000 N 
ATOM     13  C   UNL     1       0.166  10.571  20.125  0.00  0.00    +0.000 C 
ATOM     14  C   UNL     1      -1.260  10.806  19.639  0.00  0.00    +0.000 C 
ATOM     15  C   UNL     1      -1.309  10.945  18.120  0.00  0.00    +0.000 C 
ATOM     16  C   UNL     1      -0.656   9.742  17.450  0.00  0.00    +0.000 C 
ATOM     17  C   UNL     1       0.756   9.512  17.971  0.00  0.00    +0.000 C 
ENDBRANCH   6  10
BRANCH   1  18
ATOM     18  C   UNL     1       5.732   4.364  17.165  0.00  0.00    +0.000 C 
BRANCH  18  19
ATOM     19  C   UNL     1       7.200   4.512  17.553  0.00  0.00    +0.000 C 
BRANCH  19  22
ATOM     20  O   UNL     1       7.532   6.977  16.252  0.00  0.00    +0.000 OA
ATOM     21  C   UNL     1       7.650   6.928  17.469  0.00  0.00    +0.000 C 
ATOM     22  N   UNL     1       7.471   5.787  18.211  0.00  0.00    +0.000 N 
ATOM     23  N   UNL     1       7.957   8.002  18.256  0.00  0.00    +0.000 N 
ATOM     24  H   UNL     1       8.013   5.752  19.064  0.00  0.00    +0.000 HD
ATOM     25  H   UNL     1       7.654   7.964  19.217  0.00  0.00    +0.000 HD
BRANCH  23  26
ATOM     26  C   UNL     1       8.089   9.324  17.681  0.00  0.00    +0.000 C 
BRANCH  26  27
ATOM     27  C   UNL     1       9.043  10.129  18.485  0.00  0.00    +0.000 A 
ATOM     28  C   UNL     1       9.222  10.307  19.841  0.00  0.00    +0.000 A 
ATOM     29  C   UNL     1      10.276  11.240  19.989  0.00  0.00    +0.000 A 
ATOM     30  C   UNL     1      10.680  11.563  18.714  0.00  0.00    +0.000 A 
ATOM     31  O   UNL     1       9.943  10.890  17.795  0.00  0.00    +0.000 OA
ENDBRANCH  26  27
ENDBRANCH  23  26
ENDBRANCH  19  22
ENDBRANCH  18  19
ENDBRANCH   1  18
TORSDOF 6
ENDMDL
