MODEL 1
REMARK VINA RESULT:      -6.8      0.000      0.000
REMARK  Name = 
REMARK  4 active torsions:
REMARK  status: ('A' for Active; 'I' for Inactive)
REMARK    1  A    between atoms: C_2  and  C_15
REMARK    2  A    between atoms: N_3  and  N_4
REMARK    3  A    between atoms: C_5  and  C_6
REMARK    4  A    between atoms: C_8  and  C_9
REMARK                            x       y       z     vdW  Elec       q    Type
REMARK                         _______ _______ _______ _____ _____    ______ ____
ROOT
ATOM      1  N   UNL     1       3.850   6.185  19.157  0.00  0.00    +0.000 NA
ATOM      2  C   UNL     1       2.745   6.850  19.074  0.00  0.00    +0.000 C 
ENDROOT
BRANCH   1   5
ATOM      3  O   UNL     1       4.299   3.773  17.906  0.00  0.00    +0.000 OA
ATOM      4  C   UNL     1       4.780   4.818  17.466  0.00  0.00    +0.000 C 
ATOM      5  N   UNL     1       4.601   6.072  18.022  0.00  0.00    +0.000 N 
ATOM      6  H   UNL     1       5.011   6.886  17.571  0.00  0.00    +0.000 HD
BRANCH   4   7
ATOM      7  C   UNL     1       5.620   4.770  16.244  0.00  0.00    +0.000 A 
ATOM      8  C   UNL     1       6.800   5.502  16.212  0.00  0.00    +0.000 A 
ATOM      9  N   UNL     1       7.616   5.528  15.129  0.00  0.00    +0.000 NA
ATOM     10  C   UNL     1       7.196   4.792  14.078  0.00  0.00    +0.000 A 
ATOM     11  C   UNL     1       6.018   4.056  14.106  0.00  0.00    +0.000 A 
ATOM     12  N   UNL     1       5.197   4.016  15.187  0.00  0.00    +0.000 NA
ENDBRANCH   4   7
ENDBRANCH   1   5
BRANCH   2  13
ATOM     13  C   UNL     1       1.822   7.028  20.227  0.00  0.00    +0.000 C 
ATOM     14 CL   UNL     1       1.495   8.649  20.737  0.00  0.00    +0.000 Cl
ATOM     15  C   UNL     1       1.251   6.004  20.878  0.00  0.00    +0.000 C 
BRANCH  15  16
ATOM     16  C   UNL     1       1.490   4.587  20.615  0.00  0.00    +0.000 A 
ATOM     17  C   UNL     1       0.920   3.978  19.491  0.00  0.00    +0.000 A 
ATOM     18  C   UNL     1       1.184   2.636  19.211  0.00  0.00    +0.000 A 
ATOM     19  C   UNL     1       2.017   1.900  20.052  0.00  0.00    +0.000 A 
ATOM     20  C   UNL     1       2.573   2.498  21.181  0.00  0.00    +0.000 A 
ATOM     21  C   UNL     1       2.308   3.838  21.466  0.00  0.00    +0.000 A 
ENDBRANCH  15  16
ENDBRANCH   2  13
TORSDOF 4
ENDMDL
MODEL 2
REMARK VINA RESULT:      -6.7      0.347      1.133
REMARK  Name = 
REMARK  4 active torsions:
REMARK  status: ('A' for Active; 'I' for Inactive)
REMARK    1  A    between atoms: C_2  and  C_15
REMARK    2  A    between atoms: N_3  and  N_4
REMARK    3  A    between atoms: C_5  and  C_6
REMARK    4  A    between atoms: C_8  and  C_9
REMARK                            x       y       z     vdW  Elec       q    Type
REMARK                         _______ _______ _______ _____ _____    ______ ____
ROOT
ATOM      1  N   UNL     1       3.712   6.275  18.928  0.00  0.00    +0.000 NA
ATOM      2  C   UNL     1       2.590   6.915  18.905  0.00  0.00    +0.000 C 
ENDROOT
BRANCH   1   5
ATOM      3  O   UNL     1       5.239   4.048  18.383  0.00  0.00    +0.000 OA
ATOM      4  C   UNL     1       5.108   4.949  17.554  0.00  0.00    +0.000 C 
ATOM      5  N   UNL     1       4.356   6.096  17.738  0.00  0.00    +0.000 N 
ATOM      6  H   UNL     1       4.279   6.774  16.982  0.00  0.00    +0.000 HD
BRANCH   4   7
ATOM      7  C   UNL     1       5.793   4.832  16.243  0.00  0.00    +0.000 A 
ATOM      8  C   UNL     1       7.013   5.470  16.064  0.00  0.00    +0.000 A 
ATOM      9  N   UNL     1       7.695   5.429  14.893  0.00  0.00    +0.000 NA
ATOM     10  C   UNL     1       7.100   4.724  13.907  0.00  0.00    +0.000 A 
ATOM     11  C   UNL     1       5.880   4.082  14.083  0.00  0.00    +0.000 A 
ATOM     12  N   UNL     1       5.191   4.109  15.253  0.00  0.00    +0.000 NA
ENDBRANCH   4   7
ENDBRANCH   1   5
BRANCH   2  13
ATOM     13  C   UNL     1       1.773   7.157  20.126  0.00  0.00    +0.000 C 
ATOM     14 CL   UNL     1       1.471   8.804  20.563  0.00  0.00    +0.000 Cl
ATOM     15  C   UNL     1       1.280   6.171  20.889  0.00  0.00    +0.000 C 
BRANCH  15  16
ATOM     16  C   UNL     1       1.515   4.742  20.692  0.00  0.00    +0.000 A 
ATOM     17  C   UNL     1       2.381   4.051  21.547  0.00  0.00    +0.000 A 
ATOM     18  C   UNL     1       2.573   2.678  21.390  0.00  0.00    +0.000 A 
ATOM     19  C   UNL     1       1.902   1.992  20.380  0.00  0.00    +0.000 A 
ATOM     20  C   UNL     1       1.050   2.679  19.516  0.00  0.00    +0.000 A 
ATOM     21  C   UNL     1       0.859   4.053  19.667  0.00  0.00    +0.000 A 
ENDBRANCH  15  16
ENDBRANCH   2  13
TORSDOF 4
ENDMDL
MODEL 3
REMARK VINA RESULT:      -6.7      3.100      6.108
REMARK  Name = 
REMARK  4 active torsions:
REMARK  status: ('A' for Active; 'I' for Inactive)
REMARK    1  A    between atoms: C_2  and  C_15
REMARK    2  A    between atoms: N_3  and  N_4
REMARK    3  A    between atoms: C_5  and  C_6
REMARK    4  A    between atoms: C_8  and  C_9
REMARK                            x       y       z     vdW  Elec       q    Type
REMARK                         _______ _______ _______ _____ _____    ______ ____
ROOT
ATOM      1  N   UNL     1       2.677   6.230  17.951  0.00  0.00    +0.000 NA
ATOM      2  C   UNL     1       3.934   5.933  18.007  0.00  0.00    +0.000 C 
ENDROOT
BRANCH   1   5
ATOM      3  O   UNL     1       1.734   6.381  20.534  0.00  0.00    +0.000 OA
ATOM      4  C   UNL     1       1.817   7.385  19.827  0.00  0.00    +0.000 C 
ATOM      5  N   UNL     1       2.285   7.405  18.525  0.00  0.00    +0.000 N 
ATOM      6  H   UNL     1       2.348   8.289  18.025  0.00  0.00    +0.000 HD
BRANCH   4   7
ATOM      7  C   UNL     1       1.393   8.696  20.378  0.00  0.00    +0.000 A 
ATOM      8  C   UNL     1       1.285   8.842  21.755  0.00  0.00    +0.000 A 
ATOM      9  N   UNL     1       0.886   9.998  22.339  0.00  0.00    +0.000 NA
ATOM     10  C   UNL     1       0.596  11.002  21.484  0.00  0.00    +0.000 A 
ATOM     11  C   UNL     1       0.705  10.861  20.106  0.00  0.00    +0.000 A 
ATOM     12  N   UNL     1       1.110   9.711  19.509  0.00  0.00    +0.000 NA
ENDBRANCH   4   7
ENDBRANCH   1   5
BRANCH   2  13
ATOM     13  C   UNL     1       4.491   4.672  17.445  0.00  0.00    +0.000 C 
ATOM     14 CL   UNL     1       5.629   4.818  16.150  0.00  0.00    +0.000 Cl
ATOM     15  C   UNL     1       4.147   3.453  17.887  0.00  0.00    +0.000 C 
BRANCH  15  16
ATOM     16  C   UNL     1       3.147   3.170  18.914  0.00  0.00    +0.000 A 
ATOM     17  C   UNL     1       3.531   3.074  20.256  0.00  0.00    +0.000 A 
ATOM     18  C   UNL     1       2.572   2.849  21.245  0.00  0.00    +0.000 A 
ATOM     19  C   UNL     1       1.229   2.720  20.896  0.00  0.00    +0.000 A 
ATOM     20  C   UNL     1       0.844   2.799  19.558  0.00  0.00    +0.000 A 
ATOM     21  C   UNL     1       1.802   3.020  18.567  0.00  0.00    +0.000 A 
ENDBRANCH  15  16
ENDBRANCH   2  13
TORSDOF 4
ENDMDL
MODEL 4
REMARK VINA RESULT:      -6.7      4.340      6.663
REMARK  Name = 
REMARK  4 active torsions:
REMARK  status: ('A' for Active; 'I' for Inactive)
REMARK    1  A    between atoms: C_2  and  C_15
REMARK    2  A    between atoms: N_3  and  N_4
REMARK    3  A    between atoms: C_5  and  C_6
REMARK    4  A    between atoms: C_8  and  C_9
REMARK                            x       y       z     vdW  Elec       q    Type
REMARK                         _______ _______ _______ _____ _____    ______ ____
ROOT
ATOM      1  N   UNL     1       2.582   8.312  18.264  0.00  0.00    +0.000 NA
ATOM      2  C   UNL     1       2.882   7.279  17.547  0.00  0.00    +0.000 C 
ENDROOT
BRANCH   1   5
ATOM      3  O   UNL     1       1.067   9.643  20.140  0.00  0.00    +0.000 OA
ATOM      4  C   UNL     1       0.737   9.621  18.953  0.00  0.00    +0.000 C 
ATOM      5  N   UNL     1       1.439   8.986  17.944  0.00  0.00    +0.000 N 
ATOM      6  H   UNL     1       1.107   9.048  16.984  0.00  0.00    +0.000 HD
BRANCH   4   7
ATOM      7  C   UNL     1      -0.503  10.319  18.534  0.00  0.00    +0.000 A 
ATOM      8  C   UNL     1      -0.952  11.398  19.284  0.00  0.00    +0.000 A 
ATOM      9  N   UNL     1      -2.085  12.079  18.982  0.00  0.00    +0.000 NA
ATOM     10  C   UNL     1      -2.752  11.628  17.898  0.00  0.00    +0.000 A 
ATOM     11  C   UNL     1      -2.306  10.550  17.143  0.00  0.00    +0.000 A 
ATOM     12  N   UNL     1      -1.168   9.866  17.432  0.00  0.00    +0.000 NA
ENDBRANCH   4   7
ENDBRANCH   1   5
BRANCH   2  13
ATOM     13  C   UNL     1       4.111   6.470  17.772  0.00  0.00    +0.000 C 
ATOM     14 CL   UNL     1       5.600   7.107  17.163  0.00  0.00    +0.000 Cl
ATOM     15  C   UNL     1       4.109   5.288  18.406  0.00  0.00    +0.000 C 
BRANCH  15  16
ATOM     16  C   UNL     1       2.926   4.590  18.904  0.00  0.00    +0.000 A 
ATOM     17  C   UNL     1       2.266   3.664  18.088  0.00  0.00    +0.000 A 
ATOM     18  C   UNL     1       1.162   2.962  18.576  0.00  0.00    +0.000 A 
ATOM     19  C   UNL     1       0.716   3.183  19.878  0.00  0.00    +0.000 A 
ATOM     20  C   UNL     1       1.361   4.116  20.688  0.00  0.00    +0.000 A 
ATOM     21  C   UNL     1       2.462   4.823  20.202  0.00  0.00    +0.000 A 
ENDBRANCH  15  16
ENDBRANCH   2  13
TORSDOF 4
ENDMDL
MODEL 5
REMARK VINA RESULT:      -6.6      3.594      7.203
REMARK  Name = 
REMARK  4 active torsions:
REMARK  status: ('A' for Active; 'I' for Inactive)
REMARK    1  A    between atoms: C_2  and  C_15
REMARK    2  A    between atoms: N_3  and  N_4
REMARK    3  A    between atoms: C_5  and  C_6
REMARK    4  A    between atoms: C_8  and  C_9
REMARK                            x       y       z     vdW  Elec       q    Type
REMARK                         _______ _______ _______ _____ _____    ______ ____
ROOT
ATOM      1  N   UNL     1       2.759   6.639  17.989  0.00  0.00    +0.000 NA
ATOM      2  C   UNL     1       3.138   5.493  18.452  0.00  0.00    +0.000 C 
ENDROOT
BRANCH   1   5
ATOM      3  O   UNL     1       1.930   9.160  17.252  0.00  0.00    +0.000 OA
ATOM      4  C   UNL     1       1.834   8.773  18.417  0.00  0.00    +0.000 C 
ATOM      5  N   UNL     1       2.217   7.525  18.875  0.00  0.00    +0.000 N 
ATOM      6  H   UNL     1       2.070   7.280  19.852  0.00  0.00    +0.000 HD
BRANCH   4   7
ATOM      7  C   UNL     1       1.269   9.688  19.439  0.00  0.00    +0.000 A 
ATOM      8  C   UNL     1       0.926  10.981  19.066  0.00  0.00    +0.000 A 
ATOM      9  N   UNL     1       0.422  11.886  19.941  0.00  0.00    +0.000 NA
ATOM     10  C   UNL     1       0.280  11.441  21.208  0.00  0.00    +0.000 A 
ATOM     11  C   UNL     1       0.619  10.147  21.585  0.00  0.00    +0.000 A 
ATOM     12  N   UNL     1       1.118   9.230  20.716  0.00  0.00    +0.000 NA
ENDBRANCH   4   7
ENDBRANCH   1   5
BRANCH   2  13
ATOM     13  C   UNL     1       3.721   4.428  17.592  0.00  0.00    +0.000 C 
ATOM     14 CL   UNL     1       2.655   3.179  17.047  0.00  0.00    +0.000 Cl
ATOM     15  C   UNL     1       5.014   4.394  17.237  0.00  0.00    +0.000 C 
BRANCH  15  16
ATOM     16  C   UNL     1       6.045   5.330  17.681  0.00  0.00    +0.000 A 
ATOM     17  C   UNL     1       6.800   5.047  18.825  0.00  0.00    +0.000 A 
ATOM     18  C   UNL     1       7.816   5.916  19.225  0.00  0.00    +0.000 A 
ATOM     19  C   UNL     1       8.079   7.068  18.487  0.00  0.00    +0.000 A 
ATOM     20  C   UNL     1       7.318   7.362  17.356  0.00  0.00    +0.000 A 
ATOM     21  C   UNL     1       6.299   6.497  16.955  0.00  0.00    +0.000 A 
ENDBRANCH  15  16
ENDBRANCH   2  13
TORSDOF 4
ENDMDL
MODEL 6
REMARK VINA RESULT:      -6.6      2.300      3.903
REMARK  Name = 
REMARK  4 active torsions:
REMARK  status: ('A' for Active; 'I' for Inactive)
REMARK    1  A    between atoms: C_2  and  C_15
REMARK    2  A    between atoms: N_3  and  N_4
REMARK    3  A    between atoms: C_5  and  C_6
REMARK    4  A    between atoms: C_8  and  C_9
REMARK                            x       y       z     vdW  Elec       q    Type
REMARK                         _______ _______ _______ _____ _____    ______ ____
ROOT
ATOM      1  N   UNL     1       5.002   4.218  17.829  0.00  0.00    +0.000 NA
ATOM      2  C   UNL     1       3.768   4.416  18.159  0.00  0.00    +0.000 C 
ENDROOT
BRANCH   1   5
ATOM      3  O   UNL     1       7.575   4.598  16.923  0.00  0.00    +0.000 OA
ATOM      4  C   UNL     1       6.633   4.482  16.138  0.00  0.00    +0.000 C 
ATOM      5  N   UNL     1       5.314   4.282  16.502  0.00  0.00    +0.000 N 
ATOM      6  H   UNL     1       4.605   4.165  15.781  0.00  0.00    +0.000 HD
BRANCH   4   7
ATOM      7  C   UNL     1       6.895   4.557  14.679  0.00  0.00    +0.000 A 
ATOM      8  C   UNL     1       6.184   3.722  13.826  0.00  0.00    +0.000 A 
ATOM      9  N   UNL     1       6.375   3.714  12.484  0.00  0.00    +0.000 NA
ATOM     10  C   UNL     1       7.312   4.575  12.033  0.00  0.00    +0.000 A 
ATOM     11  C   UNL     1       8.023   5.414  12.882  0.00  0.00    +0.000 A 
ATOM     12  N   UNL     1       7.835   5.437  14.227  0.00  0.00    +0.000 NA
ENDBRANCH   4   7
ENDBRANCH   1   5
BRANCH   2  13
ATOM     13  C   UNL     1       3.288   4.351  19.567  0.00  0.00    +0.000 C 
ATOM     14 CL   UNL     1       3.497   2.852  20.405  0.00  0.00    +0.000 Cl
ATOM     15  C   UNL     1       2.706   5.383  20.195  0.00  0.00    +0.000 C 
BRANCH  15  16
ATOM     16  C   UNL     1       2.392   6.678  19.596  0.00  0.00    +0.000 A 
ATOM     17  C   UNL     1       2.715   6.926  18.257  0.00  0.00    +0.000 A 
ATOM     18  C   UNL     1       2.377   8.146  17.669  0.00  0.00    +0.000 A 
ATOM     19  C   UNL     1       1.716   9.119  18.416  0.00  0.00    +0.000 A 
ATOM     20  C   UNL     1       1.407   8.883  19.754  0.00  0.00    +0.000 A 
ATOM     21  C   UNL     1       1.748   7.666  20.346  0.00  0.00    +0.000 A 
ENDBRANCH  15  16
ENDBRANCH   2  13
TORSDOF 4
ENDMDL
MODEL 7
REMARK VINA RESULT:      -6.6      1.579      2.107
REMARK  Name = 
REMARK  4 active torsions:
REMARK  status: ('A' for Active; 'I' for Inactive)
REMARK    1  A    between atoms: C_2  and  C_15
REMARK    2  A    between atoms: N_3  and  N_4
REMARK    3  A    between atoms: C_5  and  C_6
REMARK    4  A    between atoms: C_8  and  C_9
REMARK                            x       y       z     vdW  Elec       q    Type
REMARK                         _______ _______ _______ _____ _____    ______ ____
ROOT
ATOM      1  N   UNL     1       4.611   6.497  17.343  0.00  0.00    +0.000 NA
ATOM      2  C   UNL     1       3.320   6.540  17.392  0.00  0.00    +0.000 C 
ENDROOT
BRANCH   1   5
ATOM      3  O   UNL     1       5.713   4.055  16.707  0.00  0.00    +0.000 OA
ATOM      4  C   UNL     1       5.719   4.986  15.901  0.00  0.00    +0.000 C 
ATOM      5  N   UNL     1       5.183   6.240  16.131  0.00  0.00    +0.000 N 
ATOM      6  H   UNL     1       5.206   6.940  15.392  0.00  0.00    +0.000 HD
BRANCH   4   7
ATOM      7  C   UNL     1       6.340   4.785  14.568  0.00  0.00    +0.000 A 
ATOM      8  C   UNL     1       5.758   3.883  13.686  0.00  0.00    +0.000 A 
ATOM      9  N   UNL     1       6.272   3.626  12.458  0.00  0.00    +0.000 NA
ATOM     10  C   UNL     1       7.396   4.309  12.152  0.00  0.00    +0.000 A 
ATOM     11  C   UNL     1       7.979   5.214  13.030  0.00  0.00    +0.000 A 
ATOM     12  N   UNL     1       7.470   5.485  14.260  0.00  0.00    +0.000 NA
ENDBRANCH   4   7
ENDBRANCH   1   5
BRANCH   2  13
ATOM     13  C   UNL     1       2.568   6.786  18.653  0.00  0.00    +0.000 C 
ATOM     14 CL   UNL     1       2.213   8.430  19.056  0.00  0.00    +0.000 Cl
ATOM     15  C   UNL     1       2.170   5.804  19.476  0.00  0.00    +0.000 C 
BRANCH  15  16
ATOM     16  C   UNL     1       2.462   4.382  19.310  0.00  0.00    +0.000 A 
ATOM     17  C   UNL     1       1.536   3.547  18.673  0.00  0.00    +0.000 A 
ATOM     18  C   UNL     1       1.832   2.198  18.473  0.00  0.00    +0.000 A 
ATOM     19  C   UNL     1       3.051   1.680  18.906  0.00  0.00    +0.000 A 
ATOM     20  C   UNL     1       3.969   2.504  19.554  0.00  0.00    +0.000 A 
ATOM     21  C   UNL     1       3.675   3.853  19.761  0.00  0.00    +0.000 A 
ENDBRANCH  15  16
ENDBRANCH   2  13
TORSDOF 4
ENDMDL
MODEL 8
REMARK VINA RESULT:      -6.6      3.124      5.995
REMARK  Name = 
REMARK  4 active torsions:
REMARK  status: ('A' for Active; 'I' for Inactive)
REMARK    1  A    between atoms: C_2  and  C_15
REMARK    2  A    between atoms: N_3  and  N_4
REMARK    3  A    between atoms: C_5  and  C_6
REMARK    4  A    between atoms: C_8  and  C_9
REMARK                            x       y       z     vdW  Elec       q    Type
REMARK                         _______ _______ _______ _____ _____    ______ ____
ROOT
ATOM      1  N   UNL     1       3.546   6.055  18.747  0.00  0.00    +0.000 NA
ATOM      2  C   UNL     1       3.481   5.539  17.563  0.00  0.00    +0.000 C 
ENDROOT
BRANCH   1   5
ATOM      3  O   UNL     1       1.668   6.507  20.709  0.00  0.00    +0.000 OA
ATOM      4  C   UNL     1       2.016   7.405  19.941  0.00  0.00    +0.000 C 
ATOM      5  N   UNL     1       2.955   7.270  18.934  0.00  0.00    +0.000 N 
ATOM      6  H   UNL     1       3.204   8.078  18.367  0.00  0.00    +0.000 HD
BRANCH   4   7
ATOM      7  C   UNL     1       1.403   8.749  20.075  0.00  0.00    +0.000 A 
ATOM      8  C   UNL     1       1.181   9.503  18.929  0.00  0.00    +0.000 A 
ATOM      9  N   UNL     1       0.644  10.747  18.964  0.00  0.00    +0.000 NA
ATOM     10  C   UNL     1       0.342  11.206  20.198  0.00  0.00    +0.000 A 
ATOM     11  C   UNL     1       0.559  10.455  21.346  0.00  0.00    +0.000 A 
ATOM     12  N   UNL     1       1.089   9.204  21.323  0.00  0.00    +0.000 NA
ENDBRANCH   4   7
ENDBRANCH   1   5
BRANCH   2  13
ATOM     13  C   UNL     1       4.105   4.233  17.217  0.00  0.00    +0.000 C 
ATOM     14 CL   UNL     1       5.150   4.196  15.839  0.00  0.00    +0.000 Cl
ATOM     15  C   UNL     1       3.887   3.105  17.910  0.00  0.00    +0.000 C 
BRANCH  15  16
ATOM     16  C   UNL     1       2.975   2.965  19.043  0.00  0.00    +0.000 A 
ATOM     17  C   UNL     1       3.484   2.776  20.332  0.00  0.00    +0.000 A 
ATOM     18  C   UNL     1       2.616   2.687  21.422  0.00  0.00    +0.000 A 
ATOM     19  C   UNL     1       1.240   2.786  21.227  0.00  0.00    +0.000 A 
ATOM     20  C   UNL     1       0.728   2.958  19.942  0.00  0.00    +0.000 A 
ATOM     21  C   UNL     1       1.592   3.043  18.850  0.00  0.00    +0.000 A 
ENDBRANCH  15  16
ENDBRANCH   2  13
TORSDOF 4
ENDMDL
MODEL 9
REMARK VINA RESULT:      -6.6      1.618      2.389
REMARK  Name = 
REMARK  4 active torsions:
REMARK  status: ('A' for Active; 'I' for Inactive)
REMARK    1  A    between atoms: C_2  and  C_15
REMARK    2  A    between atoms: N_3  and  N_4
REMARK    3  A    between atoms: C_5  and  C_6
REMARK    4  A    between atoms: C_8  and  C_9
REMARK                            x       y       z     vdW  Elec       q    Type
REMARK                         _______ _______ _______ _____ _____    ______ ____
ROOT
ATOM      1  N   UNL     1       4.644   6.407  17.283  0.00  0.00    +0.000 NA
ATOM      2  C   UNL     1       3.366   6.600  17.303  0.00  0.00    +0.000 C 
ENDROOT
BRANCH   1   5
ATOM      3  O   UNL     1       5.735   3.971  16.602  0.00  0.00    +0.000 OA
ATOM      4  C   UNL     1       5.753   4.919  15.816  0.00  0.00    +0.000 C 
ATOM      5  N   UNL     1       5.224   6.172  16.069  0.00  0.00    +0.000 N 
ATOM      6  H   UNL     1       5.255   6.888  15.346  0.00  0.00    +0.000 HD
BRANCH   4   7
ATOM      7  C   UNL     1       6.381   4.743  14.484  0.00  0.00    +0.000 A 
ATOM      8  C   UNL     1       5.832   3.824  13.599  0.00  0.00    +0.000 A 
ATOM      9  N   UNL     1       6.355   3.588  12.371  0.00  0.00    +0.000 NA
ATOM     10  C   UNL     1       7.456   4.310  12.068  0.00  0.00    +0.000 A 
ATOM     11  C   UNL     1       8.007   5.233  12.949  0.00  0.00    +0.000 A 
ATOM     12  N   UNL     1       7.487   5.483  14.179  0.00  0.00    +0.000 NA
ENDBRANCH   4   7
ENDBRANCH   1   5
BRANCH   2  13
ATOM     13  C   UNL     1       2.606   6.841  18.560  0.00  0.00    +0.000 C 
ATOM     14 CL   UNL     1       2.268   8.486  18.977  0.00  0.00    +0.000 Cl
ATOM     15  C   UNL     1       2.189   5.856  19.368  0.00  0.00    +0.000 C 
BRANCH  15  16
ATOM     16  C   UNL     1       2.466   4.432  19.189  0.00  0.00    +0.000 A 
ATOM     17  C   UNL     1       3.649   3.881  19.693  0.00  0.00    +0.000 A 
ATOM     18  C   UNL     1       3.895   2.513  19.563  0.00  0.00    +0.000 A 
ATOM     19  C   UNL     1       2.961   1.694  18.932  0.00  0.00    +0.000 A 
ATOM     20  C   UNL     1       1.788   2.241  18.415  0.00  0.00    +0.000 A 
ATOM     21  C   UNL     1       1.541   3.610  18.539  0.00  0.00    +0.000 A 
ENDBRANCH  15  16
ENDBRANCH   2  13
TORSDOF 4
ENDMDL
