MODEL 1
REMARK VINA RESULT:      -9.0      0.000      0.000
REMARK  Name = 
REMARK  3 active torsions:
REMARK  status: ('A' for Active; 'I' for Inactive)
REMARK    1  A    between atoms: C_1  and  N_2
REMARK    2  A    between atoms: C_7  and  C_8
REMARK    3  A    between atoms: C_11  and  C_12
REMARK                            x       y       z     vdW  Elec       q    Type
REMARK                         _______ _______ _______ _____ _____    ______ ____
ROOT
ATOM      1  C   UNL     1       2.245   6.419  19.846  0.00  0.00    +0.000 A 
ATOM      2  C   UNL     1       3.108   5.915  18.947  0.00  0.00    +0.000 A 
ATOM      3  N   UNL     1       3.557   4.613  19.106  0.00  0.00    +0.000 N 
ATOM      4  C   UNL     1       4.460   3.820  18.412  0.00  0.00    +0.000 A 
ATOM      5  C   UNL     1       4.392   2.600  19.077  0.00  0.00    +0.000 A 
ATOM      6  N   UNL     1       3.539   2.634  20.152  0.00  0.00    +0.000 NA
ATOM      7  C   UNL     1       3.074   3.857  20.143  0.00  0.00    +0.000 A 
ATOM      8  C   UNL     1       2.131   4.458  21.049  0.00  0.00    +0.000 A 
ATOM      9  N   UNL     1       1.740   5.700  20.920  0.00  0.00    +0.000 NA
ENDROOT
BRANCH   1  16
ATOM     10  C   UNL     1       0.674  12.793  18.502  0.00  0.00    +0.000 C 
ATOM     11  N   UNL     1       0.587  11.772  19.521  0.00  0.00    +0.000 N 
ATOM     12  C   UNL     1       0.071  11.964  20.775  0.00  0.00    +0.000 A 
ATOM     13  C   UNL     1       0.199  10.782  21.469  0.00  0.00    +0.000 A 
ATOM     14  C   UNL     1       0.815   9.837  20.605  0.00  0.00    +0.000 A 
ATOM     15  C   UNL     1       1.213   8.493  20.759  0.00  0.00    +0.000 A 
ATOM     16  C   UNL     1       1.828   7.824  19.690  0.00  0.00    +0.000 A 
ATOM     17  C   UNL     1       2.020   8.482  18.470  0.00  0.00    +0.000 A 
ATOM     18  C   UNL     1       1.629   9.815  18.294  0.00  0.00    +0.000 A 
ATOM     19  C   UNL     1       1.037  10.474  19.381  0.00  0.00    +0.000 A 
ENDBRANCH   1  16
BRANCH   4  20
ATOM     20  C   UNL     1       5.232   4.221  17.230  0.00  0.00    +0.000 A 
ATOM     21  C   UNL     1       4.665   4.200  15.946  0.00  0.00    +0.000 A 
ATOM     22  C   UNL     1       5.433   4.466  14.811  0.00  0.00    +0.000 A 
ATOM     23  C   UNL     1       6.767   4.825  14.954  0.00  0.00    +0.000 A 
ATOM     24 CL   UNL     1       7.716   5.142  13.556  0.00  0.00    +0.000 Cl
ATOM     25  C   UNL     1       7.331   4.929  16.221  0.00  0.00    +0.000 A 
ATOM     26  C   UNL     1       6.568   4.626  17.355  0.00  0.00    +0.000 A 
ENDBRANCH   4  20
TORSDOF 2
ENDMDL
MODEL 2
REMARK VINA RESULT:      -8.3      0.633      1.469
REMARK  Name = 
REMARK  3 active torsions:
REMARK  status: ('A' for Active; 'I' for Inactive)
REMARK    1  A    between atoms: C_1  and  N_2
REMARK    2  A    between atoms: C_7  and  C_8
REMARK    3  A    between atoms: C_11  and  C_12
REMARK                            x       y       z     vdW  Elec       q    Type
REMARK                         _______ _______ _______ _____ _____    ______ ____
ROOT
ATOM      1  C   UNL     1       2.225   5.911  20.126  0.00  0.00    +0.000 A 
ATOM      2  C   UNL     1       3.082   5.503  19.175  0.00  0.00    +0.000 A 
ATOM      3  N   UNL     1       3.544   4.197  19.204  0.00  0.00    +0.000 N 
ATOM      4  C   UNL     1       4.447   3.482  18.428  0.00  0.00    +0.000 A 
ATOM      5  C   UNL     1       4.397   2.204  18.974  0.00  0.00    +0.000 A 
ATOM      6  N   UNL     1       3.556   2.128  20.057  0.00  0.00    +0.000 NA
ATOM      7  C   UNL     1       3.080   3.341  20.169  0.00  0.00    +0.000 A 
ATOM      8  C   UNL     1       2.141   3.844  21.138  0.00  0.00    +0.000 A 
ATOM      9  N   UNL     1       1.738   5.089  21.132  0.00  0.00    +0.000 NA
ENDROOT
BRANCH   1  16
ATOM     10  C   UNL     1      -0.093  12.177  20.646  0.00  0.00    +0.000 C 
ATOM     11  N   UNL     1       0.679  11.298  19.798  0.00  0.00    +0.000 N 
ATOM     12  C   UNL     1       1.189  11.642  18.574  0.00  0.00    +0.000 A 
ATOM     13  C   UNL     1       1.821  10.536  18.053  0.00  0.00    +0.000 A 
ATOM     14  C   UNL     1       1.689   9.479  18.994  0.00  0.00    +0.000 A 
ATOM     15  C   UNL     1       2.103   8.132  19.006  0.00  0.00    +0.000 A 
ATOM     16  C   UNL     1       1.793   7.320  20.109  0.00  0.00    +0.000 A 
ATOM     17  C   UNL     1       1.100   7.857  21.200  0.00  0.00    +0.000 A 
ATOM     18  C   UNL     1       0.683   9.193  21.210  0.00  0.00    +0.000 A 
ATOM     19  C   UNL     1       0.982   9.982  20.089  0.00  0.00    +0.000 A 
ENDBRANCH   1  16
BRANCH   4  20
ATOM     20  C   UNL     1       5.201   4.002  17.281  0.00  0.00    +0.000 A 
ATOM     21  C   UNL     1       4.655   4.006  15.988  0.00  0.00    +0.000 A 
ATOM     22  C   UNL     1       5.416   4.387  14.882  0.00  0.00    +0.000 A 
ATOM     23  C   UNL     1       6.717   4.838  15.067  0.00  0.00    +0.000 A 
ATOM     24 CL   UNL     1       7.657   5.299  13.703  0.00  0.00    +0.000 Cl
ATOM     25  C   UNL     1       7.254   4.918  16.347  0.00  0.00    +0.000 A 
ATOM     26  C   UNL     1       6.501   4.499  17.451  0.00  0.00    +0.000 A 
ENDBRANCH   4  20
TORSDOF 2
ENDMDL
MODEL 3
REMARK VINA RESULT:      -8.0      2.858      7.640
REMARK  Name = 
REMARK  3 active torsions:
REMARK  status: ('A' for Active; 'I' for Inactive)
REMARK    1  A    between atoms: C_1  and  N_2
REMARK    2  A    between atoms: C_7  and  C_8
REMARK    3  A    between atoms: C_11  and  C_12
REMARK                            x       y       z     vdW  Elec       q    Type
REMARK                         _______ _______ _______ _____ _____    ______ ____
ROOT
ATOM      1  C   UNL     1       4.674   4.178  17.780  0.00  0.00    +0.000 A 
ATOM      2  C   UNL     1       3.952   5.196  18.281  0.00  0.00    +0.000 A 
ATOM      3  N   UNL     1       3.147   4.966  19.385  0.00  0.00    +0.000 N 
ATOM      4  C   UNL     1       2.260   5.756  20.105  0.00  0.00    +0.000 A 
ATOM      5  C   UNL     1       1.836   4.912  21.126  0.00  0.00    +0.000 A 
ATOM      6  N   UNL     1       2.381   3.655  21.030  0.00  0.00    +0.000 NA
ATOM      7  C   UNL     1       3.144   3.726  19.970  0.00  0.00    +0.000 A 
ATOM      8  C   UNL     1       3.965   2.695  19.392  0.00  0.00    +0.000 A 
ATOM      9  N   UNL     1       4.693   2.903  18.325  0.00  0.00    +0.000 NA
ENDROOT
BRANCH   1  16
ATOM     10  C   UNL     1       8.640   5.852  12.645  0.00  0.00    +0.000 C 
ATOM     11  N   UNL     1       7.558   4.976  13.031  0.00  0.00    +0.000 N 
ATOM     12  C   UNL     1       6.915   4.111  12.185  0.00  0.00    +0.000 A 
ATOM     13  C   UNL     1       5.920   3.483  12.900  0.00  0.00    +0.000 A 
ATOM     14  C   UNL     1       5.959   3.986  14.229  0.00  0.00    +0.000 A 
ATOM     15  C   UNL     1       5.188   3.741  15.384  0.00  0.00    +0.000 A 
ATOM     16  C   UNL     1       5.477   4.432  16.570  0.00  0.00    +0.000 A 
ATOM     17  C   UNL     1       6.542   5.339  16.611  0.00  0.00    +0.000 A 
ATOM     18  C   UNL     1       7.322   5.594  15.477  0.00  0.00    +0.000 A 
ATOM     19  C   UNL     1       7.004   4.911  14.294  0.00  0.00    +0.000 A 
ENDBRANCH   1  16
BRANCH   4  20
ATOM     20  C   UNL     1       1.934   7.160  19.830  0.00  0.00    +0.000 A 
ATOM     21  C   UNL     1       1.357   7.982  20.810  0.00  0.00    +0.000 A 
ATOM     22  C   UNL     1       0.937   9.279  20.512  0.00  0.00    +0.000 A 
ATOM     23  C   UNL     1       1.154   9.795  19.240  0.00  0.00    +0.000 A 
ATOM     24 CL   UNL     1       0.628  11.390  18.870  0.00  0.00    +0.000 Cl
ATOM     25  C   UNL     1       1.795   9.027  18.274  0.00  0.00    +0.000 A 
ATOM     26  C   UNL     1       2.181   7.713  18.566  0.00  0.00    +0.000 A 
ENDBRANCH   4  20
TORSDOF 2
ENDMDL
MODEL 4
REMARK VINA RESULT:      -7.8      3.712      8.430
REMARK  Name = 
REMARK  3 active torsions:
REMARK  status: ('A' for Active; 'I' for Inactive)
REMARK    1  A    between atoms: C_1  and  N_2
REMARK    2  A    between atoms: C_7  and  C_8
REMARK    3  A    between atoms: C_11  and  C_12
REMARK                            x       y       z     vdW  Elec       q    Type
REMARK                         _______ _______ _______ _____ _____    ______ ____
ROOT
ATOM      1  C   UNL     1       0.889   9.185  20.115  0.00  0.00    +0.000 A 
ATOM      2  C   UNL     1      -0.064   9.586  19.256  0.00  0.00    +0.000 A 
ATOM      3  N   UNL     1      -0.891  10.639  19.616  0.00  0.00    +0.000 N 
ATOM      4  C   UNL     1      -1.975  11.256  19.008  0.00  0.00    +0.000 A 
ATOM      5  C   UNL     1      -2.296  12.282  19.891  0.00  0.00    +0.000 A 
ATOM      6  N   UNL     1      -1.499  12.282  21.009  0.00  0.00    +0.000 NA
ATOM      7  C   UNL     1      -0.685  11.277  20.812  0.00  0.00    +0.000 A 
ATOM      8  C   UNL     1       0.375  10.808  21.666  0.00  0.00    +0.000 A 
ATOM      9  N   UNL     1       1.127   9.788  21.342  0.00  0.00    +0.000 NA
ENDROOT
BRANCH   1  16
ATOM     10  C   UNL     1       4.490   3.639  19.027  0.00  0.00    +0.000 C 
ATOM     11  N   UNL     1       4.137   4.918  18.455  0.00  0.00    +0.000 N 
ATOM     12  C   UNL     1       4.640   5.413  17.281  0.00  0.00    +0.000 A 
ATOM     13  C   UNL     1       4.107   6.667  17.088  0.00  0.00    +0.000 A 
ATOM     14  C   UNL     1       3.248   6.946  18.186  0.00  0.00    +0.000 A 
ATOM     15  C   UNL     1       2.458   8.057  18.545  0.00  0.00    +0.000 A 
ATOM     16  C   UNL     1       1.717   8.026  19.736  0.00  0.00    +0.000 A 
ATOM     17  C   UNL     1       1.743   6.886  20.547  0.00  0.00    +0.000 A 
ATOM     18  C   UNL     1       2.517   5.770  20.207  0.00  0.00    +0.000 A 
ATOM     19  C   UNL     1       3.269   5.828  19.025  0.00  0.00    +0.000 A 
ENDBRANCH   1  16
BRANCH   4  20
ATOM     20  C   UNL     1      -2.560  10.894  17.712  0.00  0.00    +0.000 A 
ATOM     21  C   UNL     1      -1.941   9.960  16.866  0.00  0.00    +0.000 A 
ATOM     22  C   UNL     1      -2.432   9.706  15.584  0.00  0.00    +0.000 A 
ATOM     23  C   UNL     1      -3.594  10.337  15.158  0.00  0.00    +0.000 A 
ATOM     24 CL   UNL     1      -4.194  10.031  13.576  0.00  0.00    +0.000 Cl
ATOM     25  C   UNL     1      -4.270  11.207  16.007  0.00  0.00    +0.000 A 
ATOM     26  C   UNL     1      -3.754  11.487  17.278  0.00  0.00    +0.000 A 
ENDBRANCH   4  20
TORSDOF 2
ENDMDL
MODEL 5
REMARK VINA RESULT:      -7.7      3.567      8.339
REMARK  Name = 
REMARK  3 active torsions:
REMARK  status: ('A' for Active; 'I' for Inactive)
REMARK    1  A    between atoms: C_1  and  N_2
REMARK    2  A    between atoms: C_7  and  C_8
REMARK    3  A    between atoms: C_11  and  C_12
REMARK                            x       y       z     vdW  Elec       q    Type
REMARK                         _______ _______ _______ _____ _____    ______ ____
ROOT
ATOM      1  C   UNL     1       0.969   8.876  20.427  0.00  0.00    +0.000 A 
ATOM      2  C   UNL     1       0.056   9.353  19.564  0.00  0.00    +0.000 A 
ATOM      3  N   UNL     1      -0.635  10.510  19.891  0.00  0.00    +0.000 N 
ATOM      4  C   UNL     1      -1.649  11.228  19.272  0.00  0.00    +0.000 A 
ATOM      5  C   UNL     1      -1.832  12.317  20.117  0.00  0.00    +0.000 A 
ATOM      6  N   UNL     1      -1.021  12.266  21.224  0.00  0.00    +0.000 NA
ATOM      7  C   UNL     1      -0.335  11.165  21.058  0.00  0.00    +0.000 A 
ATOM      8  C   UNL     1       0.676  10.606  21.917  0.00  0.00    +0.000 A 
ATOM      9  N   UNL     1       1.297   9.492  21.625  0.00  0.00    +0.000 NA
ENDROOT
BRANCH   1  16
ATOM     10  C   UNL     1       4.239   3.443  18.257  0.00  0.00    +0.000 C 
ATOM     11  N   UNL     1       3.422   3.945  19.338  0.00  0.00    +0.000 N 
ATOM     12  C   UNL     1       2.991   3.197  20.402  0.00  0.00    +0.000 A 
ATOM     13  C   UNL     1       2.205   4.004  21.194  0.00  0.00    +0.000 A 
ATOM     14  C   UNL     1       2.156   5.289  20.589  0.00  0.00    +0.000 A 
ATOM     15  C   UNL     1       1.505   6.495  20.920  0.00  0.00    +0.000 A 
ATOM     16  C   UNL     1       1.648   7.613  20.084  0.00  0.00    +0.000 A 
ATOM     17  C   UNL     1       2.453   7.535  18.942  0.00  0.00    +0.000 A 
ATOM     18  C   UNL     1       3.112   6.348  18.597  0.00  0.00    +0.000 A 
ATOM     19  C   UNL     1       2.939   5.235  19.433  0.00  0.00    +0.000 A 
ENDBRANCH   1  16
BRANCH   4  20
ATOM     20  C   UNL     1      -2.294  10.888  17.998  0.00  0.00    +0.000 A 
ATOM     21  C   UNL     1      -1.737   9.939  17.128  0.00  0.00    +0.000 A 
ATOM     22  C   UNL     1      -2.285   9.704  15.865  0.00  0.00    +0.000 A 
ATOM     23  C   UNL     1      -3.442  10.372  15.485  0.00  0.00    +0.000 A 
ATOM     24 CL   UNL     1      -4.111  10.090  13.927  0.00  0.00    +0.000 Cl
ATOM     25  C   UNL     1      -4.058  11.259  16.362  0.00  0.00    +0.000 A 
ATOM     26  C   UNL     1      -3.484  11.519  17.613  0.00  0.00    +0.000 A 
ENDBRANCH   4  20
TORSDOF 2
ENDMDL
MODEL 6
REMARK VINA RESULT:      -7.7      3.715      8.334
REMARK  Name = 
REMARK  3 active torsions:
REMARK  status: ('A' for Active; 'I' for Inactive)
REMARK    1  A    between atoms: C_1  and  N_2
REMARK    2  A    between atoms: C_7  and  C_8
REMARK    3  A    between atoms: C_11  and  C_12
REMARK                            x       y       z     vdW  Elec       q    Type
REMARK                         _______ _______ _______ _____ _____    ______ ____
ROOT
ATOM      1  C   UNL     1       1.112   9.162  19.775  0.00  0.00    +0.000 A 
ATOM      2  C   UNL     1       0.102   9.563  18.984  0.00  0.00    +0.000 A 
ATOM      3  N   UNL     1      -0.760  10.544  19.445  0.00  0.00    +0.000 N 
ATOM      4  C   UNL     1      -1.902  11.139  18.923  0.00  0.00    +0.000 A 
ATOM      5  C   UNL     1      -2.235  12.088  19.883  0.00  0.00    +0.000 A 
ATOM      6  N   UNL     1      -1.390  12.061  20.965  0.00  0.00    +0.000 NA
ATOM      7  C   UNL     1      -0.535  11.117  20.670  0.00  0.00    +0.000 A 
ATOM      8  C   UNL     1       0.584  10.653  21.447  0.00  0.00    +0.000 A 
ATOM      9  N   UNL     1       1.373   9.698  21.027  0.00  0.00    +0.000 NA
ENDROOT
BRANCH   1  16
ATOM     10  C   UNL     1       5.139   4.602  16.963  0.00  0.00    +0.000 C 
ATOM     11  N   UNL     1       4.331   4.866  18.132  0.00  0.00    +0.000 N 
ATOM     12  C   UNL     1       4.128   3.980  19.157  0.00  0.00    +0.000 A 
ATOM     13  C   UNL     1       3.273   4.568  20.061  0.00  0.00    +0.000 A 
ATOM     14  C   UNL     1       2.943   5.859  19.567  0.00  0.00    +0.000 A 
ATOM     15  C   UNL     1       2.111   6.896  20.037  0.00  0.00    +0.000 A 
ATOM     16  C   UNL     1       1.981   8.075  19.287  0.00  0.00    +0.000 A 
ATOM     17  C   UNL     1       2.695   8.228  18.094  0.00  0.00    +0.000 A 
ATOM     18  C   UNL     1       3.530   7.213  17.611  0.00  0.00    +0.000 A 
ATOM     19  C   UNL     1       3.630   6.033  18.362  0.00  0.00    +0.000 A 
ENDBRANCH   1  16
BRANCH   4  20
ATOM     20  C   UNL     1      -2.524  10.828  17.631  0.00  0.00    +0.000 A 
ATOM     21  C   UNL     1      -1.961   9.885  16.757  0.00  0.00    +0.000 A 
ATOM     22  C   UNL     1      -2.484   9.678  15.480  0.00  0.00    +0.000 A 
ATOM     23  C   UNL     1      -3.625  10.365  15.086  0.00  0.00    +0.000 A 
ATOM     24 CL   UNL     1      -4.264  10.117  13.510  0.00  0.00    +0.000 Cl
ATOM     25  C   UNL     1      -4.248  11.247  15.964  0.00  0.00    +0.000 A 
ATOM     26  C   UNL     1      -3.698  11.480  17.230  0.00  0.00    +0.000 A 
ENDBRANCH   4  20
TORSDOF 2
ENDMDL
MODEL 7
REMARK VINA RESULT:      -7.7      3.476      8.293
REMARK  Name = 
REMARK  3 active torsions:
REMARK  status: ('A' for Active; 'I' for Inactive)
REMARK    1  A    between atoms: C_1  and  N_2
REMARK    2  A    between atoms: C_7  and  C_8
REMARK    3  A    between atoms: C_11  and  C_12
REMARK                            x       y       z     vdW  Elec       q    Type
REMARK                         _______ _______ _______ _____ _____    ______ ____
ROOT
ATOM      1  C   UNL     1       1.161   8.445  20.648  0.00  0.00    +0.000 A 
ATOM      2  C   UNL     1       0.283   9.066  19.841  0.00  0.00    +0.000 A 
ATOM      3  N   UNL     1      -0.387  10.183  20.313  0.00  0.00    +0.000 N 
ATOM      4  C   UNL     1      -1.365  11.010  19.778  0.00  0.00    +0.000 A 
ATOM      5  C   UNL     1      -1.545  11.973  20.765  0.00  0.00    +0.000 A 
ATOM      6  N   UNL     1      -0.767  11.742  21.873  0.00  0.00    +0.000 NA
ATOM      7  C   UNL     1      -0.104  10.657  21.568  0.00  0.00    +0.000 A 
ATOM      8  C   UNL     1       0.868   9.953  22.363  0.00  0.00    +0.000 A 
ATOM      9  N   UNL     1       1.470   8.875  21.930  0.00  0.00    +0.000 NA
ENDROOT
BRANCH   1  16
ATOM     10  C   UNL     1       3.923   2.577  18.959  0.00  0.00    +0.000 C 
ATOM     11  N   UNL     1       3.785   3.953  18.538  0.00  0.00    +0.000 N 
ATOM     12  C   UNL     1       4.394   4.498  17.439  0.00  0.00    +0.000 A 
ATOM     13  C   UNL     1       4.062   5.833  17.390  0.00  0.00    +0.000 A 
ATOM     14  C   UNL     1       3.219   6.109  18.500  0.00  0.00    +0.000 A 
ATOM     15  C   UNL     1       2.593   7.279  18.978  0.00  0.00    +0.000 A 
ATOM     16  C   UNL     1       1.817   7.224  20.145  0.00  0.00    +0.000 A 
ATOM     17  C   UNL     1       1.645   6.007  20.815  0.00  0.00    +0.000 A 
ATOM     18  C   UNL     1       2.254   4.833  20.356  0.00  0.00    +0.000 A 
ATOM     19  C   UNL     1       3.044   4.913  19.200  0.00  0.00    +0.000 A 
ENDBRANCH   1  16
BRANCH   4  20
ATOM     20  C   UNL     1      -1.983  10.873  18.453  0.00  0.00    +0.000 A 
ATOM     21  C   UNL     1      -3.167  11.552  18.125  0.00  0.00    +0.000 A 
ATOM     22  C   UNL     1      -3.817  11.328  16.911  0.00  0.00    +0.000 A 
ATOM     23  C   UNL     1      -3.251  10.470  15.978  0.00  0.00    +0.000 A 
ATOM     24 CL   UNL     1      -4.057  10.187  14.486  0.00  0.00    +0.000 Cl
ATOM     25  C   UNL     1      -2.037   9.845  16.247  0.00  0.00    +0.000 A 
ATOM     26  C   UNL     1      -1.407  10.044  17.482  0.00  0.00    +0.000 A 
ENDBRANCH   4  20
TORSDOF 2
ENDMDL
MODEL 8
REMARK VINA RESULT:      -7.7      3.471      8.267
REMARK  Name = 
REMARK  3 active torsions:
REMARK  status: ('A' for Active; 'I' for Inactive)
REMARK    1  A    between atoms: C_1  and  N_2
REMARK    2  A    between atoms: C_7  and  C_8
REMARK    3  A    between atoms: C_11  and  C_12
REMARK                            x       y       z     vdW  Elec       q    Type
REMARK                         _______ _______ _______ _____ _____    ______ ____
ROOT
ATOM      1  C   UNL     1       1.134   8.519  20.679  0.00  0.00    +0.000 A 
ATOM      2  C   UNL     1       0.259   9.128  19.860  0.00  0.00    +0.000 A 
ATOM      3  N   UNL     1      -0.408  10.255  20.312  0.00  0.00    +0.000 N 
ATOM      4  C   UNL     1      -1.384  11.075  19.761  0.00  0.00    +0.000 A 
ATOM      5  C   UNL     1      -1.562  12.056  20.730  0.00  0.00    +0.000 A 
ATOM      6  N   UNL     1      -0.786  11.843  21.843  0.00  0.00    +0.000 NA
ATOM      7  C   UNL     1      -0.125  10.751  21.558  0.00  0.00    +0.000 A 
ATOM      8  C   UNL     1       0.845  10.059  22.366  0.00  0.00    +0.000 A 
ATOM      9  N   UNL     1       1.444   8.972  21.954  0.00  0.00    +0.000 NA
ENDROOT
BRANCH   1  16
ATOM     10  C   UNL     1       4.266   3.284  17.906  0.00  0.00    +0.000 C 
ATOM     11  N   UNL     1       3.501   3.693  19.062  0.00  0.00    +0.000 N 
ATOM     12  C   UNL     1       3.112   2.858  20.076  0.00  0.00    +0.000 A 
ATOM     13  C   UNL     1       2.368   3.595  20.969  0.00  0.00    +0.000 A 
ATOM     14  C   UNL     1       2.302   4.928  20.479  0.00  0.00    +0.000 A 
ATOM     15  C   UNL     1       1.675   6.103  20.942  0.00  0.00    +0.000 A 
ATOM     16  C   UNL     1       1.788   7.288  20.199  0.00  0.00    +0.000 A 
ATOM     17  C   UNL     1       2.541   7.306  19.020  0.00  0.00    +0.000 A 
ATOM     18  C   UNL     1       3.176   6.152  18.545  0.00  0.00    +0.000 A 
ATOM     19  C   UNL     1       3.032   4.972  19.289  0.00  0.00    +0.000 A 
ENDBRANCH   1  16
BRANCH   4  20
ATOM     20  C   UNL     1      -2.001  10.916  18.439  0.00  0.00    +0.000 A 
ATOM     21  C   UNL     1      -3.180  11.596  18.096  0.00  0.00    +0.000 A 
ATOM     22  C   UNL     1      -3.831  11.352  16.885  0.00  0.00    +0.000 A 
ATOM     23  C   UNL     1      -3.269  10.471  15.970  0.00  0.00    +0.000 A 
ATOM     24 CL   UNL     1      -4.075  10.164  14.483  0.00  0.00    +0.000 Cl
ATOM     25  C   UNL     1      -2.060   9.845  16.253  0.00  0.00    +0.000 A 
ATOM     26  C   UNL     1      -1.429  10.064  17.485  0.00  0.00    +0.000 A 
ENDBRANCH   4  20
TORSDOF 2
ENDMDL
MODEL 9
REMARK VINA RESULT:      -7.4      3.102      8.411
REMARK  Name = 
REMARK  3 active torsions:
REMARK  status: ('A' for Active; 'I' for Inactive)
REMARK    1  A    between atoms: C_1  and  N_2
REMARK    2  A    between atoms: C_7  and  C_8
REMARK    3  A    between atoms: C_11  and  C_12
REMARK                            x       y       z     vdW  Elec       q    Type
REMARK                         _______ _______ _______ _____ _____    ______ ____
ROOT
ATOM      1  C   UNL     1       0.779   9.016  21.134  0.00  0.00    +0.000 A 
ATOM      2  C   UNL     1       0.984  10.301  20.797  0.00  0.00    +0.000 A 
ATOM      3  N   UNL     1       0.295  11.291  21.480  0.00  0.00    +0.000 N 
ATOM      4  C   UNL     1       0.234  12.673  21.360  0.00  0.00    +0.000 A 
ATOM      5  C   UNL     1      -0.608  13.047  22.401  0.00  0.00    +0.000 A 
ATOM      6  N   UNL     1      -1.088  11.969  23.103  0.00  0.00    +0.000 NA
ATOM      7  C   UNL     1      -0.538  10.941  22.512  0.00  0.00    +0.000 A 
ATOM      8  C   UNL     1      -0.684   9.545  22.831  0.00  0.00    +0.000 A 
ATOM      9  N   UNL     1      -0.063   8.610  22.159  0.00  0.00    +0.000 NA
ENDROOT
BRANCH   1  16
ATOM     10  C   UNL     1       3.985   4.770  17.058  0.00  0.00    +0.000 C 
ATOM     11  N   UNL     1       3.370   4.879  18.361  0.00  0.00    +0.000 N 
ATOM     12  C   UNL     1       3.236   3.844  19.249  0.00  0.00    +0.000 A 
ATOM     13  C   UNL     1       2.565   4.320  20.354  0.00  0.00    +0.000 A 
ATOM     14  C   UNL     1       2.280   5.694  20.128  0.00  0.00    +0.000 A 
ATOM     15  C   UNL     1       1.611   6.683  20.877  0.00  0.00    +0.000 A 
ATOM     16  C   UNL     1       1.478   7.978  20.355  0.00  0.00    +0.000 A 
ATOM     17  C   UNL     1       2.032   8.290  19.108  0.00  0.00    +0.000 A 
ATOM     18  C   UNL     1       2.705   7.324  18.350  0.00  0.00    +0.000 A 
ATOM     19  C   UNL     1       2.807   6.029  18.878  0.00  0.00    +0.000 A 
ENDBRANCH   1  16
BRANCH   4  20
ATOM     20  C   UNL     1       0.956  13.487  20.375  0.00  0.00    +0.000 A 
ATOM     21  C   UNL     1       2.359  13.508  20.334  0.00  0.00    +0.000 A 
ATOM     22  C   UNL     1       3.045  14.373  19.480  0.00  0.00    +0.000 A 
ATOM     23  C   UNL     1       2.332  15.181  18.604  0.00  0.00    +0.000 A 
ATOM     24 CL   UNL     1       3.176  16.253  17.558  0.00  0.00    +0.000 Cl
ATOM     25  C   UNL     1       0.942  15.120  18.571  0.00  0.00    +0.000 A 
ATOM     26  C   UNL     1       0.257  14.279  19.455  0.00  0.00    +0.000 A 
ENDBRANCH   4  20
TORSDOF 2
ENDMDL
