MODEL 1
REMARK VINA RESULT:      -8.2      0.000      0.000
REMARK  Name = 
REMARK  8 active torsions:
REMARK  status: ('A' for Active; 'I' for Inactive)
REMARK    1  A    between atoms: C_1  and  C_2
REMARK    2  A    between atoms: C_2  and  C_3
REMARK    3  A    between atoms: C_3  and  C_4
REMARK    4  A    between atoms: C_4  and  O_5
REMARK    5  A    between atoms: O_5  and  C_6
REMARK    6  A    between atoms: N_14  and  C_15
REMARK    7  A    between atoms: C_19  and  O_20
REMARK    8  A    between atoms: O_20  and  C_21
REMARK                            x       y       z     vdW  Elec       q    Type
REMARK                         _______ _______ _______ _____ _____    ______ ____
ROOT
ATOM      1  C   UNL     1       4.630   4.904  16.659  0.00  0.00    +0.000 A 
ATOM      2  C   UNL     1       4.460   3.556  16.896  0.00  0.00    +0.000 A 
ATOM      3  C   UNL     1       3.710   3.187  18.008  0.00  0.00    +0.000 A 
ATOM      4  C   UNL     1       3.125   4.144  18.827  0.00  0.00    +0.000 A 
ATOM      5  N   UNL     1       2.420   3.763  19.899  0.00  0.00    +0.000 NA
ATOM      6  N   UNL     1       1.869   4.668  20.652  0.00  0.00    +0.000 NA
ATOM      7  N   UNL     1       1.932   5.938  20.367  0.00  0.00    +0.000 NA
ATOM      8  C   UNL     1       2.615   6.360  19.281  0.00  0.00    +0.000 A 
ATOM      9  N   UNL     1       2.573   7.726  18.897  0.00  0.00    +0.000 N 
ATOM     10  C   UNL     1       3.300   5.472  18.465  0.00  0.00    +0.000 A 
ATOM     11  N   UNL     1       4.054   5.867  17.401  0.00  0.00    +0.000 NA
ATOM     12  H   UNL     1       3.361   7.991  18.311  0.00  0.00    +0.000 HD
ENDROOT
BRANCH   9  13
ATOM     13  C   UNL     1       1.638   8.719  19.220  0.00  0.00    +0.000 A 
ATOM     14  C   UNL     1       0.854   9.354  18.248  0.00  0.00    +0.000 A 
ATOM     15  C   UNL     1      -0.126  10.283  18.597  0.00  0.00    +0.000 A 
ATOM     16  C   UNL     1      -0.292  10.639  19.929  0.00  0.00    +0.000 A 
ATOM     17  C   UNL     1       0.530  10.082  20.909  0.00  0.00    +0.000 A 
ATOM     18  C   UNL     1       1.445   9.082  20.560  0.00  0.00    +0.000 A 
BRANCH  17  19
ATOM     19  O   UNL     1       0.312  10.530  22.177  0.00  0.00    +0.000 OA
BRANCH  19  20
ATOM     20  C   UNL     1      -0.496   9.732  23.035  0.00  0.00    +0.000 C 
ATOM     21  F   UNL     1      -0.952   8.590  22.478  0.00  0.00    +0.000 F 
ATOM     22  F   UNL     1       0.224   9.399  24.130  0.00  0.00    +0.000 F 
ATOM     23  F   UNL     1      -1.558  10.464  23.437  0.00  0.00    +0.000 F 
ENDBRANCH  19  20
ENDBRANCH  17  19
ENDBRANCH   9  13
BRANCH   1  24
ATOM     24  O   UNL     1       5.425   5.260  15.588  0.00  0.00    +0.000 OA
BRANCH  24  25
ATOM     25  C   UNL     1       5.739   4.124  14.777  0.00  0.00    +0.000 C 
BRANCH  25  26
ATOM     26  C   UNL     1       6.707   4.559  13.684  0.00  0.00    +0.000 C 
BRANCH  26  28
ATOM     27  C   UNL     1       5.121   3.290  12.193  0.00  0.00    +0.000 C 
ATOM     28  C   UNL     1       6.570   3.667  12.454  0.00  0.00    +0.000 C 
ENDBRANCH  26  28
ENDBRANCH  25  26
ENDBRANCH  24  25
ENDBRANCH   1  24
TORSDOF 7
ENDMDL
MODEL 2
REMARK VINA RESULT:      -8.1      3.205      4.123
REMARK  Name = 
REMARK  8 active torsions:
REMARK  status: ('A' for Active; 'I' for Inactive)
REMARK    1  A    between atoms: C_1  and  C_2
REMARK    2  A    between atoms: C_2  and  C_3
REMARK    3  A    between atoms: C_3  and  C_4
REMARK    4  A    between atoms: C_4  and  O_5
REMARK    5  A    between atoms: O_5  and  C_6
REMARK    6  A    between atoms: N_14  and  C_15
REMARK    7  A    between atoms: C_19  and  O_20
REMARK    8  A    between atoms: O_20  and  C_21
REMARK                            x       y       z     vdW  Elec       q    Type
REMARK                         _______ _______ _______ _____ _____    ______ ____
ROOT
ATOM      1  C   UNL     1       5.941   5.964  16.732  0.00  0.00    +0.000 A 
ATOM      2  C   UNL     1       5.799   4.798  16.012  0.00  0.00    +0.000 A 
ATOM      3  C   UNL     1       4.684   4.008  16.278  0.00  0.00    +0.000 A 
ATOM      4  C   UNL     1       3.732   4.403  17.207  0.00  0.00    +0.000 A 
ATOM      5  N   UNL     1       2.676   3.619  17.455  0.00  0.00    +0.000 NA
ATOM      6  N   UNL     1       1.786   4.005  18.321  0.00  0.00    +0.000 NA
ATOM      7  N   UNL     1       1.858   5.160  18.918  0.00  0.00    +0.000 NA
ATOM      8  C   UNL     1       2.897   5.989  18.678  0.00  0.00    +0.000 A 
ATOM      9  N   UNL     1       2.907   7.300  19.225  0.00  0.00    +0.000 N 
ATOM     10  C   UNL     1       3.932   5.627  17.830  0.00  0.00    +0.000 A 
ATOM     11  N   UNL     1       5.028   6.409  17.615  0.00  0.00    +0.000 NA
ATOM     12  H   UNL     1       3.844   7.693  19.278  0.00  0.00    +0.000 HD
ENDROOT
BRANCH   9  13
ATOM     13  C   UNL     1       1.844   8.081  19.699  0.00  0.00    +0.000 A 
ATOM     14  C   UNL     1       1.290   7.898  20.972  0.00  0.00    +0.000 A 
ATOM     15  C   UNL     1       0.286   8.736  21.457  0.00  0.00    +0.000 A 
ATOM     16  C   UNL     1      -0.224   9.738  20.642  0.00  0.00    +0.000 A 
ATOM     17  C   UNL     1       0.253   9.892  19.340  0.00  0.00    +0.000 A 
ATOM     18  C   UNL     1       1.324   9.108  18.898  0.00  0.00    +0.000 A 
BRANCH  17  19
ATOM     19  O   UNL     1      -0.344  10.876  18.612  0.00  0.00    +0.000 OA
BRANCH  19  20
ATOM     20  C   UNL     1      -1.454  10.521  17.796  0.00  0.00    +0.000 C 
ATOM     21  F   UNL     1      -1.211   9.527  16.915  0.00  0.00    +0.000 F 
ATOM     22  F   UNL     1      -2.475  10.128  18.591  0.00  0.00    +0.000 F 
ATOM     23  F   UNL     1      -1.854  11.612  17.107  0.00  0.00    +0.000 F 
ENDBRANCH  19  20
ENDBRANCH  17  19
ENDBRANCH   9  13
BRANCH   1  24
ATOM     24  O   UNL     1       7.080   6.711  16.504  0.00  0.00    +0.000 OA
BRANCH  24  25
ATOM     25  C   UNL     1       7.628   7.205  17.728  0.00  0.00    +0.000 C 
BRANCH  25  26
ATOM     26  C   UNL     1       7.793   8.715  17.614  0.00  0.00    +0.000 C 
BRANCH  26  28
ATOM     27  C   UNL     1       9.259  10.630  18.341  0.00  0.00    +0.000 C 
ATOM     28  C   UNL     1       8.759   9.235  18.674  0.00  0.00    +0.000 C 
ENDBRANCH  26  28
ENDBRANCH  25  26
ENDBRANCH  24  25
ENDBRANCH   1  24
TORSDOF 7
ENDMDL
MODEL 3
REMARK VINA RESULT:      -8.0      1.390      2.198
REMARK  Name = 
REMARK  8 active torsions:
REMARK  status: ('A' for Active; 'I' for Inactive)
REMARK    1  A    between atoms: C_1  and  C_2
REMARK    2  A    between atoms: C_2  and  C_3
REMARK    3  A    between atoms: C_3  and  C_4
REMARK    4  A    between atoms: C_4  and  O_5
REMARK    5  A    between atoms: O_5  and  C_6
REMARK    6  A    between atoms: N_14  and  C_15
REMARK    7  A    between atoms: C_19  and  O_20
REMARK    8  A    between atoms: O_20  and  C_21
REMARK                            x       y       z     vdW  Elec       q    Type
REMARK                         _______ _______ _______ _____ _____    ______ ____
ROOT
ATOM      1  C   UNL     1       4.375   4.495  16.811  0.00  0.00    +0.000 A 
ATOM      2  C   UNL     1       4.157   3.169  17.119  0.00  0.00    +0.000 A 
ATOM      3  C   UNL     1       3.435   2.886  18.274  0.00  0.00    +0.000 A 
ATOM      4  C   UNL     1       2.922   3.904  19.065  0.00  0.00    +0.000 A 
ATOM      5  N   UNL     1       2.242   3.605  20.179  0.00  0.00    +0.000 NA
ATOM      6  N   UNL     1       1.758   4.567  20.906  0.00  0.00    +0.000 NA
ATOM      7  N   UNL     1       1.863   5.819  20.557  0.00  0.00    +0.000 NA
ATOM      8  C   UNL     1       2.522   6.159  19.429  0.00  0.00    +0.000 A 
ATOM      9  N   UNL     1       2.522   7.506  18.980  0.00  0.00    +0.000 N 
ATOM     10  C   UNL     1       3.138   5.205  18.633  0.00  0.00    +0.000 A 
ATOM     11  N   UNL     1       3.867   5.517  17.525  0.00  0.00    +0.000 NA
ATOM     12  H   UNL     1       3.298   7.709  18.354  0.00  0.00    +0.000 HD
ENDROOT
BRANCH   9  13
ATOM     13  C   UNL     1       1.642   8.553  19.287  0.00  0.00    +0.000 A 
ATOM     14  C   UNL     1       0.887   9.209  18.307  0.00  0.00    +0.000 A 
ATOM     15  C   UNL     1      -0.041  10.195  18.640  0.00  0.00    +0.000 A 
ATOM     16  C   UNL     1      -0.182  10.585  19.966  0.00  0.00    +0.000 A 
ATOM     17  C   UNL     1       0.615  10.005  20.954  0.00  0.00    +0.000 A 
ATOM     18  C   UNL     1       1.475   8.952  20.621  0.00  0.00    +0.000 A 
BRANCH  17  19
ATOM     19  O   UNL     1       0.427  10.488  22.213  0.00  0.00    +0.000 OA
BRANCH  19  20
ATOM     20  C   UNL     1      -0.465   9.784  23.071  0.00  0.00    +0.000 C 
ATOM     21  F   UNL     1      -1.534  10.498  23.481  0.00  0.00    +0.000 F 
ATOM     22  F   UNL     1      -0.922   8.689  22.422  0.00  0.00    +0.000 F 
ATOM     23  F   UNL     1       0.217   9.371  24.162  0.00  0.00    +0.000 F 
ENDBRANCH  19  20
ENDBRANCH  17  19
ENDBRANCH   9  13
BRANCH   1  24
ATOM     24  O   UNL     1       5.143   4.765  15.696  0.00  0.00    +0.000 OA
BRANCH  24  25
ATOM     25  C   UNL     1       6.084   5.810  15.957  0.00  0.00    +0.000 C 
BRANCH  25  26
ATOM     26  C   UNL     1       7.191   5.257  16.846  0.00  0.00    +0.000 C 
BRANCH  26  28
ATOM     27  C   UNL     1       7.150   5.599  19.342  0.00  0.00    +0.000 C 
ATOM     28  C   UNL     1       7.490   6.215  17.995  0.00  0.00    +0.000 C 
ENDBRANCH  26  28
ENDBRANCH  25  26
ENDBRANCH  24  25
ENDBRANCH   1  24
TORSDOF 7
ENDMDL
MODEL 4
REMARK VINA RESULT:      -7.9      2.646      3.652
REMARK  Name = 
REMARK  8 active torsions:
REMARK  status: ('A' for Active; 'I' for Inactive)
REMARK    1  A    between atoms: C_1  and  C_2
REMARK    2  A    between atoms: C_2  and  C_3
REMARK    3  A    between atoms: C_3  and  C_4
REMARK    4  A    between atoms: C_4  and  O_5
REMARK    5  A    between atoms: O_5  and  C_6
REMARK    6  A    between atoms: N_14  and  C_15
REMARK    7  A    between atoms: C_19  and  O_20
REMARK    8  A    between atoms: O_20  and  C_21
REMARK                            x       y       z     vdW  Elec       q    Type
REMARK                         _______ _______ _______ _____ _____    ______ ____
ROOT
ATOM      1  C   UNL     1       4.696   5.451  17.039  0.00  0.00    +0.000 A 
ATOM      2  C   UNL     1       4.565   4.079  17.087  0.00  0.00    +0.000 A 
ATOM      3  C   UNL     1       3.726   3.545  18.059  0.00  0.00    +0.000 A 
ATOM      4  C   UNL     1       3.018   4.368  18.924  0.00  0.00    +0.000 A 
ATOM      5  N   UNL     1       2.228   3.829  19.861  0.00  0.00    +0.000 NA
ATOM      6  N   UNL     1       1.562   4.610  20.658  0.00  0.00    +0.000 NA
ATOM      7  N   UNL     1       1.594   5.907  20.541  0.00  0.00    +0.000 NA
ATOM      8  C   UNL     1       2.361   6.489  19.595  0.00  0.00    +0.000 A 
ATOM      9  N   UNL     1       2.294   7.891  19.381  0.00  0.00    +0.000 N 
ATOM     10  C   UNL     1       3.166   5.737  18.751  0.00  0.00    +0.000 A 
ATOM     11  N   UNL     1       4.003   6.291  17.830  0.00  0.00    +0.000 NA
ATOM     12  H   UNL     1       3.124   8.255  18.919  0.00  0.00    +0.000 HD
ENDROOT
BRANCH   9  13
ATOM     13  C   UNL     1       1.286   8.802  19.725  0.00  0.00    +0.000 A 
ATOM     14  C   UNL     1       0.923   9.051  21.054  0.00  0.00    +0.000 A 
ATOM     15  C   UNL     1      -0.027  10.018  21.381  0.00  0.00    +0.000 A 
ATOM     16  C   UNL     1      -0.677  10.711  20.369  0.00  0.00    +0.000 A 
ATOM     17  C   UNL     1      -0.394  10.427  19.032  0.00  0.00    +0.000 A 
ATOM     18  C   UNL     1       0.627   9.523  18.718  0.00  0.00    +0.000 A 
BRANCH  17  19
ATOM     19  O   UNL     1      -1.117  11.133  18.119  0.00  0.00    +0.000 OA
BRANCH  19  20
ATOM     20  C   UNL     1      -2.162  10.456  17.430  0.00  0.00    +0.000 C 
ATOM     21  F   UNL     1      -2.889   9.615  18.196  0.00  0.00    +0.000 F 
ATOM     22  F   UNL     1      -3.006  11.373  16.906  0.00  0.00    +0.000 F 
ATOM     23  F   UNL     1      -1.625   9.749  16.412  0.00  0.00    +0.000 F 
ENDBRANCH  19  20
ENDBRANCH  17  19
ENDBRANCH   9  13
BRANCH   1  24
ATOM     24  O   UNL     1       5.576   5.968  16.110  0.00  0.00    +0.000 OA
BRANCH  24  25
ATOM     25  C   UNL     1       6.927   5.874  16.569  0.00  0.00    +0.000 C 
BRANCH  25  26
ATOM     26  C   UNL     1       7.307   7.191  17.236  0.00  0.00    +0.000 C 
BRANCH  26  28
ATOM     27  C   UNL     1       7.587   5.665  19.220  0.00  0.00    +0.000 C 
ATOM     28  C   UNL     1       8.057   6.939  18.540  0.00  0.00    +0.000 C 
ENDBRANCH  26  28
ENDBRANCH  25  26
ENDBRANCH  24  25
ENDBRANCH   1  24
TORSDOF 7
ENDMDL
MODEL 5
REMARK VINA RESULT:      -7.9      2.184      3.069
REMARK  Name = 
REMARK  8 active torsions:
REMARK  status: ('A' for Active; 'I' for Inactive)
REMARK    1  A    between atoms: C_1  and  C_2
REMARK    2  A    between atoms: C_2  and  C_3
REMARK    3  A    between atoms: C_3  and  C_4
REMARK    4  A    between atoms: C_4  and  O_5
REMARK    5  A    between atoms: O_5  and  C_6
REMARK    6  A    between atoms: N_14  and  C_15
REMARK    7  A    between atoms: C_19  and  O_20
REMARK    8  A    between atoms: O_20  and  C_21
REMARK                            x       y       z     vdW  Elec       q    Type
REMARK                         _______ _______ _______ _____ _____    ______ ____
ROOT
ATOM      1  C   UNL     1       4.211   4.899  17.065  0.00  0.00    +0.000 A 
ATOM      2  C   UNL     1       3.855   3.572  16.950  0.00  0.00    +0.000 A 
ATOM      3  C   UNL     1       2.979   3.055  17.899  0.00  0.00    +0.000 A 
ATOM      4  C   UNL     1       2.454   3.860  18.902  0.00  0.00    +0.000 A 
ATOM      5  N   UNL     1       1.624   3.335  19.811  0.00  0.00    +0.000 NA
ATOM      6  N   UNL     1       1.131   4.100  20.739  0.00  0.00    +0.000 NA
ATOM      7  N   UNL     1       1.375   5.380  20.782  0.00  0.00    +0.000 NA
ATOM      8  C   UNL     1       2.190   5.950  19.869  0.00  0.00    +0.000 A 
ATOM      9  N   UNL     1       2.349   7.361  19.835  0.00  0.00    +0.000 N 
ATOM     10  C   UNL     1       2.822   5.197  18.891  0.00  0.00    +0.000 A 
ATOM     11  N   UNL     1       3.701   5.727  17.995  0.00  0.00    +0.000 NA
ATOM     12  H   UNL     1       3.209   7.645  19.371  0.00  0.00    +0.000 HD
ENDROOT
BRANCH   9  13
ATOM     13  C   UNL     1       1.523   8.369  20.351  0.00  0.00    +0.000 A 
ATOM     14  C   UNL     1       1.169   8.427  21.705  0.00  0.00    +0.000 A 
ATOM     15  C   UNL     1       0.411   9.480  22.215  0.00  0.00    +0.000 A 
ATOM     16  C   UNL     1      -0.061  10.465  21.357  0.00  0.00    +0.000 A 
ATOM     17  C   UNL     1       0.209  10.389  19.990  0.00  0.00    +0.000 A 
ATOM     18  C   UNL     1       1.048   9.381  19.504  0.00  0.00    +0.000 A 
BRANCH  17  19
ATOM     19  O   UNL     1      -0.335  11.382  19.232  0.00  0.00    +0.000 OA
BRANCH  19  20
ATOM     20  C   UNL     1      -1.652  11.189  18.727  0.00  0.00    +0.000 C 
ATOM     21  F   UNL     1      -1.995   9.899  18.527  0.00  0.00    +0.000 F 
ATOM     22  F   UNL     1      -2.537  11.723  19.598  0.00  0.00    +0.000 F 
ATOM     23  F   UNL     1      -1.768  11.848  17.553  0.00  0.00    +0.000 F 
ENDBRANCH  19  20
ENDBRANCH  17  19
ENDBRANCH   9  13
BRANCH   1  24
ATOM     24  O   UNL     1       5.127   5.386  16.154  0.00  0.00    +0.000 OA
BRANCH  24  25
ATOM     25  C   UNL     1       6.101   4.394  15.818  0.00  0.00    +0.000 C 
BRANCH  25  26
ATOM     26  C   UNL     1       7.466   4.869  16.301  0.00  0.00    +0.000 C 
BRANCH  26  28
ATOM     27  C   UNL     1       7.639   5.937  18.576  0.00  0.00    +0.000 C 
ATOM     28  C   UNL     1       7.622   4.631  17.800  0.00  0.00    +0.000 C 
ENDBRANCH  26  28
ENDBRANCH  25  26
ENDBRANCH  24  25
ENDBRANCH   1  24
TORSDOF 7
ENDMDL
MODEL 6
REMARK VINA RESULT:      -7.8      1.967      2.503
REMARK  Name = 
REMARK  8 active torsions:
REMARK  status: ('A' for Active; 'I' for Inactive)
REMARK    1  A    between atoms: C_1  and  C_2
REMARK    2  A    between atoms: C_2  and  C_3
REMARK    3  A    between atoms: C_3  and  C_4
REMARK    4  A    between atoms: C_4  and  O_5
REMARK    5  A    between atoms: O_5  and  C_6
REMARK    6  A    between atoms: N_14  and  C_15
REMARK    7  A    between atoms: C_19  and  O_20
REMARK    8  A    between atoms: O_20  and  C_21
REMARK                            x       y       z     vdW  Elec       q    Type
REMARK                         _______ _______ _______ _____ _____    ______ ____
ROOT
ATOM      1  C   UNL     1       4.595   4.789  17.299  0.00  0.00    +0.000 A 
ATOM      2  C   UNL     1       4.214   3.480  17.090  0.00  0.00    +0.000 A 
ATOM      3  C   UNL     1       3.196   2.970  17.889  0.00  0.00    +0.000 A 
ATOM      4  C   UNL     1       2.562   3.765  18.835  0.00  0.00    +0.000 A 
ATOM      5  N   UNL     1       1.594   3.245  19.601  0.00  0.00    +0.000 NA
ATOM      6  N   UNL     1       1.001   4.002  20.476  0.00  0.00    +0.000 NA
ATOM      7  N   UNL     1       1.279   5.270  20.596  0.00  0.00    +0.000 NA
ATOM      8  C   UNL     1       2.233   5.835  19.827  0.00  0.00    +0.000 A 
ATOM      9  N   UNL     1       2.443   7.239  19.863  0.00  0.00    +0.000 N 
ATOM     10  C   UNL     1       2.972   5.087  18.921  0.00  0.00    +0.000 A 
ATOM     11  N   UNL     1       3.987   5.609  18.176  0.00  0.00    +0.000 NA
ATOM     12  H   UNL     1       3.369   7.504  19.534  0.00  0.00    +0.000 HD
ENDROOT
BRANCH   9  13
ATOM     13  C   UNL     1       1.586   8.262  20.292  0.00  0.00    +0.000 A 
ATOM     14  C   UNL     1       1.147   8.363  21.618  0.00  0.00    +0.000 A 
ATOM     15  C   UNL     1       0.358   9.432  22.044  0.00  0.00    +0.000 A 
ATOM     16  C   UNL     1      -0.056  10.388  21.125  0.00  0.00    +0.000 A 
ATOM     17  C   UNL     1       0.300  10.268  19.782  0.00  0.00    +0.000 A 
ATOM     18  C   UNL     1       1.168   9.245  19.384  0.00  0.00    +0.000 A 
BRANCH  17  19
ATOM     19  O   UNL     1      -0.193  11.235  18.959  0.00  0.00    +0.000 OA
BRANCH  19  20
ATOM     20  C   UNL     1      -1.531  11.096  18.494  0.00  0.00    +0.000 C 
ATOM     21  F   UNL     1      -1.761  11.623  17.273  0.00  0.00    +0.000 F 
ATOM     22  F   UNL     1      -1.842   9.781  18.443  0.00  0.00    +0.000 F 
ATOM     23  F   UNL     1      -2.362  11.690  19.378  0.00  0.00    +0.000 F 
ENDBRANCH  19  20
ENDBRANCH  17  19
ENDBRANCH   9  13
BRANCH   1  24
ATOM     24  O   UNL     1       5.646   5.268  16.543  0.00  0.00    +0.000 OA
BRANCH  24  25
ATOM     25  C   UNL     1       6.163   4.254  15.677  0.00  0.00    +0.000 C 
BRANCH  25  26
ATOM     26  C   UNL     1       6.037   4.734  14.236  0.00  0.00    +0.000 C 
BRANCH  26  28
ATOM     27  C   UNL     1       5.085   3.532  12.238  0.00  0.00    +0.000 C 
ATOM     28  C   UNL     1       6.205   3.571  13.263  0.00  0.00    +0.000 C 
ENDBRANCH  26  28
ENDBRANCH  25  26
ENDBRANCH  24  25
ENDBRANCH   1  24
TORSDOF 7
ENDMDL
MODEL 7
REMARK VINA RESULT:      -7.8      3.591      5.001
REMARK  Name = 
REMARK  8 active torsions:
REMARK  status: ('A' for Active; 'I' for Inactive)
REMARK    1  A    between atoms: C_1  and  C_2
REMARK    2  A    between atoms: C_2  and  C_3
REMARK    3  A    between atoms: C_3  and  C_4
REMARK    4  A    between atoms: C_4  and  O_5
REMARK    5  A    between atoms: O_5  and  C_6
REMARK    6  A    between atoms: N_14  and  C_15
REMARK    7  A    between atoms: C_19  and  O_20
REMARK    8  A    between atoms: O_20  and  C_21
REMARK                            x       y       z     vdW  Elec       q    Type
REMARK                         _______ _______ _______ _____ _____    ______ ____
ROOT
ATOM      1  C   UNL     1       5.590   4.289  13.946  0.00  0.00    +0.000 A 
ATOM      2  C   UNL     1       6.961   4.316  13.802  0.00  0.00    +0.000 A 
ATOM      3  C   UNL     1       7.688   5.082  14.708  0.00  0.00    +0.000 A 
ATOM      4  C   UNL     1       7.057   5.762  15.741  0.00  0.00    +0.000 A 
ATOM      5  N   UNL     1       7.779   6.503  16.590  0.00  0.00    +0.000 NA
ATOM      6  N   UNL     1       7.177   7.127  17.559  0.00  0.00    +0.000 NA
ATOM      7  N   UNL     1       5.896   7.010  17.766  0.00  0.00    +0.000 NA
ATOM      8  C   UNL     1       5.137   6.254  16.945  0.00  0.00    +0.000 A 
ATOM      9  N   UNL     1       3.770   6.020  17.247  0.00  0.00    +0.000 N 
ATOM     10  C   UNL     1       5.681   5.616  15.839  0.00  0.00    +0.000 A 
ATOM     11  N   UNL     1       4.936   4.899  14.951  0.00  0.00    +0.000 NA
ATOM     12  H   UNL     1       3.230   5.751  16.428  0.00  0.00    +0.000 HD
ENDROOT
BRANCH   9  13
ATOM     13  C   UNL     1       3.092   6.125  18.469  0.00  0.00    +0.000 A 
ATOM     14  C   UNL     1       2.477   7.312  18.885  0.00  0.00    +0.000 A 
ATOM     15  C   UNL     1       1.741   7.376  20.068  0.00  0.00    +0.000 A 
ATOM     16  C   UNL     1       1.661   6.257  20.888  0.00  0.00    +0.000 A 
ATOM     17  C   UNL     1       2.331   5.084  20.538  0.00  0.00    +0.000 A 
ATOM     18  C   UNL     1       2.988   5.003  19.305  0.00  0.00    +0.000 A 
BRANCH  17  19
ATOM     19  O   UNL     1       2.222   4.062  21.431  0.00  0.00    +0.000 OA
BRANCH  19  20
ATOM     20  C   UNL     1       1.361   2.977  21.101  0.00  0.00    +0.000 C 
ATOM     21  F   UNL     1       0.323   3.305  20.302  0.00  0.00    +0.000 F 
ATOM     22  F   UNL     1       2.082   2.022  20.471  0.00  0.00    +0.000 F 
ATOM     23  F   UNL     1       0.870   2.449  22.243  0.00  0.00    +0.000 F 
ENDBRANCH  19  20
ENDBRANCH  17  19
ENDBRANCH   9  13
BRANCH   1  24
ATOM     24  O   UNL     1       4.872   3.575  13.008  0.00  0.00    +0.000 OA
BRANCH  24  25
ATOM     25  C   UNL     1       5.689   3.228  11.886  0.00  0.00    +0.000 C 
BRANCH  25  26
ATOM     26  C   UNL     1       5.253   1.862  11.370  0.00  0.00    +0.000 C 
BRANCH  26  28
ATOM     27  C   UNL     1       6.130  -0.499  11.309  0.00  0.00    +0.000 C 
ATOM     28  C   UNL     1       6.464   0.969  11.115  0.00  0.00    +0.000 C 
ENDBRANCH  26  28
ENDBRANCH  25  26
ENDBRANCH  24  25
ENDBRANCH   1  24
TORSDOF 7
ENDMDL
MODEL 8
REMARK VINA RESULT:      -7.8      2.916      3.685
REMARK  Name = 
REMARK  8 active torsions:
REMARK  status: ('A' for Active; 'I' for Inactive)
REMARK    1  A    between atoms: C_1  and  C_2
REMARK    2  A    between atoms: C_2  and  C_3
REMARK    3  A    between atoms: C_3  and  C_4
REMARK    4  A    between atoms: C_4  and  O_5
REMARK    5  A    between atoms: O_5  and  C_6
REMARK    6  A    between atoms: N_14  and  C_15
REMARK    7  A    between atoms: C_19  and  O_20
REMARK    8  A    between atoms: O_20  and  C_21
REMARK                            x       y       z     vdW  Elec       q    Type
REMARK                         _______ _______ _______ _____ _____    ______ ____
ROOT
ATOM      1  C   UNL     1       5.334   4.185  18.828  0.00  0.00    +0.000 A 
ATOM      2  C   UNL     1       4.973   2.917  18.424  0.00  0.00    +0.000 A 
ATOM      3  C   UNL     1       3.678   2.495  18.710  0.00  0.00    +0.000 A 
ATOM      4  C   UNL     1       2.775   3.336  19.345  0.00  0.00    +0.000 A 
ATOM      5  N   UNL     1       1.539   2.900  19.622  0.00  0.00    +0.000 NA
ATOM      6  N   UNL     1       0.699   3.700  20.207  0.00  0.00    +0.000 NA
ATOM      7  N   UNL     1       1.001   4.937  20.486  0.00  0.00    +0.000 NA
ATOM      8  C   UNL     1       2.229   5.420  20.202  0.00  0.00    +0.000 A 
ATOM      9  N   UNL     1       2.515   6.800  20.383  0.00  0.00    +0.000 N 
ATOM     10  C   UNL     1       3.215   4.616  19.650  0.00  0.00    +0.000 A 
ATOM     11  N   UNL     1       4.485   5.050  19.411  0.00  0.00    +0.000 NA
ATOM     12  H   UNL     1       3.511   6.983  20.476  0.00  0.00    +0.000 HD
ENDROOT
BRANCH   9  13
ATOM     13  C   UNL     1       1.641   7.892  20.465  0.00  0.00    +0.000 A 
ATOM     14  C   UNL     1       0.767   8.071  21.544  0.00  0.00    +0.000 A 
ATOM     15  C   UNL     1      -0.040   9.204  21.648  0.00  0.00    +0.000 A 
ATOM     16  C   UNL     1      -0.027  10.152  20.632  0.00  0.00    +0.000 A 
ATOM     17  C   UNL     1       0.775   9.959  19.507  0.00  0.00    +0.000 A 
ATOM     18  C   UNL     1       1.649   8.867  19.457  0.00  0.00    +0.000 A 
BRANCH  17  19
ATOM     19  O   UNL     1       0.682  10.925  18.551  0.00  0.00    +0.000 OA
BRANCH  19  20
ATOM     20  C   UNL     1       1.605  12.008  18.607  0.00  0.00    +0.000 C 
ATOM     21  F   UNL     1       2.010  12.339  19.852  0.00  0.00    +0.000 F 
ATOM     22  F   UNL     1       2.702  11.686  17.886  0.00  0.00    +0.000 F 
ATOM     23  F   UNL     1       1.034  13.094  18.042  0.00  0.00    +0.000 F 
ENDBRANCH  19  20
ENDBRANCH  17  19
ENDBRANCH   9  13
BRANCH   1  24
ATOM     24  O   UNL     1       6.638   4.573  18.592  0.00  0.00    +0.000 OA
BRANCH  24  25
ATOM     25  C   UNL     1       6.855   4.841  17.204  0.00  0.00    +0.000 C 
BRANCH  25  26
ATOM     26  C   UNL     1       6.875   6.350  16.997  0.00  0.00    +0.000 C 
BRANCH  26  28
ATOM     27  C   UNL     1       7.943   8.503  17.753  0.00  0.00    +0.000 C 
ATOM     28  C   UNL     1       7.729   7.031  18.062  0.00  0.00    +0.000 C 
ENDBRANCH  26  28
ENDBRANCH  25  26
ENDBRANCH  24  25
ENDBRANCH   1  24
TORSDOF 7
ENDMDL
MODEL 9
REMARK VINA RESULT:      -7.8      1.971      2.407
REMARK  Name = 
REMARK  8 active torsions:
REMARK  status: ('A' for Active; 'I' for Inactive)
REMARK    1  A    between atoms: C_1  and  C_2
REMARK    2  A    between atoms: C_2  and  C_3
REMARK    3  A    between atoms: C_3  and  C_4
REMARK    4  A    between atoms: C_4  and  O_5
REMARK    5  A    between atoms: O_5  and  C_6
REMARK    6  A    between atoms: N_14  and  C_15
REMARK    7  A    between atoms: C_19  and  O_20
REMARK    8  A    between atoms: O_20  and  C_21
REMARK                            x       y       z     vdW  Elec       q    Type
REMARK                         _______ _______ _______ _____ _____    ______ ____
ROOT
ATOM      1  C   UNL     1       5.290   3.974  19.075  0.00  0.00    +0.000 A 
ATOM      2  C   UNL     1       4.846   2.682  18.890  0.00  0.00    +0.000 A 
ATOM      3  C   UNL     1       3.518   2.406  19.200  0.00  0.00    +0.000 A 
ATOM      4  C   UNL     1       2.664   3.406  19.643  0.00  0.00    +0.000 A 
ATOM      5  N   UNL     1       1.394   3.112  19.949  0.00  0.00    +0.000 NA
ATOM      6  N   UNL     1       0.601   4.059  20.353  0.00  0.00    +0.000 NA
ATOM      7  N   UNL     1       0.986   5.302  20.419  0.00  0.00    +0.000 NA
ATOM      8  C   UNL     1       2.253   5.643  20.098  0.00  0.00    +0.000 A 
ATOM      9  N   UNL     1       2.634   7.009  20.042  0.00  0.00    +0.000 N 
ATOM     10  C   UNL     1       3.189   4.687  19.732  0.00  0.00    +0.000 A 
ATOM     11  N   UNL     1       4.492   4.985  19.466  0.00  0.00    +0.000 NA
ATOM     12  H   UNL     1       3.639   7.138  20.136  0.00  0.00    +0.000 HD
ENDROOT
BRANCH   9  13
ATOM     13  C   UNL     1       1.840   8.156  19.899  0.00  0.00    +0.000 A 
ATOM     14  C   UNL     1       1.526   8.697  18.646  0.00  0.00    +0.000 A 
ATOM     15  C   UNL     1       0.671   9.791  18.519  0.00  0.00    +0.000 A 
ATOM     16  C   UNL     1       0.164  10.402  19.659  0.00  0.00    +0.000 A 
ATOM     17  C   UNL     1       0.524   9.933  20.922  0.00  0.00    +0.000 A 
ATOM     18  C   UNL     1       1.306   8.778  21.036  0.00  0.00    +0.000 A 
BRANCH  17  19
ATOM     19  O   UNL     1       0.005  10.628  21.973  0.00  0.00    +0.000 OA
BRANCH  19  20
ATOM     20  C   UNL     1      -0.616   9.889  23.019  0.00  0.00    +0.000 C 
ATOM     21  F   UNL     1      -1.674  10.502  23.590  0.00  0.00    +0.000 F 
ATOM     22  F   UNL     1      -1.040   8.704  22.526  0.00  0.00    +0.000 F 
ATOM     23  F   UNL     1       0.302   9.641  23.979  0.00  0.00    +0.000 F 
ENDBRANCH  19  20
ENDBRANCH  17  19
ENDBRANCH   9  13
BRANCH   1  24
ATOM     24  O   UNL     1       6.623   4.224  18.821  0.00  0.00    +0.000 OA
BRANCH  24  25
ATOM     25  C   UNL     1       6.908   5.624  18.886  0.00  0.00    +0.000 C 
BRANCH  25  26
ATOM     26  C   UNL     1       7.094   6.150  17.468  0.00  0.00    +0.000 C 
BRANCH  26  28
ATOM     27  C   UNL     1       5.163   6.475  15.883  0.00  0.00    +0.000 C 
ATOM     28  C   UNL     1       5.926   7.045  17.066  0.00  0.00    +0.000 C 
ENDBRANCH  26  28
ENDBRANCH  25  26
ENDBRANCH  24  25
ENDBRANCH   1  24
TORSDOF 7
ENDMDL
