MODEL 1
REMARK VINA RESULT:      -8.7      0.000      0.000
REMARK  Name = 
REMARK  4 active torsions:
REMARK  status: ('A' for Active; 'I' for Inactive)
REMARK    1  A    between atoms: C_1  and  C_2
REMARK    2  A    between atoms: C_7  and  C_8
REMARK    3  A    between atoms: N_16  and  C_17
REMARK    4  A    between atoms: C_17  and  C_18
REMARK                            x       y       z     vdW  Elec       q    Type
REMARK                         _______ _______ _______ _____ _____    ______ ____
ROOT
ATOM      1  C   UNL     1       1.221   2.726  21.598  0.00  0.00    +0.000 C 
ATOM      2  C   UNL     1       2.074   2.887  20.374  0.00  0.00    +0.000 A 
ATOM      3  C   UNL     1       2.634   1.763  19.750  0.00  0.00    +0.000 A 
ATOM      4  C   UNL     1       3.437   1.915  18.622  0.00  0.00    +0.000 A 
ATOM      5  C   UNL     1       3.693   3.189  18.106  0.00  0.00    +0.000 A 
ATOM      6  N   UNL     1       4.492   3.311  17.020  0.00  0.00    +0.000 NA
ATOM      7  C   UNL     1       4.774   4.521  16.481  0.00  0.00    +0.000 A 
ATOM      8  N   UNL     1       4.221   5.641  17.021  0.00  0.00    +0.000 NA
ATOM      9  C   UNL     1       3.408   5.602  18.116  0.00  0.00    +0.000 A 
ATOM     10  N   UNL     1       2.878   6.828  18.631  0.00  0.00    +0.000 N 
ATOM     11  C   UNL     1       3.132   4.340  18.710  0.00  0.00    +0.000 A 
ATOM     12  C   UNL     1       2.317   4.168  19.848  0.00  0.00    +0.000 A 
ATOM     13  H   UNL     1       2.472   6.873  19.574  0.00  0.00    +0.000 HD
ENDROOT
BRANCH   7  14
ATOM     14  C   UNL     1       5.730   4.620  15.352  0.00  0.00    +0.000 A 
ATOM     15  C   UNL     1       5.458   4.006  14.119  0.00  0.00    +0.000 A 
ATOM     16  C   UNL     1       6.354   4.138  13.056  0.00  0.00    +0.000 A 
ATOM     17  C   UNL     1       7.522   4.881  13.234  0.00  0.00    +0.000 A 
ATOM     18  N   UNL     1       7.778   5.470  14.429  0.00  0.00    +0.000 NA
ATOM     19  C   UNL     1       6.921   5.361  15.479  0.00  0.00    +0.000 A 
ENDBRANCH   7  14
BRANCH  10  20
ATOM     20  C   UNL     1       2.774   8.032  17.824  0.00  0.00    +0.000 C 
BRANCH  20  21
ATOM     21  C   UNL     1       1.954   9.103  18.497  0.00  0.00    +0.000 A 
ATOM     22  C   UNL     1       1.238   8.809  19.668  0.00  0.00    +0.000 A 
ATOM     23  C   UNL     1       0.518   9.810  20.326  0.00  0.00    +0.000 A 
ATOM     24  C   UNL     1       0.501  11.112  19.819  0.00  0.00    +0.000 A 
ATOM     25  C   UNL     1       1.205  11.415  18.651  0.00  0.00    +0.000 A 
ATOM     26  C   UNL     1       1.931  10.418  17.991  0.00  0.00    +0.000 A 
ENDBRANCH  20  21
ENDBRANCH  10  20
TORSDOF 3
ENDMDL
MODEL 2
REMARK VINA RESULT:      -8.6      0.590      1.046
REMARK  Name = 
REMARK  4 active torsions:
REMARK  status: ('A' for Active; 'I' for Inactive)
REMARK    1  A    between atoms: C_1  and  C_2
REMARK    2  A    between atoms: C_7  and  C_8
REMARK    3  A    between atoms: N_16  and  C_17
REMARK    4  A    between atoms: C_17  and  C_18
REMARK                            x       y       z     vdW  Elec       q    Type
REMARK                         _______ _______ _______ _____ _____    ______ ____
ROOT
ATOM      1  C   UNL     1       1.328   2.583  21.903  0.00  0.00    +0.000 C 
ATOM      2  C   UNL     1       2.153   2.774  20.664  0.00  0.00    +0.000 A 
ATOM      3  C   UNL     1       2.710   1.668  20.008  0.00  0.00    +0.000 A 
ATOM      4  C   UNL     1       3.487   1.848  18.867  0.00  0.00    +0.000 A 
ATOM      5  C   UNL     1       3.721   3.134  18.369  0.00  0.00    +0.000 A 
ATOM      6  N   UNL     1       4.496   3.284  17.269  0.00  0.00    +0.000 NA
ATOM      7  C   UNL     1       4.755   4.507  16.747  0.00  0.00    +0.000 A 
ATOM      8  N   UNL     1       4.203   5.610  17.320  0.00  0.00    +0.000 NA
ATOM      9  C   UNL     1       3.413   5.543  18.430  0.00  0.00    +0.000 A 
ATOM     10  N   UNL     1       2.884   6.755  18.979  0.00  0.00    +0.000 N 
ATOM     11  C   UNL     1       3.162   4.268  19.007  0.00  0.00    +0.000 A 
ATOM     12  C   UNL     1       2.373   4.067  20.158  0.00  0.00    +0.000 A 
ATOM     13  H   UNL     1       2.497   6.778  19.931  0.00  0.00    +0.000 HD
ENDROOT
BRANCH   7  14
ATOM     14  C   UNL     1       5.686   4.635  15.600  0.00  0.00    +0.000 A 
ATOM     15  C   UNL     1       5.404   4.024  14.368  0.00  0.00    +0.000 A 
ATOM     16  C   UNL     1       6.275   4.184  13.289  0.00  0.00    +0.000 A 
ATOM     17  C   UNL     1       7.428   4.954  13.449  0.00  0.00    +0.000 A 
ATOM     18  N   UNL     1       7.695   5.540  14.644  0.00  0.00    +0.000 NA
ATOM     19  C   UNL     1       6.862   5.404  15.710  0.00  0.00    +0.000 A 
ENDBRANCH   7  14
BRANCH  10  20
ATOM     20  C   UNL     1       2.751   7.973  18.198  0.00  0.00    +0.000 C 
BRANCH  20  21
ATOM     21  C   UNL     1       1.633   8.853  18.694  0.00  0.00    +0.000 A 
ATOM     22  C   UNL     1       0.876   9.608  17.784  0.00  0.00    +0.000 A 
ATOM     23  C   UNL     1      -0.197  10.386  18.232  0.00  0.00    +0.000 A 
ATOM     24  C   UNL     1      -0.520  10.421  19.591  0.00  0.00    +0.000 A 
ATOM     25  C   UNL     1       0.231   9.679  20.506  0.00  0.00    +0.000 A 
ATOM     26  C   UNL     1       1.302   8.896  20.063  0.00  0.00    +0.000 A 
ENDBRANCH  20  21
ENDBRANCH  10  20
TORSDOF 3
ENDMDL
MODEL 3
REMARK VINA RESULT:      -8.6      1.452      5.771
REMARK  Name = 
REMARK  4 active torsions:
REMARK  status: ('A' for Active; 'I' for Inactive)
REMARK    1  A    between atoms: C_1  and  C_2
REMARK    2  A    between atoms: C_7  and  C_8
REMARK    3  A    between atoms: N_16  and  C_17
REMARK    4  A    between atoms: C_17  and  C_18
REMARK                            x       y       z     vdW  Elec       q    Type
REMARK                         _______ _______ _______ _____ _____    ______ ____
ROOT
ATOM      1  C   UNL     1      -0.390  10.824  20.651  0.00  0.00    +0.000 C 
ATOM      2  C   UNL     1       0.606  10.060  19.828  0.00  0.00    +0.000 A 
ATOM      3  C   UNL     1       1.224  10.666  18.726  0.00  0.00    +0.000 A 
ATOM      4  C   UNL     1       2.138   9.952  17.955  0.00  0.00    +0.000 A 
ATOM      5  C   UNL     1       2.442   8.624  18.272  0.00  0.00    +0.000 A 
ATOM      6  N   UNL     1       3.318   7.946  17.496  0.00  0.00    +0.000 NA
ATOM      7  C   UNL     1       3.647   6.658  17.757  0.00  0.00    +0.000 A 
ATOM      8  N   UNL     1       3.108   6.036  18.841  0.00  0.00    +0.000 NA
ATOM      9  C   UNL     1       2.216   6.650  19.671  0.00  0.00    +0.000 A 
ATOM     10  N   UNL     1       1.685   5.920  20.782  0.00  0.00    +0.000 N 
ATOM     11  C   UNL     1       1.839   7.992  19.387  0.00  0.00    +0.000 A 
ATOM     12  C   UNL     1       0.921   8.731  20.159  0.00  0.00    +0.000 A 
ATOM     13  H   UNL     1       0.848   6.249  21.278  0.00  0.00    +0.000 HD
ENDROOT
BRANCH   7  14
ATOM     14  C   UNL     1       4.535   5.921  16.827  0.00  0.00    +0.000 A 
ATOM     15  C   UNL     1       4.657   4.524  16.899  0.00  0.00    +0.000 A 
ATOM     16  C   UNL     1       5.472   3.843  15.993  0.00  0.00    +0.000 A 
ATOM     17  C   UNL     1       6.166   4.564  15.020  0.00  0.00    +0.000 A 
ATOM     18  N   UNL     1       6.044   5.915  14.958  0.00  0.00    +0.000 NA
ATOM     19  C   UNL     1       5.254   6.602  15.826  0.00  0.00    +0.000 A 
ENDBRANCH   7  14
BRANCH  10  20
ATOM     20  C   UNL     1       2.354   4.757  21.342  0.00  0.00    +0.000 C 
BRANCH  20  21
ATOM     21  C   UNL     1       2.413   3.606  20.371  0.00  0.00    +0.000 A 
ATOM     22  C   UNL     1       1.254   3.203  19.688  0.00  0.00    +0.000 A 
ATOM     23  C   UNL     1       1.313   2.170  18.747  0.00  0.00    +0.000 A 
ATOM     24  C   UNL     1       2.525   1.528  18.484  0.00  0.00    +0.000 A 
ATOM     25  C   UNL     1       3.683   1.917  19.162  0.00  0.00    +0.000 A 
ATOM     26  C   UNL     1       3.631   2.953  20.101  0.00  0.00    +0.000 A 
ENDBRANCH  20  21
ENDBRANCH  10  20
TORSDOF 3
ENDMDL
MODEL 4
REMARK VINA RESULT:      -7.8      1.433      5.811
REMARK  Name = 
REMARK  4 active torsions:
REMARK  status: ('A' for Active; 'I' for Inactive)
REMARK    1  A    between atoms: C_1  and  C_2
REMARK    2  A    between atoms: C_7  and  C_8
REMARK    3  A    between atoms: N_16  and  C_17
REMARK    4  A    between atoms: C_17  and  C_18
REMARK                            x       y       z     vdW  Elec       q    Type
REMARK                         _______ _______ _______ _____ _____    ______ ____
ROOT
ATOM      1  C   UNL     1      -0.215  10.934  20.520  0.00  0.00    +0.000 C 
ATOM      2  C   UNL     1       0.748  10.113  19.713  0.00  0.00    +0.000 A 
ATOM      3  C   UNL     1       1.384  10.668  18.594  0.00  0.00    +0.000 A 
ATOM      4  C   UNL     1       2.266   9.900  17.838  0.00  0.00    +0.000 A 
ATOM      5  C   UNL     1       2.522   8.571  18.187  0.00  0.00    +0.000 A 
ATOM      6  N   UNL     1       3.369   7.841  17.425  0.00  0.00    +0.000 NA
ATOM      7  C   UNL     1       3.651   6.548  17.718  0.00  0.00    +0.000 A 
ATOM      8  N   UNL     1       3.094   5.975  18.819  0.00  0.00    +0.000 NA
ATOM      9  C   UNL     1       2.230   6.643  19.637  0.00  0.00    +0.000 A 
ATOM     10  N   UNL     1       1.677   5.961  20.768  0.00  0.00    +0.000 N 
ATOM     11  C   UNL     1       1.902   7.990  19.320  0.00  0.00    +0.000 A 
ATOM     12  C   UNL     1       1.015   8.782  20.077  0.00  0.00    +0.000 A 
ATOM     13  H   UNL     1       0.855   6.333  21.258  0.00  0.00    +0.000 HD
ENDROOT
BRANCH   7  14
ATOM     14  C   UNL     1       4.507   5.755  16.804  0.00  0.00    +0.000 A 
ATOM     15  C   UNL     1       5.234   6.376  15.775  0.00  0.00    +0.000 A 
ATOM     16  C   UNL     1       6.062   5.617  14.945  0.00  0.00    +0.000 A 
ATOM     17  C   UNL     1       6.156   4.240  15.146  0.00  0.00    +0.000 A 
ATOM     18  N   UNL     1       5.449   3.647  16.142  0.00  0.00    +0.000 NA
ATOM     19  C   UNL     1       4.639   4.362  16.967  0.00  0.00    +0.000 A 
ENDBRANCH   7  14
BRANCH  10  20
ATOM     20  C   UNL     1       2.305   4.789  21.355  0.00  0.00    +0.000 C 
BRANCH  20  21
ATOM     21  C   UNL     1       2.397   3.641  20.384  0.00  0.00    +0.000 A 
ATOM     22  C   UNL     1       3.613   2.958  20.215  0.00  0.00    +0.000 A 
ATOM     23  C   UNL     1       3.693   1.859  19.354  0.00  0.00    +0.000 A 
ATOM     24  C   UNL     1       2.562   1.434  18.651  0.00  0.00    +0.000 A 
ATOM     25  C   UNL     1       1.349   2.109  18.807  0.00  0.00    +0.000 A 
ATOM     26  C   UNL     1       1.263   3.207  19.670  0.00  0.00    +0.000 A 
ENDBRANCH  20  21
ENDBRANCH  10  20
TORSDOF 3
ENDMDL
MODEL 5
REMARK VINA RESULT:      -7.6      4.580     10.360
REMARK  Name = 
REMARK  4 active torsions:
REMARK  status: ('A' for Active; 'I' for Inactive)
REMARK    1  A    between atoms: C_1  and  C_2
REMARK    2  A    between atoms: C_7  and  C_8
REMARK    3  A    between atoms: N_16  and  C_17
REMARK    4  A    between atoms: C_17  and  C_18
REMARK                            x       y       z     vdW  Elec       q    Type
REMARK                         _______ _______ _______ _____ _____    ______ ____
ROOT
ATOM      1  C   UNL     1      -3.048   9.684  14.612  0.00  0.00    +0.000 C 
ATOM      2  C   UNL     1      -3.067  10.346  15.959  0.00  0.00    +0.000 A 
ATOM      3  C   UNL     1      -4.178  11.101  16.359  0.00  0.00    +0.000 A 
ATOM      4  C   UNL     1      -4.187  11.727  17.604  0.00  0.00    +0.000 A 
ATOM      5  C   UNL     1      -3.089  11.609  18.461  0.00  0.00    +0.000 A 
ATOM      6  N   UNL     1      -3.116  12.242  19.657  0.00  0.00    +0.000 NA
ATOM      7  C   UNL     1      -2.078  12.162  20.524  0.00  0.00    +0.000 A 
ATOM      8  N   UNL     1      -0.994  11.406  20.203  0.00  0.00    +0.000 NA
ATOM      9  C   UNL     1      -0.890  10.739  19.017  0.00  0.00    +0.000 A 
ATOM     10  N   UNL     1       0.292   9.977  18.751  0.00  0.00    +0.000 N 
ATOM     11  C   UNL     1      -1.959  10.843  18.085  0.00  0.00    +0.000 A 
ATOM     12  C   UNL     1      -1.967  10.212  16.825  0.00  0.00    +0.000 A 
ATOM     13  H   UNL     1       0.517   9.667  17.798  0.00  0.00    +0.000 HD
ENDROOT
BRANCH   7  14
ATOM     14  C   UNL     1      -2.106  12.949  21.780  0.00  0.00    +0.000 A 
ATOM     15  C   UNL     1      -3.323  13.357  22.350  0.00  0.00    +0.000 A 
ATOM     16  C   UNL     1      -3.331  14.068  23.552  0.00  0.00    +0.000 A 
ATOM     17  C   UNL     1      -2.121  14.370  24.177  0.00  0.00    +0.000 A 
ATOM     18  N   UNL     1      -0.949  13.974  23.619  0.00  0.00    +0.000 NA
ATOM     19  C   UNL     1      -0.912  13.277  22.451  0.00  0.00    +0.000 A 
ENDBRANCH   7  14
BRANCH  10  20
ATOM     20  C   UNL     1       1.167   9.499  19.809  0.00  0.00    +0.000 C 
BRANCH  20  21
ATOM     21  C   UNL     1       1.786   8.164  19.482  0.00  0.00    +0.000 A 
ATOM     22  C   UNL     1       1.741   7.120  20.420  0.00  0.00    +0.000 A 
ATOM     23  C   UNL     1       2.266   5.864  20.104  0.00  0.00    +0.000 A 
ATOM     24  C   UNL     1       2.845   5.639  18.852  0.00  0.00    +0.000 A 
ATOM     25  C   UNL     1       2.900   6.672  17.913  0.00  0.00    +0.000 A 
ATOM     26  C   UNL     1       2.372   7.930  18.223  0.00  0.00    +0.000 A 
ENDBRANCH  20  21
ENDBRANCH  10  20
TORSDOF 3
ENDMDL
MODEL 6
REMARK VINA RESULT:      -7.6      4.559     10.384
REMARK  Name = 
REMARK  4 active torsions:
REMARK  status: ('A' for Active; 'I' for Inactive)
REMARK    1  A    between atoms: C_1  and  C_2
REMARK    2  A    between atoms: C_7  and  C_8
REMARK    3  A    between atoms: N_16  and  C_17
REMARK    4  A    between atoms: C_17  and  C_18
REMARK                            x       y       z     vdW  Elec       q    Type
REMARK                         _______ _______ _______ _____ _____    ______ ____
ROOT
ATOM      1  C   UNL     1      -3.282   9.809  14.742  0.00  0.00    +0.000 C 
ATOM      2  C   UNL     1      -3.217  10.451  16.097  0.00  0.00    +0.000 A 
ATOM      3  C   UNL     1      -4.305  11.191  16.580  0.00  0.00    +0.000 A 
ATOM      4  C   UNL     1      -4.238  11.798  17.832  0.00  0.00    +0.000 A 
ATOM      5  C   UNL     1      -3.084  11.677  18.613  0.00  0.00    +0.000 A 
ATOM      6  N   UNL     1      -3.037  12.292  19.818  0.00  0.00    +0.000 NA
ATOM      7  C   UNL     1      -1.944  12.208  20.613  0.00  0.00    +0.000 A 
ATOM      8  N   UNL     1      -0.877  11.466  20.210  0.00  0.00    +0.000 NA
ATOM      9  C   UNL     1      -0.847  10.818  19.010  0.00  0.00    +0.000 A 
ATOM     10  N   UNL     1       0.321  10.069  18.656  0.00  0.00    +0.000 N 
ATOM     11  C   UNL     1      -1.976  10.926  18.153  0.00  0.00    +0.000 A 
ATOM     12  C   UNL     1      -2.062  10.314  16.886  0.00  0.00    +0.000 A 
ATOM     13  H   UNL     1       0.485   9.775  17.685  0.00  0.00    +0.000 HD
ENDROOT
BRANCH   7  14
ATOM     14  C   UNL     1      -1.895  12.976  21.881  0.00  0.00    +0.000 A 
ATOM     15  C   UNL     1      -3.038  13.118  22.684  0.00  0.00    +0.000 A 
ATOM     16  C   UNL     1      -2.965  13.815  23.892  0.00  0.00    +0.000 A 
ATOM     17  C   UNL     1      -1.748  14.372  24.288  0.00  0.00    +0.000 A 
ATOM     18  N   UNL     1      -0.648  14.231  23.505  0.00  0.00    +0.000 NA
ATOM     19  C   UNL     1      -0.690  13.554  22.327  0.00  0.00    +0.000 A 
ENDBRANCH   7  14
BRANCH  10  20
ATOM     20  C   UNL     1       1.268   9.584  19.647  0.00  0.00    +0.000 C 
BRANCH  20  21
ATOM     21  C   UNL     1       1.986   8.340  19.191  0.00  0.00    +0.000 A 
ATOM     22  C   UNL     1       2.684   8.337  17.973  0.00  0.00    +0.000 A 
ATOM     23  C   UNL     1       3.396   7.203  17.570  0.00  0.00    +0.000 A 
ATOM     24  C   UNL     1       3.414   6.061  18.375  0.00  0.00    +0.000 A 
ATOM     25  C   UNL     1       2.718   6.051  19.586  0.00  0.00    +0.000 A 
ATOM     26  C   UNL     1       2.007   7.184  19.997  0.00  0.00    +0.000 A 
ENDBRANCH  20  21
ENDBRANCH  10  20
TORSDOF 3
ENDMDL
MODEL 7
REMARK VINA RESULT:      -7.5      0.804      1.125
REMARK  Name = 
REMARK  4 active torsions:
REMARK  status: ('A' for Active; 'I' for Inactive)
REMARK    1  A    between atoms: C_1  and  C_2
REMARK    2  A    between atoms: C_7  and  C_8
REMARK    3  A    between atoms: N_16  and  C_17
REMARK    4  A    between atoms: C_17  and  C_18
REMARK                            x       y       z     vdW  Elec       q    Type
REMARK                         _______ _______ _______ _____ _____    ______ ____
ROOT
ATOM      1  C   UNL     1       1.156   2.560  21.900  0.00  0.00    +0.000 C 
ATOM      2  C   UNL     1       1.964   2.745  20.649  0.00  0.00    +0.000 A 
ATOM      3  C   UNL     1       2.474   1.631  19.967  0.00  0.00    +0.000 A 
ATOM      4  C   UNL     1       3.236   1.805  18.814  0.00  0.00    +0.000 A 
ATOM      5  C   UNL     1       3.499   3.090  18.330  0.00  0.00    +0.000 A 
ATOM      6  N   UNL     1       4.257   3.232  17.217  0.00  0.00    +0.000 NA
ATOM      7  C   UNL     1       4.543   4.454  16.707  0.00  0.00    +0.000 A 
ATOM      8  N   UNL     1       4.036   5.566  17.305  0.00  0.00    +0.000 NA
ATOM      9  C   UNL     1       3.265   5.506  18.430  0.00  0.00    +0.000 A 
ATOM     10  N   UNL     1       2.783   6.725  19.005  0.00  0.00    +0.000 N 
ATOM     11  C   UNL     1       2.986   4.231  18.993  0.00  0.00    +0.000 A 
ATOM     12  C   UNL     1       2.213   4.037  20.156  0.00  0.00    +0.000 A 
ATOM     13  H   UNL     1       2.415   6.747  19.964  0.00  0.00    +0.000 HD
ENDROOT
BRANCH   7  14
ATOM     14  C   UNL     1       5.457   4.571  15.545  0.00  0.00    +0.000 A 
ATOM     15  C   UNL     1       6.624   5.348  15.619  0.00  0.00    +0.000 A 
ATOM     16  C   UNL     1       7.490   5.420  14.526  0.00  0.00    +0.000 A 
ATOM     17  C   UNL     1       7.182   4.715  13.361  0.00  0.00    +0.000 A 
ATOM     18  N   UNL     1       6.051   3.967  13.298  0.00  0.00    +0.000 NA
ATOM     19  C   UNL     1       5.193   3.877  14.348  0.00  0.00    +0.000 A 
ENDBRANCH   7  14
BRANCH  10  20
ATOM     20  C   UNL     1       2.673   7.958  18.243  0.00  0.00    +0.000 C 
BRANCH  20  21
ATOM     21  C   UNL     1       1.566   8.847  18.749  0.00  0.00    +0.000 A 
ATOM     22  C   UNL     1       1.287   8.909  20.124  0.00  0.00    +0.000 A 
ATOM     23  C   UNL     1       0.297   9.771  20.605  0.00  0.00    +0.000 A 
ATOM     24  C   UNL     1      -0.425  10.575  19.720  0.00  0.00    +0.000 A 
ATOM     25  C   UNL     1      -0.160  10.518  18.350  0.00  0.00    +0.000 A 
ATOM     26  C   UNL     1       0.832   9.660  17.863  0.00  0.00    +0.000 A 
ENDBRANCH  20  21
ENDBRANCH  10  20
TORSDOF 3
ENDMDL
MODEL 8
REMARK VINA RESULT:      -7.5      2.167      6.225
REMARK  Name = 
REMARK  4 active torsions:
REMARK  status: ('A' for Active; 'I' for Inactive)
REMARK    1  A    between atoms: C_1  and  C_2
REMARK    2  A    between atoms: C_7  and  C_8
REMARK    3  A    between atoms: N_16  and  C_17
REMARK    4  A    between atoms: C_17  and  C_18
REMARK                            x       y       z     vdW  Elec       q    Type
REMARK                         _______ _______ _______ _____ _____    ______ ____
ROOT
ATOM      1  C   UNL     1       3.684   0.844  18.859  0.00  0.00    +0.000 C 
ATOM      2  C   UNL     1       3.229   2.243  19.158  0.00  0.00    +0.000 A 
ATOM      3  C   UNL     1       2.365   2.490  20.233  0.00  0.00    +0.000 A 
ATOM      4  C   UNL     1       1.933   3.787  20.500  0.00  0.00    +0.000 A 
ATOM      5  C   UNL     1       2.355   4.850  19.697  0.00  0.00    +0.000 A 
ATOM      6  N   UNL     1       1.906   6.098  19.967  0.00  0.00    +0.000 NA
ATOM      7  C   UNL     1       2.282   7.163  19.219  0.00  0.00    +0.000 A 
ATOM      8  N   UNL     1       3.155   6.985  18.190  0.00  0.00    +0.000 NA
ATOM      9  C   UNL     1       3.651   5.760  17.854  0.00  0.00    +0.000 A 
ATOM     10  N   UNL     1       4.554   5.657  16.748  0.00  0.00    +0.000 N 
ATOM     11  C   UNL     1       3.237   4.630  18.611  0.00  0.00    +0.000 A 
ATOM     12  C   UNL     1       3.669   3.312  18.357  0.00  0.00    +0.000 A 
ATOM     13  H   UNL     1       4.756   4.747  16.314  0.00  0.00    +0.000 HD
ENDROOT
BRANCH   7  14
ATOM     14  C   UNL     1       1.692   8.497  19.487  0.00  0.00    +0.000 A 
ATOM     15  C   UNL     1       1.574   9.453  18.466  0.00  0.00    +0.000 A 
ATOM     16  C   UNL     1       0.985  10.691  18.728  0.00  0.00    +0.000 A 
ATOM     17  C   UNL     1       0.518  10.968  20.014  0.00  0.00    +0.000 A 
ATOM     18  N   UNL     1       0.637  10.039  20.996  0.00  0.00    +0.000 NA
ATOM     19  C   UNL     1       1.203   8.825  20.767  0.00  0.00    +0.000 A 
ENDBRANCH   7  14
BRANCH  10  20
ATOM     20  C   UNL     1       5.319   6.791  16.256  0.00  0.00    +0.000 C 
BRANCH  20  21
ATOM     21  C   UNL     1       6.492   7.119  17.144  0.00  0.00    +0.000 A 
ATOM     22  C   UNL     1       7.030   8.416  17.148  0.00  0.00    +0.000 A 
ATOM     23  C   UNL     1       8.084   8.740  18.007  0.00  0.00    +0.000 A 
ATOM     24  C   UNL     1       8.614   7.773  18.865  0.00  0.00    +0.000 A 
ATOM     25  C   UNL     1       8.091   6.478  18.865  0.00  0.00    +0.000 A 
ATOM     26  C   UNL     1       7.033   6.149  18.010  0.00  0.00    +0.000 A 
ENDBRANCH  20  21
ENDBRANCH  10  20
TORSDOF 3
ENDMDL
MODEL 9
REMARK VINA RESULT:      -7.5      4.789     10.597
REMARK  Name = 
REMARK  4 active torsions:
REMARK  status: ('A' for Active; 'I' for Inactive)
REMARK    1  A    between atoms: C_1  and  C_2
REMARK    2  A    between atoms: C_7  and  C_8
REMARK    3  A    between atoms: N_16  and  C_17
REMARK    4  A    between atoms: C_17  and  C_18
REMARK                            x       y       z     vdW  Elec       q    Type
REMARK                         _______ _______ _______ _____ _____    ______ ____
ROOT
ATOM      1  C   UNL     1      -3.121   9.971  14.563  0.00  0.00    +0.000 C 
ATOM      2  C   UNL     1      -3.193  10.550  15.947  0.00  0.00    +0.000 A 
ATOM      3  C   UNL     1      -4.368  11.170  16.393  0.00  0.00    +0.000 A 
ATOM      4  C   UNL     1      -4.428  11.718  17.671  0.00  0.00    +0.000 A 
ATOM      5  C   UNL     1      -3.317  11.657  18.518  0.00  0.00    +0.000 A 
ATOM      6  N   UNL     1      -3.395  12.215  19.749  0.00  0.00    +0.000 NA
ATOM      7  C   UNL     1      -2.348  12.185  20.607  0.00  0.00    +0.000 A 
ATOM      8  N   UNL     1      -1.198  11.557  20.240  0.00  0.00    +0.000 NA
ATOM      9  C   UNL     1      -1.040  10.973  19.018  0.00  0.00    +0.000 A 
ATOM     10  N   UNL     1       0.208  10.345  18.705  0.00  0.00    +0.000 N 
ATOM     11  C   UNL     1      -2.121  11.027  18.096  0.00  0.00    +0.000 A 
ATOM     12  C   UNL     1      -2.079  10.472  16.800  0.00  0.00    +0.000 A 
ATOM     13  H   UNL     1       0.454  10.114  17.735  0.00  0.00    +0.000 HD
ENDROOT
BRANCH   7  14
ATOM     14  C   UNL     1      -2.441  12.891  21.908  0.00  0.00    +0.000 A 
ATOM     15  C   UNL     1      -1.287  13.333  22.574  0.00  0.00    +0.000 A 
ATOM     16  C   UNL     1      -1.396  14.027  23.781  0.00  0.00    +0.000 A 
ATOM     17  C   UNL     1      -2.661  14.272  24.318  0.00  0.00    +0.000 A 
ATOM     18  N   UNL     1      -3.771  13.839  23.669  0.00  0.00    +0.000 NA
ATOM     19  C   UNL     1      -3.694  13.165  22.490  0.00  0.00    +0.000 A 
ENDBRANCH   7  14
BRANCH  10  20
ATOM     20  C   UNL     1       1.133   9.893  19.731  0.00  0.00    +0.000 C 
BRANCH  20  21
ATOM     21  C   UNL     1       1.658   8.507  19.460  0.00  0.00    +0.000 A 
ATOM     22  C   UNL     1       2.243   8.207  18.220  0.00  0.00    +0.000 A 
ATOM     23  C   UNL     1       2.779   6.937  17.980  0.00  0.00    +0.000 A 
ATOM     24  C   UNL     1       2.731   5.956  18.973  0.00  0.00    +0.000 A 
ATOM     25  C   UNL     1       2.145   6.241  20.209  0.00  0.00    +0.000 A 
ATOM     26  C   UNL     1       1.611   7.511  20.455  0.00  0.00    +0.000 A 
ENDBRANCH  20  21
ENDBRANCH  10  20
TORSDOF 3
ENDMDL
