MODEL 1
REMARK VINA RESULT:      -7.9      0.000      0.000
REMARK  Name = 
REMARK  6 active torsions:
REMARK  status: ('A' for Active; 'I' for Inactive)
REMARK    1  A    between atoms: O_1  and  C_2
REMARK    2  A    between atoms: C_5  and  C_6
REMARK    3  A    between atoms: C_7  and  C_8
REMARK    4  A    between atoms: C_11  and  C_12
REMARK    5  A    between atoms: C_13  and  C_14
REMARK    6  A    between atoms: C_17  and  O_18
REMARK                            x       y       z     vdW  Elec       q    Type
REMARK                         _______ _______ _______ _____ _____    ______ ____
ROOT
ATOM      1  C   UNL     1       1.849   8.148  19.506  0.00  0.00    +0.000 A 
ATOM      2  C   UNL     1       1.313   9.323  18.966  0.00  0.00    +0.000 A 
ATOM      3  C   UNL     1       0.516  10.177  19.751  0.00  0.00    +0.000 A 
ATOM      4  C   UNL     1       0.241   9.868  21.087  0.00  0.00    +0.000 A 
ATOM      5  C   UNL     1       0.747   8.677  21.618  0.00  0.00    +0.000 A 
ATOM      6  C   UNL     1       1.545   7.823  20.833  0.00  0.00    +0.000 A 
ENDROOT
BRANCH   1   8
ATOM      7  C   UNL     1       3.442   6.637  18.024  0.00  0.00    +0.000 C 
ATOM      8  C   UNL     1       2.736   7.320  18.726  0.00  0.00    +0.000 C 
BRANCH   7  12
ATOM      9  C   UNL     1       5.709   4.276  15.338  0.00  0.00    +0.000 A 
ATOM     10  C   UNL     1       5.003   3.662  16.368  0.00  0.00    +0.000 A 
ATOM     11  C   UNL     1       4.274   4.447  17.269  0.00  0.00    +0.000 A 
ATOM     12  C   UNL     1       4.246   5.841  17.138  0.00  0.00    +0.000 A 
ATOM     13  C   UNL     1       4.982   6.444  16.111  0.00  0.00    +0.000 A 
ATOM     14  C   UNL     1       5.712   5.660  15.210  0.00  0.00    +0.000 A 
BRANCH   9  15
ATOM     15  O   UNL     1       6.409   3.550  14.421  0.00  0.00    +0.000 OA
ATOM     16  H   UNL     1       5.842   2.839  14.081  0.00  0.00    +0.000 HD
ENDBRANCH   9  15
ENDBRANCH   7  12
ENDBRANCH   1   8
BRANCH   4  17
ATOM     17  C   UNL     1      -0.505  10.785  21.913  0.00  0.00    +0.000 C 
ATOM     18  C   UNL     1      -1.141  11.583  22.553  0.00  0.00    +0.000 C 
BRANCH  18  19
ATOM     19  C   UNL     1      -1.911  12.576  23.259  0.00  0.00    +0.000 A 
ATOM     20  C   UNL     1      -3.234  12.315  23.637  0.00  0.00    +0.000 A 
ATOM     21  C   UNL     1      -4.006  13.303  24.263  0.00  0.00    +0.000 A 
ATOM     22  C   UNL     1      -3.448  14.552  24.513  0.00  0.00    +0.000 A 
ATOM     23  C   UNL     1      -2.128  14.818  24.168  0.00  0.00    +0.000 A 
ATOM     24  C   UNL     1      -1.360  13.832  23.539  0.00  0.00    +0.000 A 
BRANCH  22  25
ATOM     25  O   UNL     1      -4.170  15.556  25.090  0.00  0.00    +0.000 OA
ATOM     26  H   UNL     1      -4.827  15.166  25.689  0.00  0.00    +0.000 HD
ENDBRANCH  22  25
ENDBRANCH  18  19
ENDBRANCH   4  17
TORSDOF 6
ENDMDL
MODEL 2
REMARK VINA RESULT:      -7.9      0.109     11.818
REMARK  Name = 
REMARK  6 active torsions:
REMARK  status: ('A' for Active; 'I' for Inactive)
REMARK    1  A    between atoms: O_1  and  C_2
REMARK    2  A    between atoms: C_5  and  C_6
REMARK    3  A    between atoms: C_7  and  C_8
REMARK    4  A    between atoms: C_11  and  C_12
REMARK    5  A    between atoms: C_13  and  C_14
REMARK    6  A    between atoms: C_17  and  O_18
REMARK                            x       y       z     vdW  Elec       q    Type
REMARK                         _______ _______ _______ _____ _____    ______ ____
ROOT
ATOM      1  C   UNL     1       0.172   9.903  20.975  0.00  0.00    +0.000 A 
ATOM      2  C   UNL     1       0.726   8.740  21.522  0.00  0.00    +0.000 A 
ATOM      3  C   UNL     1       1.550   7.903  20.745  0.00  0.00    +0.000 A 
ATOM      4  C   UNL     1       1.828   8.214  19.411  0.00  0.00    +0.000 A 
ATOM      5  C   UNL     1       1.246   9.357  18.854  0.00  0.00    +0.000 A 
ATOM      6  C   UNL     1       0.424  10.195  19.631  0.00  0.00    +0.000 A 
ENDROOT
BRANCH   1   8
ATOM      7  C   UNL     1      -1.214  11.605  22.459  0.00  0.00    +0.000 C 
ATOM      8  C   UNL     1      -0.599  10.804  21.797  0.00  0.00    +0.000 C 
BRANCH   7  12
ATOM      9  C   UNL     1      -3.322  14.607  24.573  0.00  0.00    +0.000 A 
ATOM     10  C   UNL     1      -2.004  14.832  24.190  0.00  0.00    +0.000 A 
ATOM     11  C   UNL     1      -1.302  13.828  23.512  0.00  0.00    +0.000 A 
ATOM     12  C   UNL     1      -1.916  12.606  23.214  0.00  0.00    +0.000 A 
ATOM     13  C   UNL     1      -3.236  12.387  23.629  0.00  0.00    +0.000 A 
ATOM     14  C   UNL     1      -3.938  13.389  24.308  0.00  0.00    +0.000 A 
BRANCH   9  15
ATOM     15  O   UNL     1      -4.054  15.565  25.210  0.00  0.00    +0.000 OA
ATOM     16  H   UNL     1      -3.957  15.452  26.169  0.00  0.00    +0.000 HD
ENDBRANCH   9  15
ENDBRANCH   7  12
ENDBRANCH   1   8
BRANCH   4  17
ATOM     17  C   UNL     1       2.738   7.401  18.642  0.00  0.00    +0.000 C 
ATOM     18  C   UNL     1       3.455   6.718  17.957  0.00  0.00    +0.000 C 
BRANCH  18  19
ATOM     19  C   UNL     1       4.260   5.894  17.090  0.00  0.00    +0.000 A 
ATOM     20  C   UNL     1       5.023   6.470  16.066  0.00  0.00    +0.000 A 
ATOM     21  C   UNL     1       5.752   5.665  15.180  0.00  0.00    +0.000 A 
ATOM     22  C   UNL     1       5.718   4.282  15.325  0.00  0.00    +0.000 A 
ATOM     23  C   UNL     1       4.988   3.697  16.352  0.00  0.00    +0.000 A 
ATOM     24  C   UNL     1       4.256   4.501  17.233  0.00  0.00    +0.000 A 
BRANCH  22  25
ATOM     25  O   UNL     1       6.385   3.457  14.467  0.00  0.00    +0.000 OA
ATOM     26  H   UNL     1       7.313   3.397  14.747  0.00  0.00    +0.000 HD
ENDBRANCH  22  25
ENDBRANCH  18  19
ENDBRANCH   4  17
TORSDOF 6
ENDMDL
MODEL 3
REMARK VINA RESULT:      -7.8      0.193      1.004
REMARK  Name = 
REMARK  6 active torsions:
REMARK  status: ('A' for Active; 'I' for Inactive)
REMARK    1  A    between atoms: O_1  and  C_2
REMARK    2  A    between atoms: C_5  and  C_6
REMARK    3  A    between atoms: C_7  and  C_8
REMARK    4  A    between atoms: C_11  and  C_12
REMARK    5  A    between atoms: C_13  and  C_14
REMARK    6  A    between atoms: C_17  and  O_18
REMARK                            x       y       z     vdW  Elec       q    Type
REMARK                         _______ _______ _______ _____ _____    ______ ____
ROOT
ATOM      1  C   UNL     1       1.896   8.068  19.383  0.00  0.00    +0.000 A 
ATOM      2  C   UNL     1       1.393   9.249  18.825  0.00  0.00    +0.000 A 
ATOM      3  C   UNL     1       0.633  10.144  19.601  0.00  0.00    +0.000 A 
ATOM      4  C   UNL     1       0.362   9.871  20.946  0.00  0.00    +0.000 A 
ATOM      5  C   UNL     1       0.835   8.674  21.495  0.00  0.00    +0.000 A 
ATOM      6  C   UNL     1       1.596   7.779  20.719  0.00  0.00    +0.000 A 
ENDROOT
BRANCH   1   8
ATOM      7  C   UNL     1       3.449   6.502  17.915  0.00  0.00    +0.000 C 
ATOM      8  C   UNL     1       2.747   7.196  18.611  0.00  0.00    +0.000 C 
BRANCH   7  12
ATOM      9  C   UNL     1       5.784   4.178  15.256  0.00  0.00    +0.000 A 
ATOM     10  C   UNL     1       5.060   3.551  16.264  0.00  0.00    +0.000 A 
ATOM     11  C   UNL     1       4.307   4.324  17.157  0.00  0.00    +0.000 A 
ATOM     12  C   UNL     1       4.276   5.718  17.039  0.00  0.00    +0.000 A 
ATOM     13  C   UNL     1       5.030   6.335  16.033  0.00  0.00    +0.000 A 
ATOM     14  C   UNL     1       5.783   5.563  15.141  0.00  0.00    +0.000 A 
BRANCH   9  15
ATOM     15  O   UNL     1       6.507   3.465  14.346  0.00  0.00    +0.000 OA
ATOM     16  H   UNL     1       6.675   2.577  14.702  0.00  0.00    +0.000 HD
ENDBRANCH   9  15
ENDBRANCH   7  12
ENDBRANCH   1   8
BRANCH   4  17
ATOM     17  C   UNL     1      -0.345  10.827  21.761  0.00  0.00    +0.000 C 
ATOM     18  C   UNL     1      -0.971  11.638  22.394  0.00  0.00    +0.000 C 
BRANCH  18  19
ATOM     19  C   UNL     1      -1.758  12.623  23.093  0.00  0.00    +0.000 A 
ATOM     20  C   UNL     1      -1.196  13.850  23.466  0.00  0.00    +0.000 A 
ATOM     21  C   UNL     1      -1.940  14.780  24.205  0.00  0.00    +0.000 A 
ATOM     22  C   UNL     1      -3.250  14.479  24.566  0.00  0.00    +0.000 A 
ATOM     23  C   UNL     1      -3.830  13.277  24.180  0.00  0.00    +0.000 A 
ATOM     24  C   UNL     1      -3.085  12.347  23.446  0.00  0.00    +0.000 A 
BRANCH  22  25
ATOM     25  O   UNL     1      -4.001  15.339  25.312  0.00  0.00    +0.000 OA
ATOM     26  H   UNL     1      -4.649  15.774  24.733  0.00  0.00    +0.000 HD
ENDBRANCH  22  25
ENDBRANCH  18  19
ENDBRANCH   4  17
TORSDOF 6
ENDMDL
MODEL 4
REMARK VINA RESULT:      -7.7      0.214     11.794
REMARK  Name = 
REMARK  6 active torsions:
REMARK  status: ('A' for Active; 'I' for Inactive)
REMARK    1  A    between atoms: O_1  and  C_2
REMARK    2  A    between atoms: C_5  and  C_6
REMARK    3  A    between atoms: C_7  and  C_8
REMARK    4  A    between atoms: C_11  and  C_12
REMARK    5  A    between atoms: C_13  and  C_14
REMARK    6  A    between atoms: C_17  and  O_18
REMARK                            x       y       z     vdW  Elec       q    Type
REMARK                         _______ _______ _______ _____ _____    ______ ____
ROOT
ATOM      1  C   UNL     1       0.315  10.060  20.954  0.00  0.00    +0.000 A 
ATOM      2  C   UNL     1       0.765   8.861  21.517  0.00  0.00    +0.000 A 
ATOM      3  C   UNL     1       1.504   7.940  20.751  0.00  0.00    +0.000 A 
ATOM      4  C   UNL     1       1.801   8.203  19.409  0.00  0.00    +0.000 A 
ATOM      5  C   UNL     1       1.322   9.386  18.836  0.00  0.00    +0.000 A 
ATOM      6  C   UNL     1       0.583  10.307  19.603  0.00  0.00    +0.000 A 
ENDROOT
BRANCH   1   8
ATOM      7  C   UNL     1      -0.984  11.857  22.404  0.00  0.00    +0.000 C 
ATOM      8  C   UNL     1      -0.366  11.041  21.764  0.00  0.00    +0.000 C 
BRANCH   7  12
ATOM      9  C   UNL     1      -3.268  14.628  24.647  0.00  0.00    +0.000 A 
ATOM     10  C   UNL     1      -3.848  13.433  24.234  0.00  0.00    +0.000 A 
ATOM     11  C   UNL     1      -3.098  12.529  23.472  0.00  0.00    +0.000 A 
ATOM     12  C   UNL     1      -1.771  12.817  23.128  0.00  0.00    +0.000 A 
ATOM     13  C   UNL     1      -1.211  14.035  23.532  0.00  0.00    +0.000 A 
ATOM     14  C   UNL     1      -1.961  14.940  24.293  0.00  0.00    +0.000 A 
BRANCH   9  15
ATOM     15  O   UNL     1      -3.951  15.525  25.414  0.00  0.00    +0.000 OA
ATOM     16  H   UNL     1      -4.655  15.059  25.894  0.00  0.00    +0.000 HD
ENDBRANCH   9  15
ENDBRANCH   7  12
ENDBRANCH   1   8
BRANCH   4  17
ATOM     17  C   UNL     1       2.629   7.299  18.650  0.00  0.00    +0.000 C 
ATOM     18  C   UNL     1       3.333   6.589  17.978  0.00  0.00    +0.000 C 
BRANCH  18  19
ATOM     19  C   UNL     1       4.187   5.795  17.130  0.00  0.00    +0.000 A 
ATOM     20  C   UNL     1       4.987   6.404  16.155  0.00  0.00    +0.000 A 
ATOM     21  C   UNL     1       5.766   5.629  15.285  0.00  0.00    +0.000 A 
ATOM     22  C   UNL     1       5.744   4.242  15.397  0.00  0.00    +0.000 A 
ATOM     23  C   UNL     1       4.976   3.625  16.377  0.00  0.00    +0.000 A 
ATOM     24  C   UNL     1       4.195   4.400  17.242  0.00  0.00    +0.000 A 
BRANCH  22  25
ATOM     25  O   UNL     1       6.459   3.445  14.553  0.00  0.00    +0.000 OA
ATOM     26  H   UNL     1       6.587   3.913  13.711  0.00  0.00    +0.000 HD
ENDBRANCH  22  25
ENDBRANCH  18  19
ENDBRANCH   4  17
TORSDOF 6
ENDMDL
MODEL 5
REMARK VINA RESULT:      -7.6      0.576      1.135
REMARK  Name = 
REMARK  6 active torsions:
REMARK  status: ('A' for Active; 'I' for Inactive)
REMARK    1  A    between atoms: O_1  and  C_2
REMARK    2  A    between atoms: C_5  and  C_6
REMARK    3  A    between atoms: C_7  and  C_8
REMARK    4  A    between atoms: C_11  and  C_12
REMARK    5  A    between atoms: C_13  and  C_14
REMARK    6  A    between atoms: C_17  and  O_18
REMARK                            x       y       z     vdW  Elec       q    Type
REMARK                         _______ _______ _______ _____ _____    ______ ____
ROOT
ATOM      1  C   UNL     1       1.536   8.504  19.564  0.00  0.00    +0.000 A 
ATOM      2  C   UNL     1       1.044   9.709  19.049  0.00  0.00    +0.000 A 
ATOM      3  C   UNL     1       0.295  10.584  19.858  0.00  0.00    +0.000 A 
ATOM      4  C   UNL     1       0.024  10.266  21.192  0.00  0.00    +0.000 A 
ATOM      5  C   UNL     1       0.486   9.047  21.698  0.00  0.00    +0.000 A 
ATOM      6  C   UNL     1       1.236   8.172  20.889  0.00  0.00    +0.000 A 
ENDROOT
BRANCH   1   8
ATOM      7  C   UNL     1       3.061   6.890  18.120  0.00  0.00    +0.000 C 
ATOM      8  C   UNL     1       2.377   7.651  18.759  0.00  0.00    +0.000 C 
BRANCH   7  12
ATOM      9  C   UNL     1       5.477   4.082  16.068  0.00  0.00    +0.000 A 
ATOM     10  C   UNL     1       5.651   5.442  15.832  0.00  0.00    +0.000 A 
ATOM     11  C   UNL     1       4.834   6.367  16.494  0.00  0.00    +0.000 A 
ATOM     12  C   UNL     1       3.851   5.934  17.392  0.00  0.00    +0.000 A 
ATOM     13  C   UNL     1       3.674   4.561  17.599  0.00  0.00    +0.000 A 
ATOM     14  C   UNL     1       4.488   3.636  16.937  0.00  0.00    +0.000 A 
BRANCH   9  15
ATOM     15  O   UNL     1       6.267   3.147  15.468  0.00  0.00    +0.000 OA
ATOM     16  H   UNL     1       7.054   3.584  15.105  0.00  0.00    +0.000 HD
ENDBRANCH   9  15
ENDBRANCH   7  12
ENDBRANCH   1   8
BRANCH   4  17
ATOM     17  C   UNL     1      -0.671  11.201  22.043  0.00  0.00    +0.000 C 
ATOM     18  C   UNL     1      -1.263  12.015  22.704  0.00  0.00    +0.000 C 
BRANCH  18  19
ATOM     19  C   UNL     1      -1.981  13.029  23.435  0.00  0.00    +0.000 A 
ATOM     20  C   UNL     1      -3.330  12.847  23.767  0.00  0.00    +0.000 A 
ATOM     21  C   UNL     1      -4.047  13.859  24.419  0.00  0.00    +0.000 A 
ATOM     22  C   UNL     1      -3.409  15.053  24.740  0.00  0.00    +0.000 A 
ATOM     23  C   UNL     1      -2.065  15.238  24.442  0.00  0.00    +0.000 A 
ATOM     24  C   UNL     1      -1.351  14.228  23.787  0.00  0.00    +0.000 A 
BRANCH  22  25
ATOM     25  O   UNL     1      -4.074  16.079  25.344  0.00  0.00    +0.000 OA
ATOM     26  H   UNL     1      -4.583  16.563  24.673  0.00  0.00    +0.000 HD
ENDBRANCH  22  25
ENDBRANCH  18  19
ENDBRANCH   4  17
TORSDOF 6
ENDMDL
MODEL 6
REMARK VINA RESULT:      -7.6      0.261     11.752
REMARK  Name = 
REMARK  6 active torsions:
REMARK  status: ('A' for Active; 'I' for Inactive)
REMARK    1  A    between atoms: O_1  and  C_2
REMARK    2  A    between atoms: C_5  and  C_6
REMARK    3  A    between atoms: C_7  and  C_8
REMARK    4  A    between atoms: C_11  and  C_12
REMARK    5  A    between atoms: C_13  and  C_14
REMARK    6  A    between atoms: C_17  and  O_18
REMARK                            x       y       z     vdW  Elec       q    Type
REMARK                         _______ _______ _______ _____ _____    ______ ____
ROOT
ATOM      1  C   UNL     1       0.113   9.950  20.993  0.00  0.00    +0.000 A 
ATOM      2  C   UNL     1       0.675   8.807  21.573  0.00  0.00    +0.000 A 
ATOM      3  C   UNL     1       1.471   7.932  20.811  0.00  0.00    +0.000 A 
ATOM      4  C   UNL     1       1.713   8.184  19.457  0.00  0.00    +0.000 A 
ATOM      5  C   UNL     1       1.123   9.307  18.868  0.00  0.00    +0.000 A 
ATOM      6  C   UNL     1       0.328  10.183  19.631  0.00  0.00    +0.000 A 
ENDROOT
BRANCH   1   8
ATOM      7  C   UNL     1      -1.213  11.724  22.447  0.00  0.00    +0.000 C 
ATOM      8  C   UNL     1      -0.628  10.891  21.797  0.00  0.00    +0.000 C 
BRANCH   7  12
ATOM      9  C   UNL     1      -3.124  14.722  24.747  0.00  0.00    +0.000 A 
ATOM     10  C   UNL     1      -3.818  13.563  24.414  0.00  0.00    +0.000 A 
ATOM     11  C   UNL     1      -3.191  12.583  23.633  0.00  0.00    +0.000 A 
ATOM     12  C   UNL     1      -1.875  12.761  23.191  0.00  0.00    +0.000 A 
ATOM     13  C   UNL     1      -1.200  13.944  23.515  0.00  0.00    +0.000 A 
ATOM     14  C   UNL     1      -1.826  14.924  24.294  0.00  0.00    +0.000 A 
BRANCH   9  15
ATOM     15  O   UNL     1      -3.684  15.689  25.529  0.00  0.00    +0.000 OA
ATOM     16  H   UNL     1      -3.042  15.958  26.206  0.00  0.00    +0.000 HD
ENDBRANCH   9  15
ENDBRANCH   7  12
ENDBRANCH   1   8
BRANCH   4  17
ATOM     17  C   UNL     1       2.596   7.332  18.698  0.00  0.00    +0.000 C 
ATOM     18  C   UNL     1       3.307   6.641  18.014  0.00  0.00    +0.000 C 
BRANCH  18  19
ATOM     19  C   UNL     1       4.124   5.840  17.137  0.00  0.00    +0.000 A 
ATOM     20  C   UNL     1       4.132   4.444  17.250  0.00  0.00    +0.000 A 
ATOM     21  C   UNL     1       4.977   3.668  16.444  0.00  0.00    +0.000 A 
ATOM     22  C   UNL     1       5.810   4.294  15.523  0.00  0.00    +0.000 A 
ATOM     23  C   UNL     1       5.795   5.676  15.381  0.00  0.00    +0.000 A 
ATOM     24  C   UNL     1       4.954   6.451  16.190  0.00  0.00    +0.000 A 
BRANCH  22  25
ATOM     25  O   UNL     1       6.673   3.584  14.741  0.00  0.00    +0.000 OA
ATOM     26  H   UNL     1       6.311   2.693  14.603  0.00  0.00    +0.000 HD
ENDBRANCH  22  25
ENDBRANCH  18  19
ENDBRANCH   4  17
TORSDOF 6
ENDMDL
MODEL 7
REMARK VINA RESULT:      -7.5      0.507      1.474
REMARK  Name = 
REMARK  6 active torsions:
REMARK  status: ('A' for Active; 'I' for Inactive)
REMARK    1  A    between atoms: O_1  and  C_2
REMARK    2  A    between atoms: C_5  and  C_6
REMARK    3  A    between atoms: C_7  and  C_8
REMARK    4  A    between atoms: C_11  and  C_12
REMARK    5  A    between atoms: C_13  and  C_14
REMARK    6  A    between atoms: C_17  and  O_18
REMARK                            x       y       z     vdW  Elec       q    Type
REMARK                         _______ _______ _______ _____ _____    ______ ____
ROOT
ATOM      1  C   UNL     1       1.748   8.556  19.519  0.00  0.00    +0.000 A 
ATOM      2  C   UNL     1       1.426   8.224  20.840  0.00  0.00    +0.000 A 
ATOM      3  C   UNL     1       0.654   9.095  21.632  0.00  0.00    +0.000 A 
ATOM      4  C   UNL     1       0.195  10.311  21.116  0.00  0.00    +0.000 A 
ATOM      5  C   UNL     1       0.546  10.659  19.808  0.00  0.00    +0.000 A 
ATOM      6  C   UNL     1       1.317   9.788  19.015  0.00  0.00    +0.000 A 
ENDROOT
BRANCH   1   8
ATOM      7  C   UNL     1       3.099   6.830  18.031  0.00  0.00    +0.000 C 
ATOM      8  C   UNL     1       2.464   7.623  18.683  0.00  0.00    +0.000 C 
BRANCH   7  12
ATOM      9  C   UNL     1       5.511   4.008  15.995  0.00  0.00    +0.000 A 
ATOM     10  C   UNL     1       5.670   5.365  15.734  0.00  0.00    +0.000 A 
ATOM     11  C   UNL     1       4.854   6.294  16.391  0.00  0.00    +0.000 A 
ATOM     12  C   UNL     1       3.887   5.869  17.309  0.00  0.00    +0.000 A 
ATOM     13  C   UNL     1       3.724   4.498  17.542  0.00  0.00    +0.000 A 
ATOM     14  C   UNL     1       4.538   3.568  16.885  0.00  0.00    +0.000 A 
BRANCH   9  15
ATOM     15  O   UNL     1       6.301   3.069  15.401  0.00  0.00    +0.000 OA
ATOM     16  H   UNL     1       7.209   3.165  15.730  0.00  0.00    +0.000 HD
ENDBRANCH   9  15
ENDBRANCH   7  12
ENDBRANCH   1   8
BRANCH   4  17
ATOM     17  C   UNL     1      -0.665  11.163  21.900  0.00  0.00    +0.000 C 
ATOM     18  C   UNL     1      -1.356  11.922  22.530  0.00  0.00    +0.000 C 
BRANCH  18  19
ATOM     19  C   UNL     1      -2.147  12.886  23.254  0.00  0.00    +0.000 A 
ATOM     20  C   UNL     1      -3.501  12.644  23.514  0.00  0.00    +0.000 A 
ATOM     21  C   UNL     1      -4.287  13.609  24.158  0.00  0.00    +0.000 A 
ATOM     22  C   UNL     1      -3.712  14.815  24.545  0.00  0.00    +0.000 A 
ATOM     23  C   UNL     1      -2.363  15.059  24.318  0.00  0.00    +0.000 A 
ATOM     24  C   UNL     1      -1.580  14.096  23.670  0.00  0.00    +0.000 A 
BRANCH  22  25
ATOM     25  O   UNL     1      -4.445  15.797  25.145  0.00  0.00    +0.000 OA
ATOM     26  H   UNL     1      -5.388  15.586  25.053  0.00  0.00    +0.000 HD
ENDBRANCH  22  25
ENDBRANCH  18  19
ENDBRANCH   4  17
TORSDOF 6
ENDMDL
MODEL 8
REMARK VINA RESULT:      -7.5      0.407     11.756
REMARK  Name = 
REMARK  6 active torsions:
REMARK  status: ('A' for Active; 'I' for Inactive)
REMARK    1  A    between atoms: O_1  and  C_2
REMARK    2  A    between atoms: C_5  and  C_6
REMARK    3  A    between atoms: C_7  and  C_8
REMARK    4  A    between atoms: C_11  and  C_12
REMARK    5  A    between atoms: C_13  and  C_14
REMARK    6  A    between atoms: C_17  and  O_18
REMARK                            x       y       z     vdW  Elec       q    Type
REMARK                         _______ _______ _______ _____ _____    ______ ____
ROOT
ATOM      1  C   UNL     1       0.174  10.196  20.874  0.00  0.00    +0.000 A 
ATOM      2  C   UNL     1       0.489  10.464  19.537  0.00  0.00    +0.000 A 
ATOM      3  C   UNL     1       1.296   9.579  18.797  0.00  0.00    +0.000 A 
ATOM      4  C   UNL     1       1.802   8.414  19.384  0.00  0.00    +0.000 A 
ATOM      5  C   UNL     1       1.517   8.163  20.730  0.00  0.00    +0.000 A 
ATOM      6  C   UNL     1       0.709   9.048  21.470  0.00  0.00    +0.000 A 
ENDROOT
BRANCH   1   8
ATOM      7  C   UNL     1      -1.438  11.828  22.198  0.00  0.00    +0.000 C 
ATOM      8  C   UNL     1      -0.723  11.058  21.603  0.00  0.00    +0.000 C 
BRANCH   7  12
ATOM      9  C   UNL     1      -3.767  14.654  24.324  0.00  0.00    +0.000 A 
ATOM     10  C   UNL     1      -4.105  13.306  24.374  0.00  0.00    +0.000 A 
ATOM     11  C   UNL     1      -3.348  12.376  23.651  0.00  0.00    +0.000 A 
ATOM     12  C   UNL     1      -2.253  12.793  22.884  0.00  0.00    +0.000 A 
ATOM     13  C   UNL     1      -1.941  14.157  22.825  0.00  0.00    +0.000 A 
ATOM     14  C   UNL     1      -2.699  15.086  23.547  0.00  0.00    +0.000 A 
BRANCH   9  15
ATOM     15  O   UNL     1      -4.458  15.590  25.034  0.00  0.00    +0.000 OA
ATOM     16  H   UNL     1      -5.340  15.242  25.243  0.00  0.00    +0.000 HD
ENDBRANCH   9  15
ENDBRANCH   7  12
ENDBRANCH   1   8
BRANCH   4  17
ATOM     17  C   UNL     1       2.558   7.468  18.602  0.00  0.00    +0.000 C 
ATOM     18  C   UNL     1       3.233   6.719  17.942  0.00  0.00    +0.000 C 
BRANCH  18  19
ATOM     19  C   UNL     1       4.087   5.876  17.143  0.00  0.00    +0.000 A 
ATOM     20  C   UNL     1       4.931   6.433  16.173  0.00  0.00    +0.000 A 
ATOM     21  C   UNL     1       5.711   5.610  15.350  0.00  0.00    +0.000 A 
ATOM     22  C   UNL     1       5.647   4.229  15.503  0.00  0.00    +0.000 A 
ATOM     23  C   UNL     1       4.835   3.663  16.478  0.00  0.00    +0.000 A 
ATOM     24  C   UNL     1       4.052   4.485  17.297  0.00  0.00    +0.000 A 
BRANCH  22  25
ATOM     25  O   UNL     1       6.363   3.387  14.703  0.00  0.00    +0.000 OA
ATOM     26  H   UNL     1       6.918   3.916  14.107  0.00  0.00    +0.000 HD
ENDBRANCH  22  25
ENDBRANCH  18  19
ENDBRANCH   4  17
TORSDOF 6
ENDMDL
MODEL 9
REMARK VINA RESULT:      -7.4      0.406      1.062
REMARK  Name = 
REMARK  6 active torsions:
REMARK  status: ('A' for Active; 'I' for Inactive)
REMARK    1  A    between atoms: O_1  and  C_2
REMARK    2  A    between atoms: C_5  and  C_6
REMARK    3  A    between atoms: C_7  and  C_8
REMARK    4  A    between atoms: C_11  and  C_12
REMARK    5  A    between atoms: C_13  and  C_14
REMARK    6  A    between atoms: C_17  and  O_18
REMARK                            x       y       z     vdW  Elec       q    Type
REMARK                         _______ _______ _______ _____ _____    ______ ____
ROOT
ATOM      1  C   UNL     1       1.830   8.395  19.592  0.00  0.00    +0.000 A 
ATOM      2  C   UNL     1       1.502   8.122  20.925  0.00  0.00    +0.000 A 
ATOM      3  C   UNL     1       0.671   8.993  21.654  0.00  0.00    +0.000 A 
ATOM      4  C   UNL     1       0.158  10.152  21.062  0.00  0.00    +0.000 A 
ATOM      5  C   UNL     1       0.513  10.444  19.741  0.00  0.00    +0.000 A 
ATOM      6  C   UNL     1       1.344   9.572  19.012  0.00  0.00    +0.000 A 
ENDROOT
BRANCH   1   8
ATOM      7  C   UNL     1       3.263   6.712  18.131  0.00  0.00    +0.000 C 
ATOM      8  C   UNL     1       2.609   7.456  18.822  0.00  0.00    +0.000 C 
BRANCH   7  12
ATOM      9  C   UNL     1       5.470   4.243  15.494  0.00  0.00    +0.000 A 
ATOM     10  C   UNL     1       4.609   3.664  16.421  0.00  0.00    +0.000 A 
ATOM     11  C   UNL     1       3.898   4.482  17.308  0.00  0.00    +0.000 A 
ATOM     12  C   UNL     1       4.045   5.874  17.265  0.00  0.00    +0.000 A 
ATOM     13  C   UNL     1       4.934   6.438  16.342  0.00  0.00    +0.000 A 
ATOM     14  C   UNL     1       5.645   5.621  15.456  0.00  0.00    +0.000 A 
BRANCH   9  15
ATOM     15  O   UNL     1       6.161   3.488  14.592  0.00  0.00    +0.000 OA
ATOM     16  H   UNL     1       6.028   3.857  13.704  0.00  0.00    +0.000 HD
ENDBRANCH   9  15
ENDBRANCH   7  12
ENDBRANCH   1   8
BRANCH   4  17
ATOM     17  C   UNL     1      -0.760  11.000  21.782  0.00  0.00    +0.000 C 
ATOM     18  C   UNL     1      -1.493  11.756  22.368  0.00  0.00    +0.000 C 
BRANCH  18  19
ATOM     19  C   UNL     1      -2.326  12.714  23.050  0.00  0.00    +0.000 A 
ATOM     20  C   UNL     1      -3.708  12.509  23.154  0.00  0.00    +0.000 A 
ATOM     21  C   UNL     1      -4.528  13.473  23.758  0.00  0.00    +0.000 A 
ATOM     22  C   UNL     1      -3.959  14.639  24.260  0.00  0.00    +0.000 A 
ATOM     23  C   UNL     1      -2.587  14.844  24.189  0.00  0.00    +0.000 A 
ATOM     24  C   UNL     1      -1.770  13.883  23.582  0.00  0.00    +0.000 A 
BRANCH  22  25
ATOM     25  O   UNL     1      -4.721  15.619  24.826  0.00  0.00    +0.000 OA
ATOM     26  H   UNL     1      -4.425  15.758  25.741  0.00  0.00    +0.000 HD
ENDBRANCH  22  25
ENDBRANCH  18  19
ENDBRANCH   4  17
TORSDOF 6
ENDMDL
