MODEL 1
REMARK VINA RESULT:      -8.8      0.000      0.000
REMARK  Name = 
REMARK  5 active torsions:
REMARK  status: ('A' for Active; 'I' for Inactive)
REMARK    1  A    between atoms: C_4  and  C_5
REMARK    2  A    between atoms: C_9  and  C_10
REMARK    3  A    between atoms: C_11  and  C_12
REMARK    4  A    between atoms: C_14  and  O_15
REMARK    5  A    between atoms: C_18  and  C_19
REMARK                            x       y       z     vdW  Elec       q    Type
REMARK                         _______ _______ _______ _____ _____    ______ ____
ROOT
ATOM      1  O   UNL     1       1.029   3.461  20.548  0.00  0.00    +0.000 OA
ATOM      2  C   UNL     1       1.700   4.317  20.004  0.00  0.00    +0.000 C 
ATOM      3  N   UNL     1       1.934   4.389  18.663  0.00  0.00    +0.000 N 
ATOM      4  C   UNL     1       2.796   5.478  18.335  0.00  0.00    +0.000 C 
ATOM      5  C   UNL     1       2.871   6.248  19.665  0.00  0.00    +0.000 C 
ATOM      6  O   UNL     1       2.318   5.347  20.647  0.00  0.00    +0.000 OA
ATOM      7  H   UNL     1       1.525   3.727  18.021  0.00  0.00    +0.000 HD
ENDROOT
BRANCH   5   8
ATOM      8  C   UNL     1       2.071   7.544  19.606  0.00  0.00    +0.000 A 
ATOM      9  C   UNL     1       1.991   8.324  18.435  0.00  0.00    +0.000 A 
ATOM     10  C   UNL     1       1.360   9.571  18.444  0.00  0.00    +0.000 A 
ATOM     11  C   UNL     1       0.797  10.058  19.620  0.00  0.00    +0.000 A 
ATOM     12  C   UNL     1       0.847   9.282  20.771  0.00  0.00    +0.000 A 
ATOM     13  F   UNL     1       0.306   9.747  21.904  0.00  0.00    +0.000 F 
ATOM     14  C   UNL     1       1.469   8.036  20.774  0.00  0.00    +0.000 A 
ENDBRANCH   5   8
BRANCH   4  15
ATOM     15  C   UNL     1       4.121   5.022  17.769  0.00  0.00    +0.000 A 
ATOM     16  C   UNL     1       5.210   4.846  18.625  0.00  0.00    +0.000 A 
ATOM     17  N   UNL     1       6.444   4.459  18.230  0.00  0.00    +0.000 NA
ATOM     18  C   UNL     1       6.619   4.229  16.905  0.00  0.00    +0.000 A 
ATOM     19  C   UNL     1       5.612   4.365  15.962  0.00  0.00    +0.000 A 
ATOM     20  C   UNL     1       4.350   4.768  16.404  0.00  0.00    +0.000 A 
BRANCH  19  21
ATOM     21  C   UNL     1       5.856   4.123  14.569  0.00  0.00    +0.000 C 
ATOM     22  C   UNL     1       6.044   3.883  13.405  0.00  0.00    +0.000 C 
BRANCH  22  23
ATOM     23  C   UNL     1       6.216   3.539  12.002  0.00  0.00    +0.000 C 
ATOM     24  C   UNL     1       7.254   2.437  11.684  0.00  0.00    +0.000 C 
ATOM     25  C   UNL     1       6.097   1.413  11.631  0.00  0.00    +0.000 C 
ATOM     26  C   UNL     1       5.144   2.603  11.390  0.00  0.00    +0.000 C 
BRANCH  25  27
ATOM     27  O   UNL     1       6.164   0.419  10.593  0.00  0.00    +0.000 OA
ATOM     28  H   UNL     1       5.244   0.200  10.368  0.00  0.00    +0.000 HD
ENDBRANCH  25  27
ENDBRANCH  22  23
ENDBRANCH  19  21
ENDBRANCH   4  15
TORSDOF 5
ENDMDL
MODEL 2
REMARK VINA RESULT:      -8.8      3.387      4.541
REMARK  Name = 
REMARK  5 active torsions:
REMARK  status: ('A' for Active; 'I' for Inactive)
REMARK    1  A    between atoms: C_4  and  C_5
REMARK    2  A    between atoms: C_9  and  C_10
REMARK    3  A    between atoms: C_11  and  C_12
REMARK    4  A    between atoms: C_14  and  O_15
REMARK    5  A    between atoms: C_18  and  C_19
REMARK                            x       y       z     vdW  Elec       q    Type
REMARK                         _______ _______ _______ _____ _____    ______ ____
ROOT
ATOM      1  O   UNL     1       7.284   5.328  20.273  0.00  0.00    +0.000 OA
ATOM      2  C   UNL     1       6.474   5.133  19.387  0.00  0.00    +0.000 C 
ATOM      3  N   UNL     1       6.501   4.078  18.524  0.00  0.00    +0.000 N 
ATOM      4  C   UNL     1       5.445   4.149  17.568  0.00  0.00    +0.000 C 
ATOM      5  C   UNL     1       4.580   5.296  18.122  0.00  0.00    +0.000 C 
ATOM      6  O   UNL     1       5.404   5.932  19.120  0.00  0.00    +0.000 OA
ATOM      7  H   UNL     1       7.206   3.359  18.595  0.00  0.00    +0.000 HD
ENDROOT
BRANCH   5   8
ATOM      8  C   UNL     1       3.287   4.774  18.736  0.00  0.00    +0.000 A 
ATOM      9  C   UNL     1       2.615   5.460  19.767  0.00  0.00    +0.000 A 
ATOM     10  C   UNL     1       1.505   4.896  20.402  0.00  0.00    +0.000 A 
ATOM     11  C   UNL     1       1.047   3.638  20.016  0.00  0.00    +0.000 A 
ATOM     12  C   UNL     1       1.687   2.969  18.981  0.00  0.00    +0.000 A 
ATOM     13  F   UNL     1       1.249   1.760  18.607  0.00  0.00    +0.000 F 
ATOM     14  C   UNL     1       2.792   3.523  18.338  0.00  0.00    +0.000 A 
ENDBRANCH   5   8
BRANCH   4  15
ATOM     15  C   UNL     1       5.949   4.335  16.156  0.00  0.00    +0.000 A 
ATOM     16  C   UNL     1       7.212   4.891  15.945  0.00  0.00    +0.000 A 
ATOM     17  N   UNL     1       7.759   5.120  14.729  0.00  0.00    +0.000 NA
ATOM     18  C   UNL     1       7.012   4.779  13.649  0.00  0.00    +0.000 A 
ATOM     19  C   UNL     1       5.749   4.217  13.734  0.00  0.00    +0.000 A 
ATOM     20  C   UNL     1       5.214   3.995  15.005  0.00  0.00    +0.000 A 
BRANCH  19  21
ATOM     21  C   UNL     1       4.997   3.889  12.557  0.00  0.00    +0.000 C 
ATOM     22  C   UNL     1       4.370   3.575  11.579  0.00  0.00    +0.000 C 
BRANCH  22  23
ATOM     23  C   UNL     1       3.598   3.127  10.430  0.00  0.00    +0.000 C 
ATOM     24  C   UNL     1       2.096   3.498  10.420  0.00  0.00    +0.000 C 
ATOM     25  C   UNL     1       2.438   4.707   9.521  0.00  0.00    +0.000 C 
ATOM     26  C   UNL     1       3.740   3.970   9.139  0.00  0.00    +0.000 C 
BRANCH  25  27
ATOM     27  O   UNL     1       1.520   4.993   8.450  0.00  0.00    +0.000 OA
ATOM     28  H   UNL     1       1.733   5.890   8.142  0.00  0.00    +0.000 HD
ENDBRANCH  25  27
ENDBRANCH  22  23
ENDBRANCH  19  21
ENDBRANCH   4  15
TORSDOF 5
ENDMDL
MODEL 3
REMARK VINA RESULT:      -8.7      0.902      1.303
REMARK  Name = 
REMARK  5 active torsions:
REMARK  status: ('A' for Active; 'I' for Inactive)
REMARK    1  A    between atoms: C_4  and  C_5
REMARK    2  A    between atoms: C_9  and  C_10
REMARK    3  A    between atoms: C_11  and  C_12
REMARK    4  A    between atoms: C_14  and  O_15
REMARK    5  A    between atoms: C_18  and  C_19
REMARK                            x       y       z     vdW  Elec       q    Type
REMARK                         _______ _______ _______ _____ _____    ______ ____
ROOT
ATOM      1  O   UNL     1       1.113   3.304  20.756  0.00  0.00    +0.000 OA
ATOM      2  C   UNL     1       1.766   4.180  20.222  0.00  0.00    +0.000 C 
ATOM      3  N   UNL     1       1.951   4.304  18.877  0.00  0.00    +0.000 N 
ATOM      4  C   UNL     1       2.803   5.404  18.560  0.00  0.00    +0.000 C 
ATOM      5  C   UNL     1       2.928   6.122  19.916  0.00  0.00    +0.000 C 
ATOM      6  O   UNL     1       2.409   5.184  20.881  0.00  0.00    +0.000 OA
ATOM      7  H   UNL     1       1.517   3.667  18.225  0.00  0.00    +0.000 HD
ENDROOT
BRANCH   5   8
ATOM      8  C   UNL     1       2.129   7.420  19.936  0.00  0.00    +0.000 A 
ATOM      9  C   UNL     1       1.332   7.794  21.036  0.00  0.00    +0.000 A 
ATOM     10  C   UNL     1       0.509   8.922  20.977  0.00  0.00    +0.000 A 
ATOM     11  C   UNL     1       0.469   9.695  19.820  0.00  0.00    +0.000 A 
ATOM     12  C   UNL     1       1.275   9.349  18.743  0.00  0.00    +0.000 A 
ATOM     13  F   UNL     1       1.239  10.090  17.628  0.00  0.00    +0.000 F 
ATOM     14  C   UNL     1       2.102   8.229  18.790  0.00  0.00    +0.000 A 
ENDBRANCH   5   8
BRANCH   4  15
ATOM     15  C   UNL     1       4.105   4.969  17.929  0.00  0.00    +0.000 A 
ATOM     16  C   UNL     1       5.226   4.768  18.736  0.00  0.00    +0.000 A 
ATOM     17  N   UNL     1       6.444   4.396  18.281  0.00  0.00    +0.000 NA
ATOM     18  C   UNL     1       6.568   4.210  16.943  0.00  0.00    +0.000 A 
ATOM     19  C   UNL     1       5.526   4.375  16.044  0.00  0.00    +0.000 A 
ATOM     20  C   UNL     1       4.281   4.761  16.548  0.00  0.00    +0.000 A 
BRANCH  19  21
ATOM     21  C   UNL     1       5.715   4.179  14.637  0.00  0.00    +0.000 C 
ATOM     22  C   UNL     1       5.879   3.976  13.462  0.00  0.00    +0.000 C 
BRANCH  22  23
ATOM     23  C   UNL     1       6.056   3.655  12.053  0.00  0.00    +0.000 C 
ATOM     24  C   UNL     1       7.165   2.631  11.713  0.00  0.00    +0.000 C 
ATOM     25  C   UNL     1       6.082   1.529  11.666  0.00  0.00    +0.000 C 
ATOM     26  C   UNL     1       5.044   2.651  11.447  0.00  0.00    +0.000 C 
BRANCH  25  27
ATOM     27  O   UNL     1       6.205   0.550  10.619  0.00  0.00    +0.000 OA
ATOM     28  H   UNL     1       7.061   0.717  10.190  0.00  0.00    +0.000 HD
ENDBRANCH  25  27
ENDBRANCH  22  23
ENDBRANCH  19  21
ENDBRANCH   4  15
TORSDOF 5
ENDMDL
MODEL 4
REMARK VINA RESULT:      -8.7      3.907      9.169
REMARK  Name = 
REMARK  5 active torsions:
REMARK  status: ('A' for Active; 'I' for Inactive)
REMARK    1  A    between atoms: C_4  and  C_5
REMARK    2  A    between atoms: C_9  and  C_10
REMARK    3  A    between atoms: C_11  and  C_12
REMARK    4  A    between atoms: C_14  and  O_15
REMARK    5  A    between atoms: C_18  and  C_19
REMARK                            x       y       z     vdW  Elec       q    Type
REMARK                         _______ _______ _______ _____ _____    ______ ____
ROOT
ATOM      1  O   UNL     1       8.027   7.682  17.295  0.00  0.00    +0.000 OA
ATOM      2  C   UNL     1       7.230   6.850  16.905  0.00  0.00    +0.000 C 
ATOM      3  N   UNL     1       5.924   7.102  16.606  0.00  0.00    +0.000 N 
ATOM      4  C   UNL     1       5.231   5.915  16.220  0.00  0.00    +0.000 C 
ATOM      5  C   UNL     1       6.379   4.900  16.076  0.00  0.00    +0.000 C 
ATOM      6  O   UNL     1       7.516   5.534  16.697  0.00  0.00    +0.000 OA
ATOM      7  H   UNL     1       5.541   8.034  16.667  0.00  0.00    +0.000 HD
ENDROOT
BRANCH   5   8
ATOM      8  C   UNL     1       6.664   4.584  14.613  0.00  0.00    +0.000 A 
ATOM      9  C   UNL     1       7.632   5.287  13.868  0.00  0.00    +0.000 A 
ATOM     10  C   UNL     1       7.783   5.067  12.496  0.00  0.00    +0.000 A 
ATOM     11  C   UNL     1       6.972   4.140  11.846  0.00  0.00    +0.000 A 
ATOM     12  C   UNL     1       6.036   3.422  12.581  0.00  0.00    +0.000 A 
ATOM     13  F   UNL     1       5.254   2.530  11.959  0.00  0.00    +0.000 F 
ATOM     14  C   UNL     1       5.879   3.630  13.949  0.00  0.00    +0.000 A 
ENDBRANCH   5   8
BRANCH   4  15
ATOM     15  C   UNL     1       4.142   5.535  17.196  0.00  0.00    +0.000 A 
ATOM     16  C   UNL     1       3.616   4.243  17.170  0.00  0.00    +0.000 A 
ATOM     17  N   UNL     1       2.629   3.797  17.980  0.00  0.00    +0.000 NA
ATOM     18  C   UNL     1       2.127   4.682  18.876  0.00  0.00    +0.000 A 
ATOM     19  C   UNL     1       2.571   5.989  18.998  0.00  0.00    +0.000 A 
ATOM     20  C   UNL     1       3.591   6.417  18.144  0.00  0.00    +0.000 A 
BRANCH  19  21
ATOM     21  C   UNL     1       1.994   6.888  19.955  0.00  0.00    +0.000 C 
ATOM     22  C   UNL     1       1.545   7.647  20.774  0.00  0.00    +0.000 C 
BRANCH  22  23
ATOM     23  C   UNL     1       1.074   8.593  21.775  0.00  0.00    +0.000 C 
ATOM     24  C   UNL     1       1.140  10.091  21.393  0.00  0.00    +0.000 C 
ATOM     25  C   UNL     1      -0.350  10.016  20.991  0.00  0.00    +0.000 C 
ATOM     26  C   UNL     1      -0.461   8.763  21.887  0.00  0.00    +0.000 C 
BRANCH  25  27
ATOM     27  O   UNL     1      -1.172  11.142  21.351  0.00  0.00    +0.000 OA
ATOM     28  H   UNL     1      -2.093  10.842  21.268  0.00  0.00    +0.000 HD
ENDBRANCH  25  27
ENDBRANCH  22  23
ENDBRANCH  19  21
ENDBRANCH   4  15
TORSDOF 5
ENDMDL
MODEL 5
REMARK VINA RESULT:      -8.2      3.897      9.143
REMARK  Name = 
REMARK  5 active torsions:
REMARK  status: ('A' for Active; 'I' for Inactive)
REMARK    1  A    between atoms: C_4  and  C_5
REMARK    2  A    between atoms: C_9  and  C_10
REMARK    3  A    between atoms: C_11  and  C_12
REMARK    4  A    between atoms: C_14  and  O_15
REMARK    5  A    between atoms: C_18  and  C_19
REMARK                            x       y       z     vdW  Elec       q    Type
REMARK                         _______ _______ _______ _____ _____    ______ ____
ROOT
ATOM      1  O   UNL     1       8.170   7.376  17.932  0.00  0.00    +0.000 OA
ATOM      2  C   UNL     1       7.303   6.625  17.526  0.00  0.00    +0.000 C 
ATOM      3  N   UNL     1       5.993   6.965  17.362  0.00  0.00    +0.000 N 
ATOM      4  C   UNL     1       5.211   5.857  16.916  0.00  0.00    +0.000 C 
ATOM      5  C   UNL     1       6.290   4.812  16.577  0.00  0.00    +0.000 C 
ATOM      6  O   UNL     1       7.502   5.328  17.164  0.00  0.00    +0.000 OA
ATOM      7  H   UNL     1       5.665   7.901  17.547  0.00  0.00    +0.000 HD
ENDROOT
BRANCH   5   8
ATOM      8  C   UNL     1       6.445   4.639  15.071  0.00  0.00    +0.000 A 
ATOM      9  C   UNL     1       5.651   3.740  14.332  0.00  0.00    +0.000 A 
ATOM     10  C   UNL     1       5.901   3.505  12.977  0.00  0.00    +0.000 A 
ATOM     11  C   UNL     1       6.947   4.166  12.338  0.00  0.00    +0.000 A 
ATOM     12  C   UNL     1       7.715   5.076  13.053  0.00  0.00    +0.000 A 
ATOM     13  F   UNL     1       8.721   5.714  12.441  0.00  0.00    +0.000 F 
ATOM     14  C   UNL     1       7.473   5.321  14.402  0.00  0.00    +0.000 A 
ENDBRANCH   5   8
BRANCH   4  15
ATOM     15  C   UNL     1       4.181   5.425  17.933  0.00  0.00    +0.000 A 
ATOM     16  C   UNL     1       3.962   4.064  18.155  0.00  0.00    +0.000 A 
ATOM     17  N   UNL     1       3.056   3.563  19.026  0.00  0.00    +0.000 NA
ATOM     18  C   UNL     1       2.317   4.460  19.724  0.00  0.00    +0.000 A 
ATOM     19  C   UNL     1       2.448   5.833  19.593  0.00  0.00    +0.000 A 
ATOM     20  C   UNL     1       3.393   6.317  18.683  0.00  0.00    +0.000 A 
BRANCH  19  21
ATOM     21  C   UNL     1       1.630   6.737  20.347  0.00  0.00    +0.000 C 
ATOM     22  C   UNL     1       0.930   7.513  20.945  0.00  0.00    +0.000 C 
BRANCH  22  23
ATOM     23  C   UNL     1       0.044   8.461  21.604  0.00  0.00    +0.000 C 
ATOM     24  C   UNL     1       0.698   9.423  22.624  0.00  0.00    +0.000 C 
ATOM     25  C   UNL     1       0.765  10.496  21.515  0.00  0.00    +0.000 C 
ATOM     26  C   UNL     1      -0.348   9.715  20.784  0.00  0.00    +0.000 C 
BRANCH  25  27
ATOM     27  O   UNL     1       0.457  11.846  21.905  0.00  0.00    +0.000 OA
ATOM     28  H   UNL     1      -0.459  11.832  22.229  0.00  0.00    +0.000 HD
ENDBRANCH  25  27
ENDBRANCH  22  23
ENDBRANCH  19  21
ENDBRANCH   4  15
TORSDOF 5
ENDMDL
MODEL 6
REMARK VINA RESULT:      -8.2      2.666      3.871
REMARK  Name = 
REMARK  5 active torsions:
REMARK  status: ('A' for Active; 'I' for Inactive)
REMARK    1  A    between atoms: C_4  and  C_5
REMARK    2  A    between atoms: C_9  and  C_10
REMARK    3  A    between atoms: C_11  and  C_12
REMARK    4  A    between atoms: C_14  and  O_15
REMARK    5  A    between atoms: C_18  and  C_19
REMARK                            x       y       z     vdW  Elec       q    Type
REMARK                         _______ _______ _______ _____ _____    ______ ____
ROOT
ATOM      1  O   UNL     1       1.915   8.201  18.115  0.00  0.00    +0.000 OA
ATOM      2  C   UNL     1       2.526   7.151  18.047  0.00  0.00    +0.000 C 
ATOM      3  N   UNL     1       3.822   6.978  18.431  0.00  0.00    +0.000 N 
ATOM      4  C   UNL     1       4.272   5.646  18.187  0.00  0.00    +0.000 C 
ATOM      5  C   UNL     1       2.965   4.922  17.815  0.00  0.00    +0.000 C 
ATOM      6  O   UNL     1       2.010   5.979  17.585  0.00  0.00    +0.000 OA
ATOM      7  H   UNL     1       4.357   7.732  18.834  0.00  0.00    +0.000 HD
ENDROOT
BRANCH   5   8
ATOM      8  C   UNL     1       2.498   4.002  18.937  0.00  0.00    +0.000 A 
ATOM      9  C   UNL     1       1.141   3.888  19.298  0.00  0.00    +0.000 A 
ATOM     10  C   UNL     1       0.754   3.138  20.413  0.00  0.00    +0.000 A 
ATOM     11  C   UNL     1       1.716   2.490  21.183  0.00  0.00    +0.000 A 
ATOM     12  C   UNL     1       3.052   2.575  20.816  0.00  0.00    +0.000 A 
ATOM     13  F   UNL     1       3.980   1.953  21.555  0.00  0.00    +0.000 F 
ATOM     14  C   UNL     1       3.450   3.316  19.705  0.00  0.00    +0.000 A 
ENDBRANCH   5   8
BRANCH   4  15
ATOM     15  C   UNL     1       5.370   5.583  17.150  0.00  0.00    +0.000 A 
ATOM     16  C   UNL     1       6.544   6.311  17.347  0.00  0.00    +0.000 A 
ATOM     17  N   UNL     1       7.583   6.345  16.482  0.00  0.00    +0.000 NA
ATOM     18  C   UNL     1       7.458   5.613  15.347  0.00  0.00    +0.000 A 
ATOM     19  C   UNL     1       6.342   4.848  15.044  0.00  0.00    +0.000 A 
ATOM     20  C   UNL     1       5.287   4.837  15.959  0.00  0.00    +0.000 A 
BRANCH  19  21
ATOM     21  C   UNL     1       6.257   4.104  13.821  0.00  0.00    +0.000 C 
ATOM     22  C   UNL     1       6.179   3.514  12.775  0.00  0.00    +0.000 C 
BRANCH  22  23
ATOM     23  C   UNL     1       6.102   2.868  11.473  0.00  0.00    +0.000 C 
ATOM     24  C   UNL     1       7.170   1.790  11.174  0.00  0.00    +0.000 C 
ATOM     25  C   UNL     1       6.147   0.711  11.596  0.00  0.00    +0.000 C 
ATOM     26  C   UNL     1       5.039   1.752  11.326  0.00  0.00    +0.000 C 
BRANCH  25  27
ATOM     27  O   UNL     1       6.113  -0.490  10.803  0.00  0.00    +0.000 OA
ATOM     28  H   UNL     1       5.391  -1.032  11.163  0.00  0.00    +0.000 HD
ENDBRANCH  25  27
ENDBRANCH  22  23
ENDBRANCH  19  21
ENDBRANCH   4  15
TORSDOF 5
ENDMDL
MODEL 7
REMARK VINA RESULT:      -8.2      5.585      8.577
REMARK  Name = 
REMARK  5 active torsions:
REMARK  status: ('A' for Active; 'I' for Inactive)
REMARK    1  A    between atoms: C_4  and  C_5
REMARK    2  A    between atoms: C_9  and  C_10
REMARK    3  A    between atoms: C_11  and  C_12
REMARK    4  A    between atoms: C_14  and  O_15
REMARK    5  A    between atoms: C_18  and  C_19
REMARK                            x       y       z     vdW  Elec       q    Type
REMARK                         _______ _______ _______ _____ _____    ______ ____
ROOT
ATOM      1  O   UNL     1      -2.722  10.305  14.186  0.00  0.00    +0.000 OA
ATOM      2  C   UNL     1      -2.853  10.508  15.378  0.00  0.00    +0.000 C 
ATOM      3  N   UNL     1      -2.216  11.491  16.076  0.00  0.00    +0.000 N 
ATOM      4  C   UNL     1      -2.539  11.447  17.465  0.00  0.00    +0.000 C 
ATOM      5  C   UNL     1      -3.691  10.426  17.501  0.00  0.00    +0.000 C 
ATOM      6  O   UNL     1      -3.664   9.792  16.205  0.00  0.00    +0.000 OA
ATOM      7  H   UNL     1      -1.600  12.146  15.618  0.00  0.00    +0.000 HD
ENDROOT
BRANCH   5   8
ATOM      8  C   UNL     1      -5.032  11.107  17.745  0.00  0.00    +0.000 A 
ATOM      9  C   UNL     1      -5.420  12.270  17.052  0.00  0.00    +0.000 A 
ATOM     10  C   UNL     1      -6.596  12.948  17.387  0.00  0.00    +0.000 A 
ATOM     11  C   UNL     1      -7.404  12.473  18.417  0.00  0.00    +0.000 A 
ATOM     12  C   UNL     1      -7.042  11.310  19.084  0.00  0.00    +0.000 A 
ATOM     13  F   UNL     1      -7.817  10.850  20.075  0.00  0.00    +0.000 F 
ATOM     14  C   UNL     1      -5.875  10.624  18.757  0.00  0.00    +0.000 A 
ENDBRANCH   5   8
BRANCH   4  15
ATOM     15  C   UNL     1      -1.344  11.113  18.329  0.00  0.00    +0.000 A 
ATOM     16  C   UNL     1      -1.057  11.907  19.441  0.00  0.00    +0.000 A 
ATOM     17  N   UNL     1      -0.008  11.714  20.272  0.00  0.00    +0.000 NA
ATOM     18  C   UNL     1       0.813  10.672  19.992  0.00  0.00    +0.000 A 
ATOM     19  C   UNL     1       0.626   9.813  18.920  0.00  0.00    +0.000 A 
ATOM     20  C   UNL     1      -0.467  10.042  18.080  0.00  0.00    +0.000 A 
BRANCH  19  21
ATOM     21  C   UNL     1       1.534   8.734  18.661  0.00  0.00    +0.000 C 
ATOM     22  C   UNL     1       2.266   7.802  18.451  0.00  0.00    +0.000 C 
BRANCH  22  23
ATOM     23  C   UNL     1       3.088   6.632  18.183  0.00  0.00    +0.000 C 
ATOM     24  C   UNL     1       3.728   5.943  19.412  0.00  0.00    +0.000 C 
ATOM     25  C   UNL     1       2.561   4.929  19.406  0.00  0.00    +0.000 C 
ATOM     26  C   UNL     1       2.330   5.306  17.927  0.00  0.00    +0.000 C 
BRANCH  25  27
ATOM     27  O   UNL     1       2.898   3.557  19.678  0.00  0.00    +0.000 OA
ATOM     28  H   UNL     1       2.691   3.408  20.616  0.00  0.00    +0.000 HD
ENDBRANCH  25  27
ENDBRANCH  22  23
ENDBRANCH  19  21
ENDBRANCH   4  15
TORSDOF 5
ENDMDL
MODEL 8
REMARK VINA RESULT:      -8.0      3.837      9.934
REMARK  Name = 
REMARK  5 active torsions:
REMARK  status: ('A' for Active; 'I' for Inactive)
REMARK    1  A    between atoms: C_4  and  C_5
REMARK    2  A    between atoms: C_9  and  C_10
REMARK    3  A    between atoms: C_11  and  C_12
REMARK    4  A    between atoms: C_14  and  O_15
REMARK    5  A    between atoms: C_18  and  C_19
REMARK                            x       y       z     vdW  Elec       q    Type
REMARK                         _______ _______ _______ _____ _____    ______ ____
ROOT
ATOM      1  O   UNL     1       1.431   3.814  21.107  0.00  0.00    +0.000 OA
ATOM      2  C   UNL     1       1.919   4.631  20.351  0.00  0.00    +0.000 C 
ATOM      3  N   UNL     1       2.400   5.851  20.726  0.00  0.00    +0.000 N 
ATOM      4  C   UNL     1       2.866   6.603  19.606  0.00  0.00    +0.000 C 
ATOM      5  C   UNL     1       2.839   5.557  18.476  0.00  0.00    +0.000 C 
ATOM      6  O   UNL     1       2.072   4.457  19.009  0.00  0.00    +0.000 OA
ATOM      7  H   UNL     1       2.403   6.141  21.692  0.00  0.00    +0.000 HD
ENDROOT
BRANCH   5   8
ATOM      8  C   UNL     1       4.245   5.107  18.098  0.00  0.00    +0.000 A 
ATOM      9  C   UNL     1       5.374   5.446  18.869  0.00  0.00    +0.000 A 
ATOM     10  C   UNL     1       6.664   5.132  18.431  0.00  0.00    +0.000 A 
ATOM     11  C   UNL     1       6.846   4.473  17.218  0.00  0.00    +0.000 A 
ATOM     12  C   UNL     1       5.735   4.110  16.467  0.00  0.00    +0.000 A 
ATOM     13  F   UNL     1       5.907   3.476  15.300  0.00  0.00    +0.000 F 
ATOM     14  C   UNL     1       4.445   4.414  16.895  0.00  0.00    +0.000 A 
ENDBRANCH   5   8
BRANCH   4  15
ATOM     15  C   UNL     1       2.049   7.850  19.361  0.00  0.00    +0.000 A 
ATOM     16  C   UNL     1       1.982   8.386  18.074  0.00  0.00    +0.000 A 
ATOM     17  N   UNL     1       1.297   9.505  17.742  0.00  0.00    +0.000 NA
ATOM     18  C   UNL     1       0.635  10.137  18.743  0.00  0.00    +0.000 A 
ATOM     19  C   UNL     1       0.624   9.696  20.056  0.00  0.00    +0.000 A 
ATOM     20  C   UNL     1       1.343   8.538  20.365  0.00  0.00    +0.000 A 
BRANCH  19  21
ATOM     21  C   UNL     1      -0.082  10.412  21.078  0.00  0.00    +0.000 C 
ATOM     22  C   UNL     1      -0.642  11.013  21.959  0.00  0.00    +0.000 C 
BRANCH  22  23
ATOM     23  C   UNL     1      -1.249  11.760  23.049  0.00  0.00    +0.000 C 
ATOM     24  C   UNL     1      -1.013  13.289  23.053  0.00  0.00    +0.000 C 
ATOM     25  C   UNL     1      -2.389  13.467  22.374  0.00  0.00    +0.000 C 
ATOM     26  C   UNL     1      -2.760  12.068  22.911  0.00  0.00    +0.000 C 
BRANCH  25  27
ATOM     27  O   UNL     1      -3.195  14.569  22.830  0.00  0.00    +0.000 OA
ATOM     28  H   UNL     1      -3.005  15.310  22.231  0.00  0.00    +0.000 HD
ENDBRANCH  25  27
ENDBRANCH  22  23
ENDBRANCH  19  21
ENDBRANCH   4  15
TORSDOF 5
ENDMDL
MODEL 9
REMARK VINA RESULT:      -7.9      3.735      9.160
REMARK  Name = 
REMARK  5 active torsions:
REMARK  status: ('A' for Active; 'I' for Inactive)
REMARK    1  A    between atoms: C_4  and  C_5
REMARK    2  A    between atoms: C_9  and  C_10
REMARK    3  A    between atoms: C_11  and  C_12
REMARK    4  A    between atoms: C_14  and  O_15
REMARK    5  A    between atoms: C_18  and  C_19
REMARK                            x       y       z     vdW  Elec       q    Type
REMARK                         _______ _______ _______ _____ _____    ______ ____
ROOT
ATOM      1  O   UNL     1       8.197   4.537  18.302  0.00  0.00    +0.000 OA
ATOM      2  C   UNL     1       7.244   4.731  17.573  0.00  0.00    +0.000 C 
ATOM      3  N   UNL     1       6.625   5.934  17.403  0.00  0.00    +0.000 N 
ATOM      4  C   UNL     1       5.508   5.834  16.521  0.00  0.00    +0.000 C 
ATOM      5  C   UNL     1       5.668   4.413  15.951  0.00  0.00    +0.000 C 
ATOM      6  O   UNL     1       6.645   3.781  16.803  0.00  0.00    +0.000 OA
ATOM      7  H   UNL     1       6.956   6.766  17.869  0.00  0.00    +0.000 HD
ENDROOT
BRANCH   5   8
ATOM      8  C   UNL     1       6.145   4.442  14.504  0.00  0.00    +0.000 A 
ATOM      9  C   UNL     1       5.595   3.603  13.515  0.00  0.00    +0.000 A 
ATOM     10  C   UNL     1       6.138   3.556  12.228  0.00  0.00    +0.000 A 
ATOM     11  C   UNL     1       7.238   4.348  11.908  0.00  0.00    +0.000 A 
ATOM     12  C   UNL     1       7.767   5.199  12.870  0.00  0.00    +0.000 A 
ATOM     13  F   UNL     1       8.825   5.961  12.565  0.00  0.00    +0.000 F 
ATOM     14  C   UNL     1       7.232   5.257  14.154  0.00  0.00    +0.000 A 
ENDBRANCH   5   8
BRANCH   4  15
ATOM     15  C   UNL     1       4.194   6.117  17.211  0.00  0.00    +0.000 A 
ATOM     16  C   UNL     1       3.393   5.053  17.628  0.00  0.00    +0.000 A 
ATOM     17  N   UNL     1       2.193   5.186  18.238  0.00  0.00    +0.000 NA
ATOM     18  C   UNL     1       1.753   6.450  18.452  0.00  0.00    +0.000 A 
ATOM     19  C   UNL     1       2.461   7.584  18.087  0.00  0.00    +0.000 A 
ATOM     20  C   UNL     1       3.696   7.410  17.457  0.00  0.00    +0.000 A 
BRANCH  19  21
ATOM     21  C   UNL     1       1.940   8.899  18.325  0.00  0.00    +0.000 C 
ATOM     22  C   UNL     1       1.471   9.993  18.503  0.00  0.00    +0.000 C 
BRANCH  22  23
ATOM     23  C   UNL     1       0.833  11.285  18.703  0.00  0.00    +0.000 C 
ATOM     24  C   UNL     1       0.068  11.478  20.033  0.00  0.00    +0.000 C 
ATOM     25  C   UNL     1       1.317  12.182  20.609  0.00  0.00    +0.000 C 
ATOM     26  C   UNL     1       1.759  12.443  19.152  0.00  0.00    +0.000 C 
BRANCH  25  27
ATOM     27  O   UNL     1       1.083  13.341  21.430  0.00  0.00    +0.000 OA
ATOM     28  H   UNL     1       1.960  13.694  21.656  0.00  0.00    +0.000 HD
ENDBRANCH  25  27
ENDBRANCH  22  23
ENDBRANCH  19  21
ENDBRANCH   4  15
TORSDOF 5
ENDMDL
