MODEL 1
REMARK VINA RESULT:      -7.7      0.000      0.000
REMARK  Name = 
REMARK  8 active torsions:
REMARK  status: ('A' for Active; 'I' for Inactive)
REMARK    1  A    between atoms: C_1  and  O_2
REMARK    2  A    between atoms: O_2  and  C_3
REMARK    3  A    between atoms: C_4  and  C_5
REMARK    4  A    between atoms: C_5  and  O_6
REMARK    5  A    between atoms: O_6  and  C_7
REMARK    6  A    between atoms: C_14  and  C_15
REMARK    7  A    between atoms: C_16  and  N_17
REMARK    8  A    between atoms: C_19  and  C_20
REMARK                            x       y       z     vdW  Elec       q    Type
REMARK                         _______ _______ _______ _____ _____    ______ ____
ROOT
ATOM      1  C   UNL     1       2.289   4.291  18.856  0.00  0.00    +0.000 C 
ATOM      2  C   UNL     1       2.646   5.437  17.889  0.00  0.00    +0.000 C 
ATOM      3  C   UNL     1       4.081   5.094  17.644  0.00  0.00    +0.000 C 
ATOM      4  C   UNL     1       4.585   4.729  18.825  0.00  0.00    +0.000 C 
ATOM      5  C   UNL     1       6.029   5.066  18.902  0.00  0.00    +0.000 C 
ATOM      6  O   UNL     1       6.723   4.925  19.897  0.00  0.00    +0.000 OA
ATOM      7  C   UNL     1       6.608   5.543  17.570  0.00  0.00    +0.000 C 
ATOM      8  C   UNL     1       6.231   6.896  16.931  0.00  0.00    +0.000 C 
ATOM      9  C   UNL     1       6.455   4.520  16.696  0.00  0.00    +0.000 C 
ATOM     10  C   UNL     1       4.889   4.423  16.549  0.00  0.00    +0.000 C 
ATOM     11  O   UNL     1       4.351   3.788  15.654  0.00  0.00    +0.000 OA
ATOM     12  N   UNL     1       3.561   4.310  19.730  0.00  0.00    +0.000 N 
ATOM     13  C   UNL     1       3.617   2.974  20.356  0.00  0.00    +0.000 C 
ATOM     14  C   UNL     1       3.114   2.046  19.270  0.00  0.00    +0.000 C 
ATOM     15  N   UNL     1       1.703   1.735  19.052  0.00  0.00    +0.000 NA
ATOM     16  C   UNL     1       2.282   2.865  18.319  0.00  0.00    +0.000 C 
ATOM     17  H   UNL     1       1.112   2.097  19.806  0.00  0.00    +0.000 HD
ENDROOT
BRANCH   9  18
ATOM     18  N   UNL     1       7.235   4.528  15.529  0.00  0.00    +0.000 N 
ATOM     19  C   UNL     1       6.624   3.789  14.399  0.00  0.00    +0.000 C 
ATOM     20  C   UNL     1       6.908   5.261  14.316  0.00  0.00    +0.000 C 
BRANCH  20  21
ATOM     21  C   UNL     1       7.976   5.666  13.437  0.00  0.00    +0.000 C 
ATOM     22  N   UNL     1       8.855   6.003  12.768  0.00  0.00    +0.000 NA
ENDBRANCH  20  21
ENDBRANCH   9  18
BRANCH   1  24
ATOM     23  C   UNL     1       1.368   5.029  20.929  0.00  0.00    +0.000 C 
ATOM     24  O   UNL     1       1.103   4.511  19.618  0.00  0.00    +0.000 OA
ENDBRANCH   1  24
BRANCH   2  25
ATOM     25  C   UNL     1       2.504   6.740  18.819  0.00  0.00    +0.000 C 
BRANCH  25  26
ATOM     26  O   UNL     1       2.625   8.006  18.173  0.00  0.00    +0.000 OA
BRANCH  26  27
ATOM     27  C   UNL     1       1.758   8.939  18.648  0.00  0.00    +0.000 C 
ATOM     28  N   UNL     1       1.574   9.922  17.746  0.00  0.00    +0.000 N 
ATOM     29  O   UNL     1       1.238   8.919  19.752  0.00  0.00    +0.000 OA
ATOM     30  H   UNL     1       2.246  10.062  17.024  0.00  0.00    +0.000 HD
ATOM     31  H   UNL     1       1.024  10.724  18.074  0.00  0.00    +0.000 HD
ENDBRANCH  26  27
ENDBRANCH  25  26
ENDBRANCH   2  25
TORSDOF 6
ENDMDL
MODEL 2
REMARK VINA RESULT:      -7.5      1.946      6.462
REMARK  Name = 
REMARK  8 active torsions:
REMARK  status: ('A' for Active; 'I' for Inactive)
REMARK    1  A    between atoms: C_1  and  O_2
REMARK    2  A    between atoms: O_2  and  C_3
REMARK    3  A    between atoms: C_4  and  C_5
REMARK    4  A    between atoms: C_5  and  O_6
REMARK    5  A    between atoms: O_6  and  C_7
REMARK    6  A    between atoms: C_14  and  C_15
REMARK    7  A    between atoms: C_16  and  N_17
REMARK    8  A    between atoms: C_19  and  C_20
REMARK                            x       y       z     vdW  Elec       q    Type
REMARK                         _______ _______ _______ _____ _____    ______ ____
ROOT
ATOM      1  C   UNL     1       5.696   5.066  16.751  0.00  0.00    +0.000 C 
ATOM      2  C   UNL     1       4.189   4.907  16.465  0.00  0.00    +0.000 C 
ATOM      3  C   UNL     1       3.650   5.498  17.728  0.00  0.00    +0.000 C 
ATOM      4  C   UNL     1       4.427   5.045  18.715  0.00  0.00    +0.000 C 
ATOM      5  C   UNL     1       3.650   4.923  19.975  0.00  0.00    +0.000 C 
ATOM      6  O   UNL     1       4.083   4.450  21.014  0.00  0.00    +0.000 OA
ATOM      7  C   UNL     1       2.249   5.526  19.879  0.00  0.00    +0.000 C 
ATOM      8  C   UNL     1       1.128   4.906  19.019  0.00  0.00    +0.000 C 
ATOM      9  C   UNL     1       2.415   6.842  19.607  0.00  0.00    +0.000 C 
ATOM     10  C   UNL     1       3.043   6.819  18.163  0.00  0.00    +0.000 C 
ATOM     11  O   UNL     1       3.108   7.816  17.458  0.00  0.00    +0.000 OA
ATOM     12  N   UNL     1       5.705   4.627  18.231  0.00  0.00    +0.000 N 
ATOM     13  C   UNL     1       6.942   5.204  18.795  0.00  0.00    +0.000 C 
ATOM     14  C   UNL     1       7.059   6.548  18.107  0.00  0.00    +0.000 C 
ATOM     15  N   UNL     1       7.715   6.750  16.817  0.00  0.00    +0.000 NA
ATOM     16  C   UNL     1       6.275   6.474  16.824  0.00  0.00    +0.000 C 
ATOM     17  H   UNL     1       8.212   5.909  16.506  0.00  0.00    +0.000 HD
ENDROOT
BRANCH   9  18
ATOM     18  N   UNL     1       1.337   7.707  19.852  0.00  0.00    +0.000 N 
ATOM     19  C   UNL     1       1.288   8.220  21.240  0.00  0.00    +0.000 C 
ATOM     20  C   UNL     1       1.454   9.140  20.065  0.00  0.00    +0.000 C 
BRANCH  20  21
ATOM     21  C   UNL     1       0.334   9.988  19.743  0.00  0.00    +0.000 C 
ATOM     22  N   UNL     1      -0.548  10.672  19.444  0.00  0.00    +0.000 NA
ENDBRANCH  20  21
ENDBRANCH   9  18
BRANCH   1  24
ATOM     23  C   UNL     1       6.524   4.634  14.557  0.00  0.00    +0.000 C 
ATOM     24  O   UNL     1       6.540   4.252  15.939  0.00  0.00    +0.000 OA
ENDBRANCH   1  24
BRANCH   2  25
ATOM     25  C   UNL     1       4.004   3.311  16.437  0.00  0.00    +0.000 C 
BRANCH  25  26
ATOM     26  O   UNL     1       2.747   2.804  16.882  0.00  0.00    +0.000 OA
BRANCH  26  27
ATOM     27  C   UNL     1       2.852   1.949  17.934  0.00  0.00    +0.000 C 
ATOM     28  N   UNL     1       4.086   1.415  17.993  0.00  0.00    +0.000 N 
ATOM     29  O   UNL     1       1.949   1.667  18.705  0.00  0.00    +0.000 OA
ATOM     30  H   UNL     1       4.666   1.419  17.182  0.00  0.00    +0.000 HD
ATOM     31  H   UNL     1       4.212   0.672  18.689  0.00  0.00    +0.000 HD
ENDBRANCH  26  27
ENDBRANCH  25  26
ENDBRANCH   2  25
TORSDOF 6
ENDMDL
MODEL 3
REMARK VINA RESULT:      -7.3      1.261      1.308
REMARK  Name = 
REMARK  8 active torsions:
REMARK  status: ('A' for Active; 'I' for Inactive)
REMARK    1  A    between atoms: C_1  and  O_2
REMARK    2  A    between atoms: O_2  and  C_3
REMARK    3  A    between atoms: C_4  and  C_5
REMARK    4  A    between atoms: C_5  and  O_6
REMARK    5  A    between atoms: O_6  and  C_7
REMARK    6  A    between atoms: C_14  and  C_15
REMARK    7  A    between atoms: C_16  and  N_17
REMARK    8  A    between atoms: C_19  and  C_20
REMARK                            x       y       z     vdW  Elec       q    Type
REMARK                         _______ _______ _______ _____ _____    ______ ____
ROOT
ATOM      1  C   UNL     1       2.301   3.791  19.275  0.00  0.00    +0.000 C 
ATOM      2  C   UNL     1       2.346   5.108  18.477  0.00  0.00    +0.000 C 
ATOM      3  C   UNL     1       3.715   4.976  17.890  0.00  0.00    +0.000 C 
ATOM      4  C   UNL     1       4.492   4.490  18.861  0.00  0.00    +0.000 C 
ATOM      5  C   UNL     1       5.887   4.976  18.703  0.00  0.00    +0.000 C 
ATOM      6  O   UNL     1       6.790   4.761  19.497  0.00  0.00    +0.000 OA
ATOM      7  C   UNL     1       6.120   5.721  17.389  0.00  0.00    +0.000 C 
ATOM      8  C   UNL     1       5.506   7.105  17.091  0.00  0.00    +0.000 C 
ATOM      9  C   UNL     1       5.862   4.838  16.396  0.00  0.00    +0.000 C 
ATOM     10  C   UNL     1       4.315   4.584  16.553  0.00  0.00    +0.000 C 
ATOM     11  O   UNL     1       3.647   4.040  15.686  0.00  0.00    +0.000 OA
ATOM     12  N   UNL     1       3.727   3.819  19.864  0.00  0.00    +0.000 N 
ATOM     13  C   UNL     1       4.025   2.416  20.217  0.00  0.00    +0.000 C 
ATOM     14  C   UNL     1       3.373   1.619  19.107  0.00  0.00    +0.000 C 
ATOM     15  N   UNL     1       1.978   1.184  19.126  0.00  0.00    +0.000 NA
ATOM     16  C   UNL     1       2.291   2.475  18.505  0.00  0.00    +0.000 C 
ATOM     17  H   UNL     1       1.538   1.353  20.036  0.00  0.00    +0.000 HD
ENDROOT
BRANCH   9  18
ATOM     18  N   UNL     1       6.365   5.119  15.116  0.00  0.00    +0.000 N 
ATOM     19  C   UNL     1       7.845   5.137  15.048  0.00  0.00    +0.000 C 
ATOM     20  C   UNL     1       7.031   4.155  14.255  0.00  0.00    +0.000 C 
BRANCH  20  21
ATOM     21  C   UNL     1       6.991   4.351  12.827  0.00  0.00    +0.000 C 
ATOM     22  N   UNL     1       6.968   4.465  11.678  0.00  0.00    +0.000 NA
ENDBRANCH  20  21
ENDBRANCH   9  18
BRANCH   1  24
ATOM     23  C   UNL     1       1.841   3.667  21.613  0.00  0.00    +0.000 C 
ATOM     24  O   UNL     1       1.297   3.749  20.288  0.00  0.00    +0.000 OA
ENDBRANCH   1  24
BRANCH   2  25
ATOM     25  C   UNL     1       2.307   6.222  19.634  0.00  0.00    +0.000 C 
BRANCH  25  26
ATOM     26  O   UNL     1       2.235   7.583  19.211  0.00  0.00    +0.000 OA
BRANCH  26  27
ATOM     27  C   UNL     1       1.611   8.394  20.107  0.00  0.00    +0.000 C 
ATOM     28  N   UNL     1       1.604   7.836  21.332  0.00  0.00    +0.000 N 
ATOM     29  O   UNL     1       1.092   9.466  19.842  0.00  0.00    +0.000 OA
ATOM     30  H   UNL     1       1.740   6.854  21.428  0.00  0.00    +0.000 HD
ATOM     31  H   UNL     1       1.050   8.332  22.039  0.00  0.00    +0.000 HD
ENDBRANCH  26  27
ENDBRANCH  25  26
ENDBRANCH   2  25
TORSDOF 6
ENDMDL
MODEL 4
REMARK VINA RESULT:      -7.1      8.231     11.314
REMARK  Name = 
REMARK  8 active torsions:
REMARK  status: ('A' for Active; 'I' for Inactive)
REMARK    1  A    between atoms: C_1  and  O_2
REMARK    2  A    between atoms: O_2  and  C_3
REMARK    3  A    between atoms: C_4  and  C_5
REMARK    4  A    between atoms: C_5  and  O_6
REMARK    5  A    between atoms: O_6  and  C_7
REMARK    6  A    between atoms: C_14  and  C_15
REMARK    7  A    between atoms: C_16  and  N_17
REMARK    8  A    between atoms: C_19  and  C_20
REMARK                            x       y       z     vdW  Elec       q    Type
REMARK                         _______ _______ _______ _____ _____    ______ ____
ROOT
ATOM      1  C   UNL     1      -2.969  12.905  22.662  0.00  0.00    +0.000 C 
ATOM      2  C   UNL     1      -1.496  12.632  23.023  0.00  0.00    +0.000 C 
ATOM      3  C   UNL     1      -0.843  13.294  21.852  0.00  0.00    +0.000 C 
ATOM      4  C   UNL     1      -1.578  12.974  20.785  0.00  0.00    +0.000 C 
ATOM      5  C   UNL     1      -0.728  12.912  19.568  0.00  0.00    +0.000 C 
ATOM      6  O   UNL     1      -1.118  12.555  18.467  0.00  0.00    +0.000 OA
ATOM      7  C   UNL     1       0.695  13.419  19.801  0.00  0.00    +0.000 C 
ATOM      8  C   UNL     1       1.722  12.662  20.669  0.00  0.00    +0.000 C 
ATOM      9  C   UNL     1       0.584  14.715  20.177  0.00  0.00    +0.000 C 
ATOM     10  C   UNL     1      -0.137  14.608  21.573  0.00  0.00    +0.000 C 
ATOM     11  O   UNL     1      -0.194  15.544  22.357  0.00  0.00    +0.000 OA
ATOM     12  N   UNL     1      -2.906  12.595  21.151  0.00  0.00    +0.000 N 
ATOM     13  C   UNL     1      -4.069  13.290  20.567  0.00  0.00    +0.000 C 
ATOM     14  C   UNL     1      -4.157  14.577  21.362  0.00  0.00    +0.000 C 
ATOM     15  N   UNL     1      -4.884  14.708  22.623  0.00  0.00    +0.000 NA
ATOM     16  C   UNL     1      -3.464  14.347  22.679  0.00  0.00    +0.000 C 
ATOM     17  H   UNL     1      -5.445  13.875  22.828  0.00  0.00    +0.000 HD
ENDROOT
BRANCH   9  18
ATOM     18  N   UNL     1       1.722  15.531  20.075  0.00  0.00    +0.000 N 
ATOM     19  C   UNL     1       2.077  15.887  18.681  0.00  0.00    +0.000 C 
ATOM     20  C   UNL     1       1.706  16.934  19.693  0.00  0.00    +0.000 C 
BRANCH  20  21
ATOM     21  C   UNL     1       2.767  17.793  20.153  0.00  0.00    +0.000 C 
ATOM     22  N   UNL     1       3.631  18.450  20.549  0.00  0.00    +0.000 NA
ENDBRANCH  20  21
ENDBRANCH   9  18
BRANCH   1  24
ATOM     23  C   UNL     1      -4.122  12.481  24.707  0.00  0.00    +0.000 C 
ATOM     24  O   UNL     1      -3.908  12.079  23.347  0.00  0.00    +0.000 OA
ENDBRANCH   1  24
BRANCH   2  25
ATOM     25  C   UNL     1      -1.400  11.031  22.922  0.00  0.00    +0.000 C 
BRANCH  25  26
ATOM     26  O   UNL     1      -0.229  10.423  23.464  0.00  0.00    +0.000 OA
BRANCH  26  27
ATOM     27  C   UNL     1       0.474   9.699  22.552  0.00  0.00    +0.000 C 
ATOM     28  N   UNL     1      -0.329   9.274  21.559  0.00  0.00    +0.000 N 
ATOM     29  O   UNL     1       1.663   9.434  22.630  0.00  0.00    +0.000 OA
ATOM     30  H   UNL     1      -1.314   9.236  21.703  0.00  0.00    +0.000 HD
ATOM     31  H   UNL     1       0.101   8.624  20.892  0.00  0.00    +0.000 HD
ENDBRANCH  26  27
ENDBRANCH  25  26
ENDBRANCH   2  25
TORSDOF 6
ENDMDL
MODEL 5
REMARK VINA RESULT:      -7.0      8.957     12.487
REMARK  Name = 
REMARK  8 active torsions:
REMARK  status: ('A' for Active; 'I' for Inactive)
REMARK    1  A    between atoms: C_1  and  O_2
REMARK    2  A    between atoms: O_2  and  C_3
REMARK    3  A    between atoms: C_4  and  C_5
REMARK    4  A    between atoms: C_5  and  O_6
REMARK    5  A    between atoms: O_6  and  C_7
REMARK    6  A    between atoms: C_14  and  C_15
REMARK    7  A    between atoms: C_16  and  N_17
REMARK    8  A    between atoms: C_19  and  C_20
REMARK                            x       y       z     vdW  Elec       q    Type
REMARK                         _______ _______ _______ _____ _____    ______ ____
ROOT
ATOM      1  C   UNL     1      10.573  14.682  18.406  0.00  0.00    +0.000 C 
ATOM      2  C   UNL     1       9.631  13.701  19.130  0.00  0.00    +0.000 C 
ATOM      3  C   UNL     1       8.566  14.666  19.544  0.00  0.00    +0.000 C 
ATOM      4  C   UNL     1       9.198  15.768  19.954  0.00  0.00    +0.000 C 
ATOM      5  C   UNL     1       8.413  16.457  21.009  0.00  0.00    +0.000 C 
ATOM      6  O   UNL     1       8.792  17.440  21.626  0.00  0.00    +0.000 OA
ATOM      7  C   UNL     1       7.019  15.861  21.208  0.00  0.00    +0.000 C 
ATOM      8  C   UNL     1       6.786  14.463  21.818  0.00  0.00    +0.000 C 
ATOM      9  C   UNL     1       6.368  16.005  20.030  0.00  0.00    +0.000 C 
ATOM     10  C   UNL     1       7.179  15.056  19.069  0.00  0.00    +0.000 C 
ATOM     11  O   UNL     1       6.756  14.711  17.975  0.00  0.00    +0.000 OA
ATOM     12  N   UNL     1      10.517  15.853  19.410  0.00  0.00    +0.000 N 
ATOM     13  C   UNL     1      10.932  17.042  18.638  0.00  0.00    +0.000 C 
ATOM     14  C   UNL     1      10.322  16.814  17.270  0.00  0.00    +0.000 C 
ATOM     15  N   UNL     1      10.976  16.061  16.202  0.00  0.00    +0.000 NA
ATOM     16  C   UNL     1      10.088  15.334  17.116  0.00  0.00    +0.000 C 
ATOM     17  H   UNL     1      11.948  15.834  16.434  0.00  0.00    +0.000 HD
ENDROOT
BRANCH   9  18
ATOM     18  N   UNL     1       4.967  15.910  20.035  0.00  0.00    +0.000 N 
ATOM     19  C   UNL     1       4.291  17.105  20.593  0.00  0.00    +0.000 C 
ATOM     20  C   UNL     1       4.081  16.672  19.170  0.00  0.00    +0.000 C 
BRANCH  20  21
ATOM     21  C   UNL     1       2.787  16.127  18.844  0.00  0.00    +0.000 C 
ATOM     22  N   UNL     1       1.738  15.730  18.569  0.00  0.00    +0.000 NA
ENDBRANCH  20  21
ENDBRANCH   9  18
BRANCH   1  24
ATOM     23  C   UNL     1      11.965  13.090  17.303  0.00  0.00    +0.000 C 
ATOM     24  O   UNL     1      11.900  14.195  18.215  0.00  0.00    +0.000 OA
ENDBRANCH   1  24
BRANCH   2  25
ATOM     25  C   UNL     1      10.515  13.227  20.386  0.00  0.00    +0.000 C 
BRANCH  25  26
ATOM     26  O   UNL     1      10.698  11.822  20.547  0.00  0.00    +0.000 OA
BRANCH  26  27
ATOM     27  C   UNL     1       9.535  11.146  20.747  0.00  0.00    +0.000 C 
ATOM     28  N   UNL     1       9.391  10.165  19.836  0.00  0.00    +0.000 N 
ATOM     29  O   UNL     1       8.711  11.404  21.609  0.00  0.00    +0.000 OA
ATOM     30  H   UNL     1       9.906  10.202  18.984  0.00  0.00    +0.000 HD
ATOM     31  H   UNL     1       8.485   9.684  19.847  0.00  0.00    +0.000 HD
ENDBRANCH  26  27
ENDBRANCH  25  26
ENDBRANCH   2  25
TORSDOF 6
ENDMDL
MODEL 6
REMARK VINA RESULT:      -7.0      2.207      6.861
REMARK  Name = 
REMARK  8 active torsions:
REMARK  status: ('A' for Active; 'I' for Inactive)
REMARK    1  A    between atoms: C_1  and  O_2
REMARK    2  A    between atoms: O_2  and  C_3
REMARK    3  A    between atoms: C_4  and  C_5
REMARK    4  A    between atoms: C_5  and  O_6
REMARK    5  A    between atoms: O_6  and  C_7
REMARK    6  A    between atoms: C_14  and  C_15
REMARK    7  A    between atoms: C_16  and  N_17
REMARK    8  A    between atoms: C_19  and  C_20
REMARK                            x       y       z     vdW  Elec       q    Type
REMARK                         _______ _______ _______ _____ _____    ______ ____
ROOT
ATOM      1  C   UNL     1       6.640   5.677  16.194  0.00  0.00    +0.000 C 
ATOM      2  C   UNL     1       5.182   5.519  15.721  0.00  0.00    +0.000 C 
ATOM      3  C   UNL     1       4.511   5.447  17.055  0.00  0.00    +0.000 C 
ATOM      4  C   UNL     1       5.291   4.684  17.825  0.00  0.00    +0.000 C 
ATOM      5  C   UNL     1       4.476   3.953  18.828  0.00  0.00    +0.000 C 
ATOM      6  O   UNL     1       4.915   3.117  19.603  0.00  0.00    +0.000 OA
ATOM      7  C   UNL     1       3.016   4.404  18.862  0.00  0.00    +0.000 C 
ATOM      8  C   UNL     1       2.025   4.119  17.714  0.00  0.00    +0.000 C 
ATOM      9  C   UNL     1       3.026   5.716  19.197  0.00  0.00    +0.000 C 
ATOM     10  C   UNL     1       3.721   6.384  17.951  0.00  0.00    +0.000 C 
ATOM     11  O   UNL     1       3.694   7.589  17.750  0.00  0.00    +0.000 OA
ATOM     12  N   UNL     1       6.634   4.640  17.338  0.00  0.00    +0.000 N 
ATOM     13  C   UNL     1       7.759   5.025  18.212  0.00  0.00    +0.000 C 
ATOM     14  C   UNL     1       7.738   6.540  18.180  0.00  0.00    +0.000 C 
ATOM     15  N   UNL     1       8.424   7.343  17.172  0.00  0.00    +0.000 NA
ATOM     16  C   UNL     1       7.032   6.960  16.918  0.00  0.00    +0.000 C 
ATOM     17  H   UNL     1       9.038   6.773  16.582  0.00  0.00    +0.000 HD
ENDROOT
BRANCH   9  18
ATOM     18  N   UNL     1       1.837   6.283  19.680  0.00  0.00    +0.000 N 
ATOM     19  C   UNL     1       1.360   5.679  20.946  0.00  0.00    +0.000 C 
ATOM     20  C   UNL     1       1.740   7.130  20.858  0.00  0.00    +0.000 C 
BRANCH  20  21
ATOM     21  C   UNL     1       0.665   8.086  20.943  0.00  0.00    +0.000 C 
ATOM     22  N   UNL     1      -0.171   8.878  21.035  0.00  0.00    +0.000 NA
ENDBRANCH  20  21
ENDBRANCH   9  18
BRANCH   1  24
ATOM     23  C   UNL     1       7.427   6.122  13.987  0.00  0.00    +0.000 C 
ATOM     24  O   UNL     1       7.619   5.381  15.199  0.00  0.00    +0.000 OA
ENDBRANCH   1  24
BRANCH   2  25
ATOM     25  C   UNL     1       5.201   4.085  14.995  0.00  0.00    +0.000 C 
BRANCH  25  26
ATOM     26  O   UNL     1       4.639   4.022  13.685  0.00  0.00    +0.000 OA
BRANCH  26  27
ATOM     27  C   UNL     1       5.408   3.331  12.801  0.00  0.00    +0.000 C 
ATOM     28  N   UNL     1       6.662   3.188  13.269  0.00  0.00    +0.000 N 
ATOM     29  O   UNL     1       5.034   2.922  11.714  0.00  0.00    +0.000 OA
ATOM     30  H   UNL     1       6.996   3.799  13.982  0.00  0.00    +0.000 HD
ATOM     31  H   UNL     1       7.334   2.779  12.611  0.00  0.00    +0.000 HD
ENDBRANCH  26  27
ENDBRANCH  25  26
ENDBRANCH   2  25
TORSDOF 6
ENDMDL
MODEL 7
REMARK VINA RESULT:      -6.9      6.098     10.359
REMARK  Name = 
REMARK  8 active torsions:
REMARK  status: ('A' for Active; 'I' for Inactive)
REMARK    1  A    between atoms: C_1  and  O_2
REMARK    2  A    between atoms: O_2  and  C_3
REMARK    3  A    between atoms: C_4  and  C_5
REMARK    4  A    between atoms: C_5  and  O_6
REMARK    5  A    between atoms: O_6  and  C_7
REMARK    6  A    between atoms: C_14  and  C_15
REMARK    7  A    between atoms: C_16  and  N_17
REMARK    8  A    between atoms: C_19  and  C_20
REMARK                            x       y       z     vdW  Elec       q    Type
REMARK                         _______ _______ _______ _____ _____    ______ ____
ROOT
ATOM      1  C   UNL     1      -2.324  13.804  22.048  0.00  0.00    +0.000 C 
ATOM      2  C   UNL     1      -3.004  12.536  21.496  0.00  0.00    +0.000 C 
ATOM      3  C   UNL     1      -1.902  12.049  20.610  0.00  0.00    +0.000 C 
ATOM      4  C   UNL     1      -1.400  13.131  20.009  0.00  0.00    +0.000 C 
ATOM      5  C   UNL     1      -0.877  12.783  18.663  0.00  0.00    +0.000 C 
ATOM      6  O   UNL     1      -0.443  13.591  17.857  0.00  0.00    +0.000 OA
ATOM      7  C   UNL     1      -0.856  11.278  18.396  0.00  0.00    +0.000 C 
ATOM      8  C   UNL     1      -2.140  10.442  18.215  0.00  0.00    +0.000 C 
ATOM      9  C   UNL     1      -0.035  10.734  19.326  0.00  0.00    +0.000 C 
ATOM     10  C   UNL     1      -0.819  10.987  20.669  0.00  0.00    +0.000 C 
ATOM     11  O   UNL     1      -0.533  10.422  21.714  0.00  0.00    +0.000 OA
ATOM     12  N   UNL     1      -1.690  14.324  20.740  0.00  0.00    +0.000 N 
ATOM     13  C   UNL     1      -0.598  15.219  21.172  0.00  0.00    +0.000 C 
ATOM     14  C   UNL     1      -0.036  14.535  22.401  0.00  0.00    +0.000 C 
ATOM     15  N   UNL     1      -0.552  14.736  23.753  0.00  0.00    +0.000 NA
ATOM     16  C   UNL     1      -1.111  13.640  22.957  0.00  0.00    +0.000 C 
ATOM     17  H   UNL     1      -1.235  15.500  23.792  0.00  0.00    +0.000 HD
ENDROOT
BRANCH   9  18
ATOM     18  N   UNL     1       0.476   9.449  19.084  0.00  0.00    +0.000 N 
ATOM     19  C   UNL     1       1.486   9.404  18.002  0.00  0.00    +0.000 C 
ATOM     20  C   UNL     1       1.824   9.017  19.413  0.00  0.00    +0.000 C 
BRANCH  20  21
ATOM     21  C   UNL     1       2.067   7.618  19.660  0.00  0.00    +0.000 C 
ATOM     22  N   UNL     1       2.293   6.498  19.828  0.00  0.00    +0.000 NA
ENDBRANCH  20  21
ENDBRANCH   9  18
BRANCH   1  24
ATOM     23  C   UNL     1      -3.829  14.275  23.838  0.00  0.00    +0.000 C 
ATOM     24  O   UNL     1      -3.221  14.749  22.629  0.00  0.00    +0.000 OA
ENDBRANCH   1  24
BRANCH   2  25
ATOM     25  C   UNL     1      -4.225  13.135  20.640  0.00  0.00    +0.000 C 
BRANCH  25  26
ATOM     26  O   UNL     1      -5.280  12.233  20.310  0.00  0.00    +0.000 OA
BRANCH  26  27
ATOM     27  C   UNL     1      -6.347  12.322  21.147  0.00  0.00    +0.000 C 
ATOM     28  N   UNL     1      -7.439  12.750  20.485  0.00  0.00    +0.000 N 
ATOM     29  O   UNL     1      -6.325  12.082  22.343  0.00  0.00    +0.000 OA
ATOM     30  H   UNL     1      -7.333  13.230  19.618  0.00  0.00    +0.000 HD
ATOM     31  H   UNL     1      -8.257  12.954  21.069  0.00  0.00    +0.000 HD
ENDBRANCH  26  27
ENDBRANCH  25  26
ENDBRANCH   2  25
TORSDOF 6
ENDMDL
MODEL 8
REMARK VINA RESULT:      -6.9      7.394      9.839
REMARK  Name = 
REMARK  8 active torsions:
REMARK  status: ('A' for Active; 'I' for Inactive)
REMARK    1  A    between atoms: C_1  and  O_2
REMARK    2  A    between atoms: O_2  and  C_3
REMARK    3  A    between atoms: C_4  and  C_5
REMARK    4  A    between atoms: C_5  and  O_6
REMARK    5  A    between atoms: O_6  and  C_7
REMARK    6  A    between atoms: C_14  and  C_15
REMARK    7  A    between atoms: C_16  and  N_17
REMARK    8  A    between atoms: C_19  and  C_20
REMARK                            x       y       z     vdW  Elec       q    Type
REMARK                         _______ _______ _______ _____ _____    ______ ____
ROOT
ATOM      1  C   UNL     1      -0.613  13.654  21.872  0.00  0.00    +0.000 C 
ATOM      2  C   UNL     1       0.109  13.596  20.512  0.00  0.00    +0.000 C 
ATOM      3  C   UNL     1      -0.435  12.294  20.016  0.00  0.00    +0.000 C 
ATOM      4  C   UNL     1      -0.438  11.467  21.064  0.00  0.00    +0.000 C 
ATOM      5  C   UNL     1      -0.238  10.064  20.621  0.00  0.00    +0.000 C 
ATOM      6  O   UNL     1      -0.110   9.110  21.373  0.00  0.00    +0.000 OA
ATOM      7  C   UNL     1      -0.285   9.899  19.102  0.00  0.00    +0.000 C 
ATOM      8  C   UNL     1       0.812  10.449  18.167  0.00  0.00    +0.000 C 
ATOM      9  C   UNL     1      -1.518  10.298  18.711  0.00  0.00    +0.000 C 
ATOM     10  C   UNL     1      -1.505  11.838  19.041  0.00  0.00    +0.000 C 
ATOM     11  O   UNL     1      -2.343  12.612  18.604  0.00  0.00    +0.000 OA
ATOM     12  N   UNL     1      -0.432  12.182  22.302  0.00  0.00    +0.000 N 
ATOM     13  C   UNL     1      -1.486  11.943  23.308  0.00  0.00    +0.000 C 
ATOM     14  C   UNL     1      -2.667  12.738  22.789  0.00  0.00    +0.000 C 
ATOM     15  N   UNL     1      -2.892  14.151  23.088  0.00  0.00    +0.000 NA
ATOM     16  C   UNL     1      -2.130  13.813  21.882  0.00  0.00    +0.000 C 
ATOM     17  H   UNL     1      -2.245  14.498  23.802  0.00  0.00    +0.000 HD
ENDROOT
BRANCH   9  18
ATOM     18  N   UNL     1      -1.972   9.892  17.446  0.00  0.00    +0.000 N 
ATOM     19  C   UNL     1      -3.394   9.476  17.429  0.00  0.00    +0.000 C 
ATOM     20  C   UNL     1      -2.904  10.641  16.618  0.00  0.00    +0.000 C 
BRANCH  20  21
ATOM     21  C   UNL     1      -2.863  10.463  15.188  0.00  0.00    +0.000 C 
ATOM     22  N   UNL     1      -2.867  10.296  14.045  0.00  0.00    +0.000 NA
ENDBRANCH  20  21
ENDBRANCH   9  18
BRANCH   1  24
ATOM     23  C   UNL     1      -0.183  15.937  22.411  0.00  0.00    +0.000 C 
ATOM     24  O   UNL     1      -0.040  14.566  22.807  0.00  0.00    +0.000 OA
ENDBRANCH   1  24
BRANCH   2  25
ATOM     25  C   UNL     1       1.653  13.464  20.939  0.00  0.00    +0.000 C 
BRANCH  25  26
ATOM     26  O   UNL     1       2.558  13.004  19.937  0.00  0.00    +0.000 OA
BRANCH  26  27
ATOM     27  C   UNL     1       2.885  13.958  19.025  0.00  0.00    +0.000 C 
ATOM     28  N   UNL     1       2.727  13.495  17.771  0.00  0.00    +0.000 N 
ATOM     29  O   UNL     1       3.300  15.075  19.294  0.00  0.00    +0.000 OA
ATOM     30  H   UNL     1       2.705  12.512  17.607  0.00  0.00    +0.000 HD
ATOM     31  H   UNL     1       3.064  14.115  17.027  0.00  0.00    +0.000 HD
ENDBRANCH  26  27
ENDBRANCH  25  26
ENDBRANCH   2  25
TORSDOF 6
ENDMDL
MODEL 9
REMARK VINA RESULT:      -6.9      6.684     12.072
REMARK  Name = 
REMARK  8 active torsions:
REMARK  status: ('A' for Active; 'I' for Inactive)
REMARK    1  A    between atoms: C_1  and  O_2
REMARK    2  A    between atoms: O_2  and  C_3
REMARK    3  A    between atoms: C_4  and  C_5
REMARK    4  A    between atoms: C_5  and  O_6
REMARK    5  A    between atoms: O_6  and  C_7
REMARK    6  A    between atoms: C_14  and  C_15
REMARK    7  A    between atoms: C_16  and  N_17
REMARK    8  A    between atoms: C_19  and  C_20
REMARK                            x       y       z     vdW  Elec       q    Type
REMARK                         _______ _______ _______ _____ _____    ______ ____
ROOT
ATOM      1  C   UNL     1       0.114  11.830  20.132  0.00  0.00    +0.000 C 
ATOM      2  C   UNL     1      -1.041  11.072  20.814  0.00  0.00    +0.000 C 
ATOM      3  C   UNL     1      -1.743  12.233  21.442  0.00  0.00    +0.000 C 
ATOM      4  C   UNL     1      -0.787  13.031  21.924  0.00  0.00    +0.000 C 
ATOM      5  C   UNL     1      -1.272  13.757  23.126  0.00  0.00    +0.000 C 
ATOM      6  O   UNL     1      -0.582  14.485  23.822  0.00  0.00    +0.000 OA
ATOM      7  C   UNL     1      -2.768  13.571  23.378  0.00  0.00    +0.000 C 
ATOM      8  C   UNL     1      -3.380  12.227  23.829  0.00  0.00    +0.000 C 
ATOM      9  C   UNL     1      -3.406  14.069  22.293  0.00  0.00    +0.000 C 
ATOM     10  C   UNL     1      -2.970  13.077  21.150  0.00  0.00    +0.000 C 
ATOM     11  O   UNL     1      -3.534  13.034  20.066  0.00  0.00    +0.000 OA
ATOM     12  N   UNL     1       0.466  12.806  21.275  0.00  0.00    +0.000 N 
ATOM     13  C   UNL     1       1.179  13.922  20.622  0.00  0.00    +0.000 C 
ATOM     14  C   UNL     1       0.459  14.084  19.299  0.00  0.00    +0.000 C 
ATOM     15  N   UNL     1       0.799  13.339  18.089  0.00  0.00    +0.000 NA
ATOM     16  C   UNL     1      -0.218  12.777  18.984  0.00  0.00    +0.000 C 
ATOM     17  H   UNL     1       1.668  12.807  18.200  0.00  0.00    +0.000 HD
ENDROOT
BRANCH   9  18
ATOM     18  N   UNL     1      -4.768  14.387  22.416  0.00  0.00    +0.000 N 
ATOM     19  C   UNL     1      -5.038  15.487  23.371  0.00  0.00    +0.000 C 
ATOM     20  C   UNL     1      -5.385  15.605  21.914  0.00  0.00    +0.000 C 
BRANCH  20  21
ATOM     21  C   UNL     1      -6.786  15.588  21.579  0.00  0.00    +0.000 C 
ATOM     22  N   UNL     1      -7.913  15.616  21.325  0.00  0.00    +0.000 NA
ENDBRANCH  20  21
ENDBRANCH   9  18
BRANCH   1  24
ATOM     23  C   UNL     1       0.955  10.203  18.604  0.00  0.00    +0.000 C 
ATOM     24  O   UNL     1       1.220  11.010  19.759  0.00  0.00    +0.000 OA
ENDBRANCH   1  24
BRANCH   2  25
ATOM     25  C   UNL     1      -0.278  10.182  21.913  0.00  0.00    +0.000 C 
BRANCH  25  26
ATOM     26  O   UNL     1      -0.260   8.772  21.696  0.00  0.00    +0.000 OA
BRANCH  26  27
ATOM     27  C   UNL     1       0.995   8.258  21.591  0.00  0.00    +0.000 C 
ATOM     28  N   UNL     1       1.883   9.029  22.247  0.00  0.00    +0.000 N 
ATOM     29  O   UNL     1       1.294   7.256  20.962  0.00  0.00    +0.000 OA
ATOM     30  H   UNL     1       1.654   9.975  22.458  0.00  0.00    +0.000 HD
ATOM     31  H   UNL     1       2.868   8.773  22.118  0.00  0.00    +0.000 HD
ENDBRANCH  26  27
ENDBRANCH  25  26
ENDBRANCH   2  25
TORSDOF 6
ENDMDL
