MODEL 1
REMARK VINA RESULT:      -6.0      0.000      0.000
REMARK  Name = 
REMARK  11 active torsions:
REMARK  status: ('A' for Active; 'I' for Inactive)
REMARK    1  A    between atoms: C_1  and  C_2
REMARK    2  A    between atoms: C_2  and  C_3
REMARK    3  A    between atoms: C_2  and  S_4
REMARK    4  A    between atoms: S_4  and  C_7
REMARK    5  A    between atoms: C_7  and  C_8
REMARK    6  A    between atoms: C_8  and  C_9
REMARK    7  A    between atoms: C_9  and  N_10
REMARK    8  A    between atoms: C_13  and  C_14
REMARK    9  A    between atoms: C_14  and  C_15
REMARK   10  A    between atoms: C_14  and  C_16
REMARK   11  A    between atoms: C_14  and  C_17
REMARK                            x       y       z     vdW  Elec       q    Type
REMARK                         _______ _______ _______ _____ _____    ______ ____
ROOT
ATOM      1  C   UNL     1       2.435   6.289  19.753  0.00  0.00    +0.000 C 
ENDROOT
BRANCH   1   2
ATOM      2  N   UNL     1       3.530   6.420  18.821  0.00  0.00    +0.000 N 
ATOM      3  C   UNL     1       3.500   6.880  17.550  0.00  0.00    +0.000 A 
ATOM      4  N   UNL     1       4.712   6.825  17.042  0.00  0.00    +0.000 NA
ATOM      5  C   UNL     1       5.459   6.283  18.064  0.00  0.00    +0.000 A 
ATOM      6  N   UNL     1       4.758   6.011  19.170  0.00  0.00    +0.000 NA
BRANCH   5   7
ATOM      7  C   UNL     1       6.943   6.049  17.978  0.00  0.00    +0.000 C 
ATOM      8  C   UNL     1       7.509   5.643  19.351  0.00  0.00    +0.000 C 
ATOM      9  C   UNL     1       7.238   4.917  16.972  0.00  0.00    +0.000 C 
ATOM     10  C   UNL     1       7.666   7.327  17.509  0.00  0.00    +0.000 C 
ENDBRANCH   5   7
ENDBRANCH   1   2
BRANCH   1  11
ATOM     11  C   UNL     1       2.403   4.907  20.411  0.00  0.00    +0.000 C 
BRANCH  11  12
ATOM     12  C   UNL     1       1.186   4.072  20.019  0.00  0.00    +0.000 C 
BRANCH  12  13
ATOM     13  S   UNL     1       1.437   3.208  18.470  0.00  0.00    +0.000 S 
ATOM     14  O   UNL     1       1.069   4.114  17.398  0.00  0.00    +0.000 OA
ATOM     15  O   UNL     1       0.805   1.909  18.598  0.00  0.00    +0.000 OA
BRANCH  13  17
ATOM     16  C   UNL     1       3.441   1.403  18.642  0.00  0.00    +0.000 C 
ATOM     17  C   UNL     1       3.199   2.885  18.357  0.00  0.00    +0.000 C 
ATOM     18  C   UNL     1       3.788   3.280  17.014  0.00  0.00    +0.000 C 
ENDBRANCH  13  17
ENDBRANCH  12  13
ENDBRANCH  11  12
ENDBRANCH   1  11
TORSDOF 6
ENDMDL
MODEL 2
REMARK VINA RESULT:      -5.9      3.415      5.554
REMARK  Name = 
REMARK  11 active torsions:
REMARK  status: ('A' for Active; 'I' for Inactive)
REMARK    1  A    between atoms: C_1  and  C_2
REMARK    2  A    between atoms: C_2  and  C_3
REMARK    3  A    between atoms: C_2  and  S_4
REMARK    4  A    between atoms: S_4  and  C_7
REMARK    5  A    between atoms: C_7  and  C_8
REMARK    6  A    between atoms: C_8  and  C_9
REMARK    7  A    between atoms: C_9  and  N_10
REMARK    8  A    between atoms: C_13  and  C_14
REMARK    9  A    between atoms: C_14  and  C_15
REMARK   10  A    between atoms: C_14  and  C_16
REMARK   11  A    between atoms: C_14  and  C_17
REMARK                            x       y       z     vdW  Elec       q    Type
REMARK                         _______ _______ _______ _____ _____    ______ ____
ROOT
ATOM      1  C   UNL     1       4.854   6.653  18.283  0.00  0.00    +0.000 C 
ENDROOT
BRANCH   1   2
ATOM      2  N   UNL     1       4.480   5.384  18.862  0.00  0.00    +0.000 N 
ATOM      3  C   UNL     1       5.266   4.315  19.120  0.00  0.00    +0.000 A 
ATOM      4  N   UNL     1       4.532   3.355  19.640  0.00  0.00    +0.000 NA
ATOM      5  C   UNL     1       3.266   3.896  19.651  0.00  0.00    +0.000 A 
ATOM      6  N   UNL     1       3.198   5.141  19.168  0.00  0.00    +0.000 NA
BRANCH   5   7
ATOM      7  C   UNL     1       2.058   3.180  20.195  0.00  0.00    +0.000 C 
ATOM      8  C   UNL     1       1.678   1.994  19.290  0.00  0.00    +0.000 C 
ATOM      9  C   UNL     1       2.361   2.642  21.608  0.00  0.00    +0.000 C 
ATOM     10  C   UNL     1       0.855   4.139  20.278  0.00  0.00    +0.000 C 
ENDBRANCH   5   7
ENDBRANCH   1   2
BRANCH   1  11
ATOM     11  C   UNL     1       6.209   6.583  17.574  0.00  0.00    +0.000 C 
BRANCH  11  12
ATOM     12  C   UNL     1       6.100   6.331  16.072  0.00  0.00    +0.000 C 
BRANCH  12  13
ATOM     13  S   UNL     1       7.180   5.007  15.534  0.00  0.00    +0.000 S 
ATOM     14  O   UNL     1       7.868   4.499  16.707  0.00  0.00    +0.000 OA
ATOM     15  O   UNL     1       7.922   5.499  14.389  0.00  0.00    +0.000 OA
BRANCH  13  17
ATOM     16  C   UNL     1       4.759   3.809  15.613  0.00  0.00    +0.000 C 
ATOM     17  C   UNL     1       6.108   3.712  14.902  0.00  0.00    +0.000 C 
ATOM     18  C   UNL     1       5.931   3.774  13.395  0.00  0.00    +0.000 C 
ENDBRANCH  13  17
ENDBRANCH  12  13
ENDBRANCH  11  12
ENDBRANCH   1  11
TORSDOF 6
ENDMDL
MODEL 3
REMARK VINA RESULT:      -5.9      1.723      2.065
REMARK  Name = 
REMARK  11 active torsions:
REMARK  status: ('A' for Active; 'I' for Inactive)
REMARK    1  A    between atoms: C_1  and  C_2
REMARK    2  A    between atoms: C_2  and  C_3
REMARK    3  A    between atoms: C_2  and  S_4
REMARK    4  A    between atoms: S_4  and  C_7
REMARK    5  A    between atoms: C_7  and  C_8
REMARK    6  A    between atoms: C_8  and  C_9
REMARK    7  A    between atoms: C_9  and  N_10
REMARK    8  A    between atoms: C_13  and  C_14
REMARK    9  A    between atoms: C_14  and  C_15
REMARK   10  A    between atoms: C_14  and  C_16
REMARK   11  A    between atoms: C_14  and  C_17
REMARK                            x       y       z     vdW  Elec       q    Type
REMARK                         _______ _______ _______ _____ _____    ______ ____
ROOT
ATOM      1  C   UNL     1       2.242   6.180  18.965  0.00  0.00    +0.000 C 
ENDROOT
BRANCH   1   2
ATOM      2  N   UNL     1       3.456   5.720  18.332  0.00  0.00    +0.000 N 
ATOM      3  C   UNL     1       3.590   4.851  17.305  0.00  0.00    +0.000 A 
ATOM      4  N   UNL     1       4.868   4.693  17.037  0.00  0.00    +0.000 NA
ATOM      5  C   UNL     1       5.489   5.488  17.975  0.00  0.00    +0.000 A 
ATOM      6  N   UNL     1       4.647   6.126  18.795  0.00  0.00    +0.000 NA
BRANCH   5   7
ATOM      7  C   UNL     1       6.981   5.669  18.058  0.00  0.00    +0.000 C 
ATOM      8  C   UNL     1       7.450   5.643  19.524  0.00  0.00    +0.000 C 
ATOM      9  C   UNL     1       7.690   4.532  17.295  0.00  0.00    +0.000 C 
ATOM     10  C   UNL     1       7.395   7.017  17.435  0.00  0.00    +0.000 C 
ENDBRANCH   5   7
ENDBRANCH   1   2
BRANCH   1  11
ATOM     11  C   UNL     1       2.126   5.689  20.411  0.00  0.00    +0.000 C 
BRANCH  11  12
ATOM     12  C   UNL     1       1.267   4.437  20.563  0.00  0.00    +0.000 C 
BRANCH  12  13
ATOM     13  S   UNL     1       2.260   2.969  20.824  0.00  0.00    +0.000 S 
ATOM     14  O   UNL     1       1.790   2.333  22.042  0.00  0.00    +0.000 OA
ATOM     15  O   UNL     1       3.648   3.360  20.674  0.00  0.00    +0.000 OA
BRANCH  13  17
ATOM     16  C   UNL     1       0.769   2.479  18.624  0.00  0.00    +0.000 C 
ATOM     17  C   UNL     1       1.908   1.876  19.444  0.00  0.00    +0.000 C 
ATOM     18  C   UNL     1       3.124   1.615  18.572  0.00  0.00    +0.000 C 
ENDBRANCH  13  17
ENDBRANCH  12  13
ENDBRANCH  11  12
ENDBRANCH   1  11
TORSDOF 6
ENDMDL
MODEL 4
REMARK VINA RESULT:      -5.8      3.110      5.287
REMARK  Name = 
REMARK  11 active torsions:
REMARK  status: ('A' for Active; 'I' for Inactive)
REMARK    1  A    between atoms: C_1  and  C_2
REMARK    2  A    between atoms: C_2  and  C_3
REMARK    3  A    between atoms: C_2  and  S_4
REMARK    4  A    between atoms: S_4  and  C_7
REMARK    5  A    between atoms: C_7  and  C_8
REMARK    6  A    between atoms: C_8  and  C_9
REMARK    7  A    between atoms: C_9  and  N_10
REMARK    8  A    between atoms: C_13  and  C_14
REMARK    9  A    between atoms: C_14  and  C_15
REMARK   10  A    between atoms: C_14  and  C_16
REMARK   11  A    between atoms: C_14  and  C_17
REMARK                            x       y       z     vdW  Elec       q    Type
REMARK                         _______ _______ _______ _____ _____    ______ ____
ROOT
ATOM      1  C   UNL     1       6.839   5.458  19.547  0.00  0.00    +0.000 C 
ENDROOT
BRANCH   1   2
ATOM      2  N   UNL     1       5.452   5.138  19.301  0.00  0.00    +0.000 N 
ATOM      3  C   UNL     1       4.455   5.966  18.916  0.00  0.00    +0.000 A 
ATOM      4  N   UNL     1       3.339   5.279  18.814  0.00  0.00    +0.000 NA
ATOM      5  C   UNL     1       3.714   4.008  19.185  0.00  0.00    +0.000 A 
ATOM      6  N   UNL     1       5.008   3.890  19.502  0.00  0.00    +0.000 NA
BRANCH   5   7
ATOM      7  C   UNL     1       2.775   2.831  19.197  0.00  0.00    +0.000 C 
ATOM      8  C   UNL     1       3.486   1.565  18.684  0.00  0.00    +0.000 C 
ATOM      9  C   UNL     1       2.283   2.569  20.635  0.00  0.00    +0.000 C 
ATOM     10  C   UNL     1       1.554   3.106  18.298  0.00  0.00    +0.000 C 
ENDBRANCH   5   7
ENDBRANCH   1   2
BRANCH   1  11
ATOM     11  C   UNL     1       7.646   5.552  18.249  0.00  0.00    +0.000 C 
BRANCH  11  12
ATOM     12  C   UNL     1       7.125   4.640  17.140  0.00  0.00    +0.000 C 
BRANCH  12  13
ATOM     13  S   UNL     1       6.696   5.559  15.664  0.00  0.00    +0.000 S 
ATOM     14  O   UNL     1       7.866   5.582  14.806  0.00  0.00    +0.000 OA
ATOM     15  O   UNL     1       6.063   6.790  16.095  0.00  0.00    +0.000 OA
BRANCH  13  17
ATOM     16  C   UNL     1       6.040   3.850  13.675  0.00  0.00    +0.000 C 
ATOM     17  C   UNL     1       5.411   4.611  14.841  0.00  0.00    +0.000 C 
ATOM     18  C   UNL     1       4.685   3.661  15.778  0.00  0.00    +0.000 C 
ENDBRANCH  13  17
ENDBRANCH  12  13
ENDBRANCH  11  12
ENDBRANCH   1  11
TORSDOF 6
ENDMDL
MODEL 5
REMARK VINA RESULT:      -5.8      3.012      5.234
REMARK  Name = 
REMARK  11 active torsions:
REMARK  status: ('A' for Active; 'I' for Inactive)
REMARK    1  A    between atoms: C_1  and  C_2
REMARK    2  A    between atoms: C_2  and  C_3
REMARK    3  A    between atoms: C_2  and  S_4
REMARK    4  A    between atoms: S_4  and  C_7
REMARK    5  A    between atoms: C_7  and  C_8
REMARK    6  A    between atoms: C_8  and  C_9
REMARK    7  A    between atoms: C_9  and  N_10
REMARK    8  A    between atoms: C_13  and  C_14
REMARK    9  A    between atoms: C_14  and  C_15
REMARK   10  A    between atoms: C_14  and  C_16
REMARK   11  A    between atoms: C_14  and  C_17
REMARK                            x       y       z     vdW  Elec       q    Type
REMARK                         _______ _______ _______ _____ _____    ______ ____
ROOT
ATOM      1  C   UNL     1       3.260   7.408  18.015  0.00  0.00    +0.000 C 
ENDROOT
BRANCH   1   2
ATOM      2  N   UNL     1       2.682   6.448  18.925  0.00  0.00    +0.000 N 
ATOM      3  C   UNL     1       2.105   6.673  20.127  0.00  0.00    +0.000 A 
ATOM      4  N   UNL     1       1.716   5.526  20.640  0.00  0.00    +0.000 NA
ATOM      5  C   UNL     1       2.115   4.605  19.698  0.00  0.00    +0.000 A 
ATOM      6  N   UNL     1       2.724   5.141  18.634  0.00  0.00    +0.000 NA
BRANCH   5   7
ATOM      7  C   UNL     1       1.861   3.127  19.816  0.00  0.00    +0.000 C 
ATOM      8  C   UNL     1       1.386   2.770  21.237  0.00  0.00    +0.000 C 
ATOM      9  C   UNL     1       0.770   2.701  18.813  0.00  0.00    +0.000 C 
ATOM     10  C   UNL     1       3.147   2.332  19.515  0.00  0.00    +0.000 C 
ENDBRANCH   5   7
ENDBRANCH   1   2
BRANCH   1  11
ATOM     11  C   UNL     1       4.304   6.770  17.094  0.00  0.00    +0.000 C 
BRANCH  11  12
ATOM     12  C   UNL     1       5.649   6.524  17.773  0.00  0.00    +0.000 C 
BRANCH  12  13
ATOM     13  S   UNL     1       6.705   5.452  16.802  0.00  0.00    +0.000 S 
ATOM     14  O   UNL     1       7.296   4.483  17.706  0.00  0.00    +0.000 OA
ATOM     15  O   UNL     1       7.536   6.305  15.975  0.00  0.00    +0.000 OA
BRANCH  13  17
ATOM     16  C   UNL     1       6.445   4.119  14.465  0.00  0.00    +0.000 C 
ATOM     17  C   UNL     1       5.622   4.578  15.668  0.00  0.00    +0.000 C 
ATOM     18  C   UNL     1       4.911   3.402  16.316  0.00  0.00    +0.000 C 
ENDBRANCH  13  17
ENDBRANCH  12  13
ENDBRANCH  11  12
ENDBRANCH   1  11
TORSDOF 6
ENDMDL
MODEL 6
REMARK VINA RESULT:      -5.7      2.794      5.456
REMARK  Name = 
REMARK  11 active torsions:
REMARK  status: ('A' for Active; 'I' for Inactive)
REMARK    1  A    between atoms: C_1  and  C_2
REMARK    2  A    between atoms: C_2  and  C_3
REMARK    3  A    between atoms: C_2  and  S_4
REMARK    4  A    between atoms: S_4  and  C_7
REMARK    5  A    between atoms: C_7  and  C_8
REMARK    6  A    between atoms: C_8  and  C_9
REMARK    7  A    between atoms: C_9  and  N_10
REMARK    8  A    between atoms: C_13  and  C_14
REMARK    9  A    between atoms: C_14  and  C_15
REMARK   10  A    between atoms: C_14  and  C_16
REMARK   11  A    between atoms: C_14  and  C_17
REMARK                            x       y       z     vdW  Elec       q    Type
REMARK                         _______ _______ _______ _____ _____    ______ ____
ROOT
ATOM      1  C   UNL     1       3.056   7.233  17.571  0.00  0.00    +0.000 C 
ENDROOT
BRANCH   1   2
ATOM      2  N   UNL     1       2.632   6.401  18.673  0.00  0.00    +0.000 N 
ATOM      3  C   UNL     1       2.222   6.783  19.904  0.00  0.00    +0.000 A 
ATOM      4  N   UNL     1       1.935   5.714  20.614  0.00  0.00    +0.000 NA
ATOM      5  C   UNL     1       2.222   4.676  19.755  0.00  0.00    +0.000 A 
ATOM      6  N   UNL     1       2.665   5.067  18.554  0.00  0.00    +0.000 NA
BRANCH   5   7
ATOM      7  C   UNL     1       2.022   3.226  20.103  0.00  0.00    +0.000 C 
ATOM      8  C   UNL     1       3.250   2.394  19.689  0.00  0.00    +0.000 C 
ATOM      9  C   UNL     1       1.817   3.075  21.624  0.00  0.00    +0.000 C 
ATOM     10  C   UNL     1       0.783   2.663  19.379  0.00  0.00    +0.000 C 
ENDBRANCH   5   7
ENDBRANCH   1   2
BRANCH   1  11
ATOM     11  C   UNL     1       4.580   7.272  17.434  0.00  0.00    +0.000 C 
BRANCH  11  12
ATOM     12  C   UNL     1       5.118   6.342  16.348  0.00  0.00    +0.000 C 
BRANCH  12  13
ATOM     13  S   UNL     1       6.693   5.621  16.804  0.00  0.00    +0.000 S 
ATOM     14  O   UNL     1       7.622   5.876  15.719  0.00  0.00    +0.000 OA
ATOM     15  O   UNL     1       6.429   4.269  17.256  0.00  0.00    +0.000 OA
BRANCH  13  17
ATOM     16  C   UNL     1       8.163   5.604  19.071  0.00  0.00    +0.000 C 
ATOM     17  C   UNL     1       7.255   6.520  18.252  0.00  0.00    +0.000 C 
ATOM     18  C   UNL     1       7.966   7.817  17.905  0.00  0.00    +0.000 C 
ENDBRANCH  13  17
ENDBRANCH  12  13
ENDBRANCH  11  12
ENDBRANCH   1  11
TORSDOF 6
ENDMDL
MODEL 7
REMARK VINA RESULT:      -5.6      3.458      5.801
REMARK  Name = 
REMARK  11 active torsions:
REMARK  status: ('A' for Active; 'I' for Inactive)
REMARK    1  A    between atoms: C_1  and  C_2
REMARK    2  A    between atoms: C_2  and  C_3
REMARK    3  A    between atoms: C_2  and  S_4
REMARK    4  A    between atoms: S_4  and  C_7
REMARK    5  A    between atoms: C_7  and  C_8
REMARK    6  A    between atoms: C_8  and  C_9
REMARK    7  A    between atoms: C_9  and  N_10
REMARK    8  A    between atoms: C_13  and  C_14
REMARK    9  A    between atoms: C_14  and  C_15
REMARK   10  A    between atoms: C_14  and  C_16
REMARK   11  A    between atoms: C_14  and  C_17
REMARK                            x       y       z     vdW  Elec       q    Type
REMARK                         _______ _______ _______ _____ _____    ______ ____
ROOT
ATOM      1  C   UNL     1       5.120   6.208  18.086  0.00  0.00    +0.000 C 
ENDROOT
BRANCH   1   2
ATOM      2  N   UNL     1       4.540   5.065  18.751  0.00  0.00    +0.000 N 
ATOM      3  C   UNL     1       5.146   3.918  19.132  0.00  0.00    +0.000 A 
ATOM      4  N   UNL     1       4.259   3.128  19.696  0.00  0.00    +0.000 NA
ATOM      5  C   UNL     1       3.090   3.849  19.606  0.00  0.00    +0.000 A 
ATOM      6  N   UNL     1       3.227   5.043  19.018  0.00  0.00    +0.000 NA
BRANCH   5   7
ATOM      7  C   UNL     1       1.771   3.371  20.153  0.00  0.00    +0.000 C 
ATOM      8  C   UNL     1       1.976   2.617  21.480  0.00  0.00    +0.000 C 
ATOM      9  C   UNL     1       0.843   4.576  20.411  0.00  0.00    +0.000 C 
ATOM     10  C   UNL     1       1.084   2.423  19.151  0.00  0.00    +0.000 C 
ENDBRANCH   5   7
ENDBRANCH   1   2
BRANCH   1  11
ATOM     11  C   UNL     1       4.817   6.215  16.585  0.00  0.00    +0.000 C 
BRANCH  11  12
ATOM     12  C   UNL     1       5.301   4.961  15.859  0.00  0.00    +0.000 C 
BRANCH  12  13
ATOM     13  S   UNL     1       7.075   4.974  15.609  0.00  0.00    +0.000 S 
ATOM     14  O   UNL     1       7.654   4.009  16.526  0.00  0.00    +0.000 OA
ATOM     15  O   UNL     1       7.498   6.361  15.620  0.00  0.00    +0.000 OA
BRANCH  13  17
ATOM     16  C   UNL     1       6.029   3.845  13.387  0.00  0.00    +0.000 C 
ATOM     17  C   UNL     1       7.347   4.393  13.932  0.00  0.00    +0.000 C 
ATOM     18  C   UNL     1       7.904   5.470  13.016  0.00  0.00    +0.000 C 
ENDBRANCH  13  17
ENDBRANCH  12  13
ENDBRANCH  11  12
ENDBRANCH   1  11
TORSDOF 6
ENDMDL
MODEL 8
REMARK VINA RESULT:      -5.6      3.366      5.544
REMARK  Name = 
REMARK  11 active torsions:
REMARK  status: ('A' for Active; 'I' for Inactive)
REMARK    1  A    between atoms: C_1  and  C_2
REMARK    2  A    between atoms: C_2  and  C_3
REMARK    3  A    between atoms: C_2  and  S_4
REMARK    4  A    between atoms: S_4  and  C_7
REMARK    5  A    between atoms: C_7  and  C_8
REMARK    6  A    between atoms: C_8  and  C_9
REMARK    7  A    between atoms: C_9  and  N_10
REMARK    8  A    between atoms: C_13  and  C_14
REMARK    9  A    between atoms: C_14  and  C_15
REMARK   10  A    between atoms: C_14  and  C_16
REMARK   11  A    between atoms: C_14  and  C_17
REMARK                            x       y       z     vdW  Elec       q    Type
REMARK                         _______ _______ _______ _____ _____    ______ ____
ROOT
ATOM      1  C   UNL     1       4.919   6.699  18.395  0.00  0.00    +0.000 C 
ENDROOT
BRANCH   1   2
ATOM      2  N   UNL     1       4.556   5.413  18.943  0.00  0.00    +0.000 N 
ATOM      3  C   UNL     1       5.355   4.352  19.196  0.00  0.00    +0.000 A 
ATOM      4  N   UNL     1       4.628   3.370  19.683  0.00  0.00    +0.000 NA
ATOM      5  C   UNL     1       3.353   3.889  19.681  0.00  0.00    +0.000 A 
ATOM      6  N   UNL     1       3.272   5.142  19.220  0.00  0.00    +0.000 NA
BRANCH   5   7
ATOM      7  C   UNL     1       2.148   3.143  20.188  0.00  0.00    +0.000 C 
ATOM      8  C   UNL     1       0.918   4.068  20.238  0.00  0.00    +0.000 C 
ATOM      9  C   UNL     1       1.833   1.958  19.252  0.00  0.00    +0.000 C 
ATOM     10  C   UNL     1       2.409   2.597  21.605  0.00  0.00    +0.000 C 
ENDBRANCH   5   7
ENDBRANCH   1   2
BRANCH   1  11
ATOM     11  C   UNL     1       5.249   6.615  16.903  0.00  0.00    +0.000 C 
BRANCH  11  12
ATOM     12  C   UNL     1       6.747   6.584  16.610  0.00  0.00    +0.000 C 
BRANCH  12  13
ATOM     13  S   UNL     1       7.224   5.110  15.710  0.00  0.00    +0.000 S 
ATOM     14  O   UNL     1       7.827   4.193  16.660  0.00  0.00    +0.000 OA
ATOM     15  O   UNL     1       7.947   5.545  14.531  0.00  0.00    +0.000 OA
BRANCH  13  17
ATOM     16  C   UNL     1       5.936   3.867  13.686  0.00  0.00    +0.000 C 
ATOM     17  C   UNL     1       5.700   4.378  15.107  0.00  0.00    +0.000 C 
ATOM     18  C   UNL     1       5.183   3.265  16.003  0.00  0.00    +0.000 C 
ENDBRANCH  13  17
ENDBRANCH  12  13
ENDBRANCH  11  12
ENDBRANCH   1  11
TORSDOF 6
ENDMDL
MODEL 9
REMARK VINA RESULT:      -5.6      3.331      5.816
REMARK  Name = 
REMARK  11 active torsions:
REMARK  status: ('A' for Active; 'I' for Inactive)
REMARK    1  A    between atoms: C_1  and  C_2
REMARK    2  A    between atoms: C_2  and  C_3
REMARK    3  A    between atoms: C_2  and  S_4
REMARK    4  A    between atoms: S_4  and  C_7
REMARK    5  A    between atoms: C_7  and  C_8
REMARK    6  A    between atoms: C_8  and  C_9
REMARK    7  A    between atoms: C_9  and  N_10
REMARK    8  A    between atoms: C_13  and  C_14
REMARK    9  A    between atoms: C_14  and  C_15
REMARK   10  A    between atoms: C_14  and  C_16
REMARK   11  A    between atoms: C_14  and  C_17
REMARK                            x       y       z     vdW  Elec       q    Type
REMARK                         _______ _______ _______ _____ _____    ______ ____
ROOT
ATOM      1  C   UNL     1       5.311   5.615  18.101  0.00  0.00    +0.000 C 
ENDROOT
BRANCH   1   2
ATOM      2  N   UNL     1       4.579   4.601  18.822  0.00  0.00    +0.000 N 
ATOM      3  C   UNL     1       5.039   3.438  19.336  0.00  0.00    +0.000 A 
ATOM      4  N   UNL     1       4.045   2.795  19.908  0.00  0.00    +0.000 NA
ATOM      5  C   UNL     1       2.965   3.619  19.685  0.00  0.00    +0.000 A 
ATOM      6  N   UNL     1       3.258   4.735  19.009  0.00  0.00    +0.000 NA
BRANCH   5   7
ATOM      7  C   UNL     1       1.576   3.328  20.188  0.00  0.00    +0.000 C 
ATOM      8  C   UNL     1       1.632   2.563  21.523  0.00  0.00    +0.000 C 
ATOM      9  C   UNL     1       0.812   4.649  20.410  0.00  0.00    +0.000 C 
ATOM     10  C   UNL     1       0.801   2.474  19.166  0.00  0.00    +0.000 C 
ENDBRANCH   5   7
ENDBRANCH   1   2
BRANCH   1  11
ATOM     11  C   UNL     1       4.581   6.055  16.829  0.00  0.00    +0.000 C 
BRANCH  11  12
ATOM     12  C   UNL     1       5.505   6.240  15.627  0.00  0.00    +0.000 C 
BRANCH  12  13
ATOM     13  S   UNL     1       6.341   4.719  15.184  0.00  0.00    +0.000 S 
ATOM     14  O   UNL     1       5.470   3.618  15.550  0.00  0.00    +0.000 OA
ATOM     15  O   UNL     1       7.692   4.807  15.703  0.00  0.00    +0.000 OA
BRANCH  13  17
ATOM     16  C   UNL     1       7.927   5.166  13.042  0.00  0.00    +0.000 C 
ATOM     17  C   UNL     1       6.503   4.741  13.396  0.00  0.00    +0.000 C 
ATOM     18  C   UNL     1       6.161   3.408  12.754  0.00  0.00    +0.000 C 
ENDBRANCH  13  17
ENDBRANCH  12  13
ENDBRANCH  11  12
ENDBRANCH   1  11
TORSDOF 6
ENDMDL
