MODEL 1
REMARK VINA RESULT:      -4.7      0.000      0.000
REMARK  Name = 
REMARK  31 active torsions:
REMARK  status: ('A' for Active; 'I' for Inactive)
REMARK    1  A    between atoms: C_1  and  O_2
REMARK    2  A    between atoms: O_2  and  C_3
REMARK    3  A    between atoms: C_3  and  C_4
REMARK    4  A    between atoms: C_4  and  O_5
REMARK    5  A    between atoms: O_5  and  C_6
REMARK    6  A    between atoms: C_6  and  C_7
REMARK    7  A    between atoms: C_7  and  O_8
REMARK    8  A    between atoms: O_8  and  C_9
REMARK    9  A    between atoms: C_9  and  C_10
REMARK   10  A    between atoms: C_10  and  O_11
REMARK   11  A    between atoms: O_11  and  C_12
REMARK   12  A    between atoms: C_12  and  C_13
REMARK   13  A    between atoms: C_13  and  O_14
REMARK   14  A    between atoms: O_14  and  C_15
REMARK   15  A    between atoms: C_15  and  C_16
REMARK   16  A    between atoms: C_16  and  O_17
REMARK   17  A    between atoms: O_17  and  C_18
REMARK   18  A    between atoms: C_18  and  C_19
REMARK   19  A    between atoms: C_19  and  O_20
REMARK   20  A    between atoms: O_20  and  C_21
REMARK   21  A    between atoms: C_21  and  C_22
REMARK   22  A    between atoms: C_22  and  O_23
REMARK   23  A    between atoms: O_23  and  C_24
REMARK   24  A    between atoms: C_24  and  C_25
REMARK   25  A    between atoms: C_25  and  O_26
REMARK   26  A    between atoms: O_26  and  C_27
REMARK   27  A    between atoms: C_27  and  C_28
REMARK   28  A    between atoms: C_28  and  O_29
REMARK   29  A    between atoms: O_29  and  C_30
REMARK   30  A    between atoms: C_30  and  C_31
REMARK   31  A    between atoms: C_31  and  O_32
REMARK                            x       y       z     vdW  Elec       q    Type
REMARK                         _______ _______ _______ _____ _____    ______ ____
ROOT
ATOM      1  O   UNL     1       1.724   3.008  19.424  0.00  0.00    +0.000 OA
ENDROOT
BRANCH   1   2
ATOM      2  C   UNL     1       1.278   4.331  19.165  0.00  0.00    +0.000 C 
BRANCH   2   3
ATOM      3  C   UNL     1       2.120   4.940  18.055  0.00  0.00    +0.000 C 
BRANCH   3   4
ATOM      4  O   UNL     1       2.233   6.340  18.261  0.00  0.00    +0.000 OA
BRANCH   4   5
ATOM      5  C   UNL     1       2.085   6.630  19.643  0.00  0.00    +0.000 C 
BRANCH   5   6
ATOM      6  C   UNL     1       2.182   8.131  19.861  0.00  0.00    +0.000 C 
BRANCH   6   7
ATOM      7  O   UNL     1       1.191   8.787  19.084  0.00  0.00    +0.000 OA
BRANCH   7   8
ATOM      8  C   UNL     1       0.441   9.661  19.914  0.00  0.00    +0.000 C 
BRANCH   8   9
ATOM      9  C   UNL     1       0.731   9.348  21.373  0.00  0.00    +0.000 C 
BRANCH   9  10
ATOM     10  O   UNL     1       0.978  10.557  22.076  0.00  0.00    +0.000 OA
BRANCH  10  11
ATOM     11  C   UNL     1      -0.002  11.520  21.720  0.00  0.00    +0.000 C 
BRANCH  11  12
ATOM     12  C   UNL     1      -1.063  11.589  22.807  0.00  0.00    +0.000 C 
BRANCH  12  13
ATOM     13  O   UNL     1      -1.044  12.877  23.405  0.00  0.00    +0.000 OA
BRANCH  13  14
ATOM     14  C   UNL     1      -2.329  13.470  23.294  0.00  0.00    +0.000 C 
BRANCH  14  15
ATOM     15  C   UNL     1      -3.282  12.493  22.624  0.00  0.00    +0.000 C 
BRANCH  15  16
ATOM     16  O   UNL     1      -4.425  12.309  23.443  0.00  0.00    +0.000 OA
ATOM     17  H   UNL     1      -4.179  11.806  24.236  0.00  0.00    +0.000 HD
ENDBRANCH  15  16
ENDBRANCH  14  15
ENDBRANCH  13  14
ENDBRANCH  12  13
ENDBRANCH  11  12
ENDBRANCH  10  11
ENDBRANCH   9  10
ENDBRANCH   8   9
ENDBRANCH   7   8
ENDBRANCH   6   7
ENDBRANCH   5   6
ENDBRANCH   4   5
ENDBRANCH   3   4
ENDBRANCH   2   3
ENDBRANCH   1   2
BRANCH   1  18
ATOM     18  C   UNL     1       2.821   3.047  20.327  0.00  0.00    +0.000 C 
BRANCH  18  19
ATOM     19  C   UNL     1       3.979   2.246  19.754  0.00  0.00    +0.000 C 
BRANCH  19  20
ATOM     20  O   UNL     1       5.177   2.997  19.873  0.00  0.00    +0.000 OA
BRANCH  20  21
ATOM     21  C   UNL     1       5.270   3.915  18.793  0.00  0.00    +0.000 C 
BRANCH  21  22
ATOM     22  C   UNL     1       5.580   5.302  19.332  0.00  0.00    +0.000 C 
BRANCH  22  23
ATOM     23  O   UNL     1       6.944   5.365  19.724  0.00  0.00    +0.000 OA
BRANCH  23  24
ATOM     24  C   UNL     1       7.760   5.513  18.572  0.00  0.00    +0.000 C 
BRANCH  24  25
ATOM     25  C   UNL     1       7.333   6.753  17.804  0.00  0.00    +0.000 C 
BRANCH  25  26
ATOM     26  O   UNL     1       7.610   6.574  16.423  0.00  0.00    +0.000 OA
BRANCH  26  27
ATOM     27  C   UNL     1       7.022   5.361  15.976  0.00  0.00    +0.000 C 
BRANCH  27  28
ATOM     28  C   UNL     1       5.595   5.626  15.525  0.00  0.00    +0.000 C 
BRANCH  28  29
ATOM     29  O   UNL     1       5.199   4.628  14.595  0.00  0.00    +0.000 OA
BRANCH  29  30
ATOM     30  C   UNL     1       6.353   4.039  14.014  0.00  0.00    +0.000 C 
BRANCH  30  31
ATOM     31  C   UNL     1       6.006   3.494  12.638  0.00  0.00    +0.000 C 
BRANCH  31  33
ATOM     32  C   UNL     1       4.261   3.193  11.140  0.00  0.00    +0.000 C 
ATOM     33  O   UNL     1       4.594   3.417  12.502  0.00  0.00    +0.000 OA
ENDBRANCH  31  33
ENDBRANCH  30  31
ENDBRANCH  29  30
ENDBRANCH  28  29
ENDBRANCH  27  28
ENDBRANCH  26  27
ENDBRANCH  25  26
ENDBRANCH  24  25
ENDBRANCH  23  24
ENDBRANCH  22  23
ENDBRANCH  21  22
ENDBRANCH  20  21
ENDBRANCH  19  20
ENDBRANCH  18  19
ENDBRANCH   1  18
TORSDOF 30
ENDMDL
MODEL 2
REMARK VINA RESULT:      -4.4      1.888      9.977
REMARK  Name = 
REMARK  31 active torsions:
REMARK  status: ('A' for Active; 'I' for Inactive)
REMARK    1  A    between atoms: C_1  and  O_2
REMARK    2  A    between atoms: O_2  and  C_3
REMARK    3  A    between atoms: C_3  and  C_4
REMARK    4  A    between atoms: C_4  and  O_5
REMARK    5  A    between atoms: O_5  and  C_6
REMARK    6  A    between atoms: C_6  and  C_7
REMARK    7  A    between atoms: C_7  and  O_8
REMARK    8  A    between atoms: O_8  and  C_9
REMARK    9  A    between atoms: C_9  and  C_10
REMARK   10  A    between atoms: C_10  and  O_11
REMARK   11  A    between atoms: O_11  and  C_12
REMARK   12  A    between atoms: C_12  and  C_13
REMARK   13  A    between atoms: C_13  and  O_14
REMARK   14  A    between atoms: O_14  and  C_15
REMARK   15  A    between atoms: C_15  and  C_16
REMARK   16  A    between atoms: C_16  and  O_17
REMARK   17  A    between atoms: O_17  and  C_18
REMARK   18  A    between atoms: C_18  and  C_19
REMARK   19  A    between atoms: C_19  and  O_20
REMARK   20  A    between atoms: O_20  and  C_21
REMARK   21  A    between atoms: C_21  and  C_22
REMARK   22  A    between atoms: C_22  and  O_23
REMARK   23  A    between atoms: O_23  and  C_24
REMARK   24  A    between atoms: C_24  and  C_25
REMARK   25  A    between atoms: C_25  and  O_26
REMARK   26  A    between atoms: O_26  and  C_27
REMARK   27  A    between atoms: C_27  and  C_28
REMARK   28  A    between atoms: C_28  and  O_29
REMARK   29  A    between atoms: O_29  and  C_30
REMARK   30  A    between atoms: C_30  and  C_31
REMARK   31  A    between atoms: C_31  and  O_32
REMARK                            x       y       z     vdW  Elec       q    Type
REMARK                         _______ _______ _______ _____ _____    ______ ____
ROOT
ATOM      1  O   UNL     1       3.752   2.923  20.941  0.00  0.00    +0.000 OA
ENDROOT
BRANCH   1   2
ATOM      2  C   UNL     1       3.893   2.357  19.647  0.00  0.00    +0.000 C 
BRANCH   2   3
ATOM      3  C   UNL     1       4.911   3.159  18.852  0.00  0.00    +0.000 C 
BRANCH   3   4
ATOM      4  O   UNL     1       5.611   4.032  19.726  0.00  0.00    +0.000 OA
BRANCH   4   5
ATOM      5  C   UNL     1       5.849   5.269  19.070  0.00  0.00    +0.000 C 
BRANCH   5   6
ATOM      6  C   UNL     1       7.340   5.561  19.061  0.00  0.00    +0.000 C 
BRANCH   6   7
ATOM      7  O   UNL     1       7.829   5.486  17.731  0.00  0.00    +0.000 OA
BRANCH   7   8
ATOM      8  C   UNL     1       6.739   5.533  16.823  0.00  0.00    +0.000 C 
BRANCH   8   9
ATOM      9  C   UNL     1       7.007   4.592  15.659  0.00  0.00    +0.000 C 
BRANCH   9  10
ATOM     10  O   UNL     1       5.820   3.880  15.342  0.00  0.00    +0.000 OA
BRANCH  10  11
ATOM     11  C   UNL     1       5.572   3.974  13.947  0.00  0.00    +0.000 C 
BRANCH  11  12
ATOM     12  C   UNL     1       6.856   4.354  13.228  0.00  0.00    +0.000 C 
BRANCH  12  13
ATOM     13  O   UNL     1       6.884   3.735  11.950  0.00  0.00    +0.000 OA
BRANCH  13  14
ATOM     14  C   UNL     1       6.021   2.608  11.951  0.00  0.00    +0.000 C 
BRANCH  14  15
ATOM     15  C   UNL     1       6.620   1.509  11.087  0.00  0.00    +0.000 C 
BRANCH  15  16
ATOM     16  O   UNL     1       6.172   0.246  11.551  0.00  0.00    +0.000 OA
ATOM     17  H   UNL     1       5.209   0.270  11.680  0.00  0.00    +0.000 HD
ENDBRANCH  15  16
ENDBRANCH  14  15
ENDBRANCH  13  14
ENDBRANCH  12  13
ENDBRANCH  11  12
ENDBRANCH  10  11
ENDBRANCH   9  10
ENDBRANCH   8   9
ENDBRANCH   7   8
ENDBRANCH   6   7
ENDBRANCH   5   6
ENDBRANCH   4   5
ENDBRANCH   3   4
ENDBRANCH   2   3
ENDBRANCH   1   2
BRANCH   1  18
ATOM     18  C   UNL     1       2.587   3.734  20.980  0.00  0.00    +0.000 C 
BRANCH  18  19
ATOM     19  C   UNL     1       1.369   2.889  20.643  0.00  0.00    +0.000 C 
BRANCH  19  20
ATOM     20  O   UNL     1       0.545   3.591  19.726  0.00  0.00    +0.000 OA
BRANCH  20  21
ATOM     21  C   UNL     1       0.665   3.006  18.438  0.00  0.00    +0.000 C 
BRANCH  21  22
ATOM     22  C   UNL     1       1.633   3.823  17.598  0.00  0.00    +0.000 C 
BRANCH  22  23
ATOM     23  O   UNL     1       1.397   5.206  17.815  0.00  0.00    +0.000 OA
BRANCH  23  24
ATOM     24  C   UNL     1       2.636   5.874  18.000  0.00  0.00    +0.000 C 
BRANCH  24  25
ATOM     25  C   UNL     1       2.390   7.231  18.638  0.00  0.00    +0.000 C 
BRANCH  25  26
ATOM     26  O   UNL     1       1.816   8.108  17.680  0.00  0.00    +0.000 OA
BRANCH  26  27
ATOM     27  C   UNL     1       1.868   9.441  18.168  0.00  0.00    +0.000 C 
BRANCH  27  28
ATOM     28  C   UNL     1       0.454   9.972  18.342  0.00  0.00    +0.000 C 
BRANCH  28  29
ATOM     29  O   UNL     1       0.507  11.325  18.773  0.00  0.00    +0.000 OA
BRANCH  29  30
ATOM     30  C   UNL     1       0.960  11.375  20.118  0.00  0.00    +0.000 C 
BRANCH  30  31
ATOM     31  C   UNL     1      -0.195  11.059  21.053  0.00  0.00    +0.000 C 
BRANCH  31  33
ATOM     32  C   UNL     1      -0.664  10.108  23.117  0.00  0.00    +0.000 C 
ATOM     33  O   UNL     1       0.306  10.819  22.361  0.00  0.00    +0.000 OA
ENDBRANCH  31  33
ENDBRANCH  30  31
ENDBRANCH  29  30
ENDBRANCH  28  29
ENDBRANCH  27  28
ENDBRANCH  26  27
ENDBRANCH  25  26
ENDBRANCH  24  25
ENDBRANCH  23  24
ENDBRANCH  22  23
ENDBRANCH  21  22
ENDBRANCH  20  21
ENDBRANCH  19  20
ENDBRANCH  18  19
ENDBRANCH   1  18
TORSDOF 30
ENDMDL
MODEL 3
REMARK VINA RESULT:      -4.4      2.419      5.133
REMARK  Name = 
REMARK  31 active torsions:
REMARK  status: ('A' for Active; 'I' for Inactive)
REMARK    1  A    between atoms: C_1  and  O_2
REMARK    2  A    between atoms: O_2  and  C_3
REMARK    3  A    between atoms: C_3  and  C_4
REMARK    4  A    between atoms: C_4  and  O_5
REMARK    5  A    between atoms: O_5  and  C_6
REMARK    6  A    between atoms: C_6  and  C_7
REMARK    7  A    between atoms: C_7  and  O_8
REMARK    8  A    between atoms: O_8  and  C_9
REMARK    9  A    between atoms: C_9  and  C_10
REMARK   10  A    between atoms: C_10  and  O_11
REMARK   11  A    between atoms: O_11  and  C_12
REMARK   12  A    between atoms: C_12  and  C_13
REMARK   13  A    between atoms: C_13  and  O_14
REMARK   14  A    between atoms: O_14  and  C_15
REMARK   15  A    between atoms: C_15  and  C_16
REMARK   16  A    between atoms: C_16  and  O_17
REMARK   17  A    between atoms: O_17  and  C_18
REMARK   18  A    between atoms: C_18  and  C_19
REMARK   19  A    between atoms: C_19  and  O_20
REMARK   20  A    between atoms: O_20  and  C_21
REMARK   21  A    between atoms: C_21  and  C_22
REMARK   22  A    between atoms: C_22  and  O_23
REMARK   23  A    between atoms: O_23  and  C_24
REMARK   24  A    between atoms: C_24  and  C_25
REMARK   25  A    between atoms: C_25  and  O_26
REMARK   26  A    between atoms: O_26  and  C_27
REMARK   27  A    between atoms: C_27  and  C_28
REMARK   28  A    between atoms: C_28  and  O_29
REMARK   29  A    between atoms: O_29  and  C_30
REMARK   30  A    between atoms: C_30  and  C_31
REMARK   31  A    between atoms: C_31  and  O_32
REMARK                            x       y       z     vdW  Elec       q    Type
REMARK                         _______ _______ _______ _____ _____    ______ ____
ROOT
ATOM      1  O   UNL     1       2.362   8.815  17.400  0.00  0.00    +0.000 OA
ENDROOT
BRANCH   1   2
ATOM      2  C   UNL     1       1.475   9.761  17.978  0.00  0.00    +0.000 C 
BRANCH   2   3
ATOM      3  C   UNL     1       1.144   9.341  19.401  0.00  0.00    +0.000 C 
BRANCH   3   4
ATOM      4  O   UNL     1       0.170  10.222  19.940  0.00  0.00    +0.000 OA
BRANCH   4   5
ATOM      5  C   UNL     1       0.814  11.362  20.491  0.00  0.00    +0.000 C 
BRANCH   5   6
ATOM      6  C   UNL     1       0.083  12.620  20.052  0.00  0.00    +0.000 C 
BRANCH   6   7
ATOM      7  O   UNL     1      -1.080  12.794  20.847  0.00  0.00    +0.000 OA
BRANCH   7   8
ATOM      8  C   UNL     1      -0.870  13.856  21.766  0.00  0.00    +0.000 C 
BRANCH   8   9
ATOM      9  C   UNL     1      -1.172  13.373  23.176  0.00  0.00    +0.000 C 
BRANCH   9  10
ATOM     10  O   UNL     1      -2.539  13.611  23.475  0.00  0.00    +0.000 OA
BRANCH  10  11
ATOM     11  C   UNL     1      -3.235  12.374  23.523  0.00  0.00    +0.000 C 
BRANCH  11  12
ATOM     12  C   UNL     1      -4.378  12.474  24.520  0.00  0.00    +0.000 C 
BRANCH  12  13
ATOM     13  O   UNL     1      -5.590  12.083  23.891  0.00  0.00    +0.000 OA
BRANCH  13  14
ATOM     14  C   UNL     1      -6.610  13.020  24.205  0.00  0.00    +0.000 C 
BRANCH  14  15
ATOM     15  C   UNL     1      -6.384  14.300  23.415  0.00  0.00    +0.000 C 
BRANCH  15  16
ATOM     16  O   UNL     1      -6.334  15.403  24.306  0.00  0.00    +0.000 OA
ATOM     17  H   UNL     1      -7.053  16.021  24.098  0.00  0.00    +0.000 HD
ENDBRANCH  15  16
ENDBRANCH  14  15
ENDBRANCH  13  14
ENDBRANCH  12  13
ENDBRANCH  11  12
ENDBRANCH  10  11
ENDBRANCH   9  10
ENDBRANCH   8   9
ENDBRANCH   7   8
ENDBRANCH   6   7
ENDBRANCH   5   6
ENDBRANCH   4   5
ENDBRANCH   3   4
ENDBRANCH   2   3
ENDBRANCH   1   2
BRANCH   1  18
ATOM     18  C   UNL     1       2.610   7.770  18.330  0.00  0.00    +0.000 C 
BRANCH  18  19
ATOM     19  C   UNL     1       3.673   6.837  17.773  0.00  0.00    +0.000 C 
BRANCH  19  20
ATOM     20  O   UNL     1       4.067   7.284  16.484  0.00  0.00    +0.000 OA
BRANCH  20  21
ATOM     21  C   UNL     1       5.256   6.615  16.094  0.00  0.00    +0.000 C 
BRANCH  21  22
ATOM     22  C   UNL     1       6.318   6.801  17.166  0.00  0.00    +0.000 C 
BRANCH  22  23
ATOM     23  O   UNL     1       7.402   5.917  16.917  0.00  0.00    +0.000 OA
BRANCH  23  24
ATOM     24  C   UNL     1       7.473   4.953  17.957  0.00  0.00    +0.000 C 
BRANCH  24  25
ATOM     25  C   UNL     1       6.193   4.134  17.979  0.00  0.00    +0.000 C 
BRANCH  25  26
ATOM     26  O   UNL     1       5.706   4.052  19.310  0.00  0.00    +0.000 OA
BRANCH  26  27
ATOM     27  C   UNL     1       4.528   3.260  19.335  0.00  0.00    +0.000 C 
BRANCH  27  28
ATOM     28  C   UNL     1       3.887   3.261  17.956  0.00  0.00    +0.000 C 
BRANCH  28  29
ATOM     29  O   UNL     1       3.057   2.117  17.819  0.00  0.00    +0.000 OA
BRANCH  29  30
ATOM     30  C   UNL     1       2.346   1.902  19.029  0.00  0.00    +0.000 C 
BRANCH  30  31
ATOM     31  C   UNL     1       0.963   2.525  18.921  0.00  0.00    +0.000 C 
BRANCH  31  33
ATOM     32  C   UNL     1       1.326   2.942  21.174  0.00  0.00    +0.000 C 
ATOM     33  O   UNL     1       0.784   3.465  19.970  0.00  0.00    +0.000 OA
ENDBRANCH  31  33
ENDBRANCH  30  31
ENDBRANCH  29  30
ENDBRANCH  28  29
ENDBRANCH  27  28
ENDBRANCH  26  27
ENDBRANCH  25  26
ENDBRANCH  24  25
ENDBRANCH  23  24
ENDBRANCH  22  23
ENDBRANCH  21  22
ENDBRANCH  20  21
ENDBRANCH  19  20
ENDBRANCH  18  19
ENDBRANCH   1  18
TORSDOF 30
ENDMDL
MODEL 4
REMARK VINA RESULT:      -4.4      2.629     10.175
REMARK  Name = 
REMARK  31 active torsions:
REMARK  status: ('A' for Active; 'I' for Inactive)
REMARK    1  A    between atoms: C_1  and  O_2
REMARK    2  A    between atoms: O_2  and  C_3
REMARK    3  A    between atoms: C_3  and  C_4
REMARK    4  A    between atoms: C_4  and  O_5
REMARK    5  A    between atoms: O_5  and  C_6
REMARK    6  A    between atoms: C_6  and  C_7
REMARK    7  A    between atoms: C_7  and  O_8
REMARK    8  A    between atoms: O_8  and  C_9
REMARK    9  A    between atoms: C_9  and  C_10
REMARK   10  A    between atoms: C_10  and  O_11
REMARK   11  A    between atoms: O_11  and  C_12
REMARK   12  A    between atoms: C_12  and  C_13
REMARK   13  A    between atoms: C_13  and  O_14
REMARK   14  A    between atoms: O_14  and  C_15
REMARK   15  A    between atoms: C_15  and  C_16
REMARK   16  A    between atoms: C_16  and  O_17
REMARK   17  A    between atoms: O_17  and  C_18
REMARK   18  A    between atoms: C_18  and  C_19
REMARK   19  A    between atoms: C_19  and  O_20
REMARK   20  A    between atoms: O_20  and  C_21
REMARK   21  A    between atoms: C_21  and  C_22
REMARK   22  A    between atoms: C_22  and  O_23
REMARK   23  A    between atoms: O_23  and  C_24
REMARK   24  A    between atoms: C_24  and  C_25
REMARK   25  A    between atoms: C_25  and  O_26
REMARK   26  A    between atoms: O_26  and  C_27
REMARK   27  A    between atoms: C_27  and  C_28
REMARK   28  A    between atoms: C_28  and  O_29
REMARK   29  A    between atoms: O_29  and  C_30
REMARK   30  A    between atoms: C_30  and  C_31
REMARK   31  A    between atoms: C_31  and  O_32
REMARK                            x       y       z     vdW  Elec       q    Type
REMARK                         _______ _______ _______ _____ _____    ______ ____
ROOT
ATOM      1  O   UNL     1       2.003   5.986  19.755  0.00  0.00    +0.000 OA
ENDROOT
BRANCH   1   2
ATOM      2  C   UNL     1       1.374   5.274  20.810  0.00  0.00    +0.000 C 
BRANCH   2   3
ATOM      3  C   UNL     1       2.198   4.043  21.152  0.00  0.00    +0.000 C 
BRANCH   3   4
ATOM      4  O   UNL     1       1.393   2.882  21.012  0.00  0.00    +0.000 OA
BRANCH   4   5
ATOM      5  C   UNL     1       1.783   2.172  19.846  0.00  0.00    +0.000 C 
BRANCH   5   6
ATOM      6  C   UNL     1       0.784   2.437  18.732  0.00  0.00    +0.000 C 
BRANCH   6   7
ATOM      7  O   UNL     1       1.382   3.266  17.746  0.00  0.00    +0.000 OA
BRANCH   7   8
ATOM      8  C   UNL     1       2.795   3.186  17.856  0.00  0.00    +0.000 C 
BRANCH   8   9
ATOM      9  C   UNL     1       3.427   3.517  16.513  0.00  0.00    +0.000 C 
BRANCH   9  10
ATOM     10  O   UNL     1       4.694   4.123  16.723  0.00  0.00    +0.000 OA
BRANCH  10  11
ATOM     11  C   UNL     1       4.533   5.300  17.501  0.00  0.00    +0.000 C 
BRANCH  11  12
ATOM     12  C   UNL     1       5.425   5.221  18.729  0.00  0.00    +0.000 C 
BRANCH  12  13
ATOM     13  O   UNL     1       6.479   4.300  18.489  0.00  0.00    +0.000 OA
BRANCH  13  14
ATOM     14  C   UNL     1       7.674   5.012  18.201  0.00  0.00    +0.000 C 
BRANCH  14  15
ATOM     15  C   UNL     1       7.936   6.028  19.301  0.00  0.00    +0.000 C 
BRANCH  15  16
ATOM     16  O   UNL     1       8.199   5.350  20.519  0.00  0.00    +0.000 OA
ATOM     17  H   UNL     1       9.035   5.670  20.895  0.00  0.00    +0.000 HD
ENDBRANCH  15  16
ENDBRANCH  14  15
ENDBRANCH  13  14
ENDBRANCH  12  13
ENDBRANCH  11  12
ENDBRANCH  10  11
ENDBRANCH   9  10
ENDBRANCH   8   9
ENDBRANCH   7   8
ENDBRANCH   6   7
ENDBRANCH   5   6
ENDBRANCH   4   5
ENDBRANCH   3   4
ENDBRANCH   2   3
ENDBRANCH   1   2
BRANCH   1  18
ATOM     18  C   UNL     1       2.242   7.326  20.163  0.00  0.00    +0.000 C 
BRANCH  18  19
ATOM     19  C   UNL     1       1.031   7.849  20.919  0.00  0.00    +0.000 C 
BRANCH  19  20
ATOM     20  O   UNL     1       1.406   8.983  21.685  0.00  0.00    +0.000 OA
BRANCH  20  21
ATOM     21  C   UNL     1       0.276   9.468  22.397  0.00  0.00    +0.000 C 
BRANCH  21  22
ATOM     22  C   UNL     1      -0.068  10.866  21.909  0.00  0.00    +0.000 C 
BRANCH  22  23
ATOM     23  O   UNL     1      -0.614  11.621  22.981  0.00  0.00    +0.000 OA
BRANCH  23  24
ATOM     24  C   UNL     1      -1.551  12.557  22.471  0.00  0.00    +0.000 C 
BRANCH  24  25
ATOM     25  C   UNL     1      -1.483  12.567  20.953  0.00  0.00    +0.000 C 
BRANCH  25  26
ATOM     26  O   UNL     1      -2.747  12.199  20.421  0.00  0.00    +0.000 OA
BRANCH  26  27
ATOM     27  C   UNL     1      -3.764  12.978  21.034  0.00  0.00    +0.000 C 
BRANCH  27  28
ATOM     28  C   UNL     1      -5.094  12.702  20.353  0.00  0.00    +0.000 C 
BRANCH  28  29
ATOM     29  O   UNL     1      -4.907  11.747  19.318  0.00  0.00    +0.000 OA
BRANCH  29  30
ATOM     30  C   UNL     1      -5.473  12.241  18.113  0.00  0.00    +0.000 C 
BRANCH  30  31
ATOM     31  C   UNL     1      -4.785  11.587  16.926  0.00  0.00    +0.000 C 
BRANCH  31  33
ATOM     32  C   UNL     1      -2.741  10.917  16.056  0.00  0.00    +0.000 C 
ATOM     33  O   UNL     1      -3.380  11.583  17.136  0.00  0.00    +0.000 OA
ENDBRANCH  31  33
ENDBRANCH  30  31
ENDBRANCH  29  30
ENDBRANCH  28  29
ENDBRANCH  27  28
ENDBRANCH  26  27
ENDBRANCH  25  26
ENDBRANCH  24  25
ENDBRANCH  23  24
ENDBRANCH  22  23
ENDBRANCH  21  22
ENDBRANCH  20  21
ENDBRANCH  19  20
ENDBRANCH  18  19
ENDBRANCH   1  18
TORSDOF 30
ENDMDL
MODEL 5
REMARK VINA RESULT:      -4.3      2.724     11.479
REMARK  Name = 
REMARK  31 active torsions:
REMARK  status: ('A' for Active; 'I' for Inactive)
REMARK    1  A    between atoms: C_1  and  O_2
REMARK    2  A    between atoms: O_2  and  C_3
REMARK    3  A    between atoms: C_3  and  C_4
REMARK    4  A    between atoms: C_4  and  O_5
REMARK    5  A    between atoms: O_5  and  C_6
REMARK    6  A    between atoms: C_6  and  C_7
REMARK    7  A    between atoms: C_7  and  O_8
REMARK    8  A    between atoms: O_8  and  C_9
REMARK    9  A    between atoms: C_9  and  C_10
REMARK   10  A    between atoms: C_10  and  O_11
REMARK   11  A    between atoms: O_11  and  C_12
REMARK   12  A    between atoms: C_12  and  C_13
REMARK   13  A    between atoms: C_13  and  O_14
REMARK   14  A    between atoms: O_14  and  C_15
REMARK   15  A    between atoms: C_15  and  C_16
REMARK   16  A    between atoms: C_16  and  O_17
REMARK   17  A    between atoms: O_17  and  C_18
REMARK   18  A    between atoms: C_18  and  C_19
REMARK   19  A    between atoms: C_19  and  O_20
REMARK   20  A    between atoms: O_20  and  C_21
REMARK   21  A    between atoms: C_21  and  C_22
REMARK   22  A    between atoms: C_22  and  O_23
REMARK   23  A    between atoms: O_23  and  C_24
REMARK   24  A    between atoms: C_24  and  C_25
REMARK   25  A    between atoms: C_25  and  O_26
REMARK   26  A    between atoms: O_26  and  C_27
REMARK   27  A    between atoms: C_27  and  C_28
REMARK   28  A    between atoms: C_28  and  O_29
REMARK   29  A    between atoms: O_29  and  C_30
REMARK   30  A    between atoms: C_30  and  C_31
REMARK   31  A    between atoms: C_31  and  O_32
REMARK                            x       y       z     vdW  Elec       q    Type
REMARK                         _______ _______ _______ _____ _____    ______ ____
ROOT
ATOM      1  O   UNL     1      -1.218  10.522  17.925  0.00  0.00    +0.000 OA
ENDROOT
BRANCH   1   2
ATOM      2  C   UNL     1       0.108  10.415  18.421  0.00  0.00    +0.000 C 
BRANCH   2   3
ATOM      3  C   UNL     1       0.806   9.243  17.751  0.00  0.00    +0.000 C 
BRANCH   3   4
ATOM      4  O   UNL     1       2.120   9.112  18.274  0.00  0.00    +0.000 OA
BRANCH   4   5
ATOM      5  C   UNL     1       2.207   7.924  19.046  0.00  0.00    +0.000 C 
BRANCH   5   6
ATOM      6  C   UNL     1       2.701   6.784  18.170  0.00  0.00    +0.000 C 
BRANCH   6   7
ATOM      7  O   UNL     1       4.008   7.079  17.702  0.00  0.00    +0.000 OA
BRANCH   7   8
ATOM      8  C   UNL     1       4.676   5.871  17.371  0.00  0.00    +0.000 C 
BRANCH   8   9
ATOM      9  C   UNL     1       5.682   5.532  18.460  0.00  0.00    +0.000 C 
BRANCH   9  10
ATOM     10  O   UNL     1       5.596   4.149  18.770  0.00  0.00    +0.000 OA
BRANCH  10  11
ATOM     11  C   UNL     1       4.329   3.871  19.346  0.00  0.00    +0.000 C 
BRANCH  11  12
ATOM     12  C   UNL     1       3.810   2.545  18.813  0.00  0.00    +0.000 C 
BRANCH  12  13
ATOM     13  O   UNL     1       2.791   2.056  19.673  0.00  0.00    +0.000 OA
BRANCH  13  14
ATOM     14  C   UNL     1       2.915   2.666  20.949  0.00  0.00    +0.000 C 
BRANCH  14  15
ATOM     15  C   UNL     1       1.546   2.755  21.605  0.00  0.00    +0.000 C 
BRANCH  15  16
ATOM     16  O   UNL     1       0.568   3.044  20.619  0.00  0.00    +0.000 OA
ATOM     17  H   UNL     1       0.450   2.272  20.042  0.00  0.00    +0.000 HD
ENDBRANCH  15  16
ENDBRANCH  14  15
ENDBRANCH  13  14
ENDBRANCH  12  13
ENDBRANCH  11  12
ENDBRANCH  10  11
ENDBRANCH   9  10
ENDBRANCH   8   9
ENDBRANCH   7   8
ENDBRANCH   6   7
ENDBRANCH   5   6
ENDBRANCH   4   5
ENDBRANCH   3   4
ENDBRANCH   2   3
ENDBRANCH   1   2
BRANCH   1  18
ATOM     18  C   UNL     1      -1.672  11.860  18.072  0.00  0.00    +0.000 C 
BRANCH  18  19
ATOM     19  C   UNL     1      -2.915  11.881  18.946  0.00  0.00    +0.000 C 
BRANCH  19  20
ATOM     20  O   UNL     1      -4.072  11.844  18.125  0.00  0.00    +0.000 OA
BRANCH  20  21
ATOM     21  C   UNL     1      -5.209  12.212  18.892  0.00  0.00    +0.000 C 
BRANCH  21  22
ATOM     22  C   UNL     1      -4.816  12.331  20.356  0.00  0.00    +0.000 C 
BRANCH  22  23
ATOM     23  O   UNL     1      -5.834  11.763  21.167  0.00  0.00    +0.000 OA
BRANCH  23  24
ATOM     24  C   UNL     1      -6.570  12.801  21.798  0.00  0.00    +0.000 C 
BRANCH  24  25
ATOM     25  C   UNL     1      -5.745  13.390  22.930  0.00  0.00    +0.000 C 
BRANCH  25  26
ATOM     26  O   UNL     1      -5.310  12.348  23.791  0.00  0.00    +0.000 OA
BRANCH  26  27
ATOM     27  C   UNL     1      -3.976  12.602  24.206  0.00  0.00    +0.000 C 
BRANCH  27  28
ATOM     28  C   UNL     1      -3.405  13.757  23.398  0.00  0.00    +0.000 C 
BRANCH  28  29
ATOM     29  O   UNL     1      -2.349  13.283  22.576  0.00  0.00    +0.000 OA
BRANCH  29  30
ATOM     30  C   UNL     1      -1.831  12.078  23.120  0.00  0.00    +0.000 C 
BRANCH  30  31
ATOM     31  C   UNL     1      -0.977  11.377  22.076  0.00  0.00    +0.000 C 
BRANCH  31  33
ATOM     32  C   UNL     1      -0.173   9.566  23.283  0.00  0.00    +0.000 C 
ATOM     33  O   UNL     1       0.169  10.815  22.701  0.00  0.00    +0.000 OA
ENDBRANCH  31  33
ENDBRANCH  30  31
ENDBRANCH  29  30
ENDBRANCH  28  29
ENDBRANCH  27  28
ENDBRANCH  26  27
ENDBRANCH  25  26
ENDBRANCH  24  25
ENDBRANCH  23  24
ENDBRANCH  22  23
ENDBRANCH  21  22
ENDBRANCH  20  21
ENDBRANCH  19  20
ENDBRANCH  18  19
ENDBRANCH   1  18
TORSDOF 30
ENDMDL
MODEL 6
REMARK VINA RESULT:      -4.2      2.868     10.909
REMARK  Name = 
REMARK  31 active torsions:
REMARK  status: ('A' for Active; 'I' for Inactive)
REMARK    1  A    between atoms: C_1  and  O_2
REMARK    2  A    between atoms: O_2  and  C_3
REMARK    3  A    between atoms: C_3  and  C_4
REMARK    4  A    between atoms: C_4  and  O_5
REMARK    5  A    between atoms: O_5  and  C_6
REMARK    6  A    between atoms: C_6  and  C_7
REMARK    7  A    between atoms: C_7  and  O_8
REMARK    8  A    between atoms: O_8  and  C_9
REMARK    9  A    between atoms: C_9  and  C_10
REMARK   10  A    between atoms: C_10  and  O_11
REMARK   11  A    between atoms: O_11  and  C_12
REMARK   12  A    between atoms: C_12  and  C_13
REMARK   13  A    between atoms: C_13  and  O_14
REMARK   14  A    between atoms: O_14  and  C_15
REMARK   15  A    between atoms: C_15  and  C_16
REMARK   16  A    between atoms: C_16  and  O_17
REMARK   17  A    between atoms: O_17  and  C_18
REMARK   18  A    between atoms: C_18  and  C_19
REMARK   19  A    between atoms: C_19  and  O_20
REMARK   20  A    between atoms: O_20  and  C_21
REMARK   21  A    between atoms: C_21  and  C_22
REMARK   22  A    between atoms: C_22  and  O_23
REMARK   23  A    between atoms: O_23  and  C_24
REMARK   24  A    between atoms: C_24  and  C_25
REMARK   25  A    between atoms: C_25  and  O_26
REMARK   26  A    between atoms: O_26  and  C_27
REMARK   27  A    between atoms: C_27  and  C_28
REMARK   28  A    between atoms: C_28  and  O_29
REMARK   29  A    between atoms: O_29  and  C_30
REMARK   30  A    between atoms: C_30  and  C_31
REMARK   31  A    between atoms: C_31  and  O_32
REMARK                            x       y       z     vdW  Elec       q    Type
REMARK                         _______ _______ _______ _____ _____    ______ ____
ROOT
ATOM      1  O   UNL     1       2.939   7.951  17.491  0.00  0.00    +0.000 OA
ENDROOT
BRANCH   1   2
ATOM      2  C   UNL     1       3.115   6.649  18.030  0.00  0.00    +0.000 C 
BRANCH   2   3
ATOM      3  C   UNL     1       2.560   6.609  19.445  0.00  0.00    +0.000 C 
BRANCH   3   4
ATOM      4  O   UNL     1       2.188   5.278  19.771  0.00  0.00    +0.000 OA
BRANCH   4   5
ATOM      5  C   UNL     1       1.857   4.574  18.582  0.00  0.00    +0.000 C 
BRANCH   5   6
ATOM      6  C   UNL     1       2.421   3.164  18.654  0.00  0.00    +0.000 C 
BRANCH   6   7
ATOM      7  O   UNL     1       2.835   2.887  19.983  0.00  0.00    +0.000 OA
BRANCH   7   8
ATOM      8  C   UNL     1       4.226   2.603  19.995  0.00  0.00    +0.000 C 
BRANCH   8   9
ATOM      9  C   UNL     1       4.915   3.393  18.894  0.00  0.00    +0.000 C 
BRANCH   9  10
ATOM     10  O   UNL     1       5.661   4.456  19.470  0.00  0.00    +0.000 OA
BRANCH  10  11
ATOM     11  C   UNL     1       6.524   5.013  18.489  0.00  0.00    +0.000 C 
BRANCH  11  12
ATOM     12  C   UNL     1       6.136   4.487  17.116  0.00  0.00    +0.000 C 
BRANCH  12  13
ATOM     13  O   UNL     1       5.849   5.580  16.256  0.00  0.00    +0.000 OA
BRANCH  13  14
ATOM     14  C   UNL     1       5.540   5.092  14.958  0.00  0.00    +0.000 C 
BRANCH  14  15
ATOM     15  C   UNL     1       6.718   4.295  14.423  0.00  0.00    +0.000 C 
BRANCH  15  16
ATOM     16  O   UNL     1       6.263   3.387  13.431  0.00  0.00    +0.000 OA
ATOM     17  H   UNL     1       6.430   2.476  13.724  0.00  0.00    +0.000 HD
ENDBRANCH  15  16
ENDBRANCH  14  15
ENDBRANCH  13  14
ENDBRANCH  12  13
ENDBRANCH  11  12
ENDBRANCH  10  11
ENDBRANCH   9  10
ENDBRANCH   8   9
ENDBRANCH   7   8
ENDBRANCH   6   7
ENDBRANCH   5   6
ENDBRANCH   4   5
ENDBRANCH   3   4
ENDBRANCH   2   3
ENDBRANCH   1   2
BRANCH   1  18
ATOM     18  C   UNL     1       2.455   8.822  18.504  0.00  0.00    +0.000 C 
BRANCH  18  19
ATOM     19  C   UNL     1       1.112   9.394  18.081  0.00  0.00    +0.000 C 
BRANCH  19  20
ATOM     20  O   UNL     1       0.308   9.615  19.230  0.00  0.00    +0.000 OA
BRANCH  20  21
ATOM     21  C   UNL     1       0.802  10.738  19.944  0.00  0.00    +0.000 C 
BRANCH  21  22
ATOM     22  C   UNL     1      -0.303  11.309  20.818  0.00  0.00    +0.000 C 
BRANCH  22  23
ATOM     23  O   UNL     1      -1.485  11.464  20.047  0.00  0.00    +0.000 OA
BRANCH  23  24
ATOM     24  C   UNL     1      -1.287  12.483  19.078  0.00  0.00    +0.000 C 
BRANCH  24  25
ATOM     25  C   UNL     1      -1.728  11.978  17.714  0.00  0.00    +0.000 C 
BRANCH  25  26
ATOM     26  O   UNL     1      -2.587  10.860  17.878  0.00  0.00    +0.000 OA
BRANCH  26  27
ATOM     27  C   UNL     1      -3.843  11.136  17.276  0.00  0.00    +0.000 C 
BRANCH  27  28
ATOM     28  C   UNL     1      -4.860  11.470  18.355  0.00  0.00    +0.000 C 
BRANCH  28  29
ATOM     29  O   UNL     1      -6.158  11.099  17.913  0.00  0.00    +0.000 OA
BRANCH  29  30
ATOM     30  C   UNL     1      -6.817  10.372  18.939  0.00  0.00    +0.000 C 
BRANCH  30  31
ATOM     31  C   UNL     1      -7.431  11.344  19.934  0.00  0.00    +0.000 C 
BRANCH  31  33
ATOM     32  C   UNL     1      -6.798  12.476  21.857  0.00  0.00    +0.000 C 
ATOM     33  O   UNL     1      -6.766  11.226  21.184  0.00  0.00    +0.000 OA
ENDBRANCH  31  33
ENDBRANCH  30  31
ENDBRANCH  29  30
ENDBRANCH  28  29
ENDBRANCH  27  28
ENDBRANCH  26  27
ENDBRANCH  25  26
ENDBRANCH  24  25
ENDBRANCH  23  24
ENDBRANCH  22  23
ENDBRANCH  21  22
ENDBRANCH  20  21
ENDBRANCH  19  20
ENDBRANCH  18  19
ENDBRANCH   1  18
TORSDOF 30
ENDMDL
MODEL 7
REMARK VINA RESULT:      -4.2      2.897      4.537
REMARK  Name = 
REMARK  31 active torsions:
REMARK  status: ('A' for Active; 'I' for Inactive)
REMARK    1  A    between atoms: C_1  and  O_2
REMARK    2  A    between atoms: O_2  and  C_3
REMARK    3  A    between atoms: C_3  and  C_4
REMARK    4  A    between atoms: C_4  and  O_5
REMARK    5  A    between atoms: O_5  and  C_6
REMARK    6  A    between atoms: C_6  and  C_7
REMARK    7  A    between atoms: C_7  and  O_8
REMARK    8  A    between atoms: O_8  and  C_9
REMARK    9  A    between atoms: C_9  and  C_10
REMARK   10  A    between atoms: C_10  and  O_11
REMARK   11  A    between atoms: O_11  and  C_12
REMARK   12  A    between atoms: C_12  and  C_13
REMARK   13  A    between atoms: C_13  and  O_14
REMARK   14  A    between atoms: O_14  and  C_15
REMARK   15  A    between atoms: C_15  and  C_16
REMARK   16  A    between atoms: C_16  and  O_17
REMARK   17  A    between atoms: O_17  and  C_18
REMARK   18  A    between atoms: C_18  and  C_19
REMARK   19  A    between atoms: C_19  and  O_20
REMARK   20  A    between atoms: O_20  and  C_21
REMARK   21  A    between atoms: C_21  and  C_22
REMARK   22  A    between atoms: C_22  and  O_23
REMARK   23  A    between atoms: O_23  and  C_24
REMARK   24  A    between atoms: C_24  and  C_25
REMARK   25  A    between atoms: C_25  and  O_26
REMARK   26  A    between atoms: O_26  and  C_27
REMARK   27  A    between atoms: C_27  and  C_28
REMARK   28  A    between atoms: C_28  and  O_29
REMARK   29  A    between atoms: O_29  and  C_30
REMARK   30  A    between atoms: C_30  and  C_31
REMARK   31  A    between atoms: C_31  and  O_32
REMARK                            x       y       z     vdW  Elec       q    Type
REMARK                         _______ _______ _______ _____ _____    ______ ____
ROOT
ATOM      1  O   UNL     1       1.487   7.006  17.910  0.00  0.00    +0.000 OA
ENDROOT
BRANCH   1   2
ATOM      2  C   UNL     1       2.230   8.168  18.250  0.00  0.00    +0.000 C 
BRANCH   2   3
ATOM      3  C   UNL     1       1.524   8.907  19.376  0.00  0.00    +0.000 C 
BRANCH   3   4
ATOM      4  O   UNL     1       1.160  10.206  18.933  0.00  0.00    +0.000 OA
BRANCH   4   5
ATOM      5  C   UNL     1      -0.096  10.149  18.275  0.00  0.00    +0.000 C 
BRANCH   5   6
ATOM      6  C   UNL     1      -1.185  10.638  19.216  0.00  0.00    +0.000 C 
BRANCH   6   7
ATOM      7  O   UNL     1      -1.910  11.689  18.596  0.00  0.00    +0.000 OA
BRANCH   7   8
ATOM      8  C   UNL     1      -2.067  11.404  17.214  0.00  0.00    +0.000 C 
BRANCH   8   9
ATOM      9  C   UNL     1      -3.478  10.897  16.959  0.00  0.00    +0.000 C 
BRANCH   9  10
ATOM     10  O   UNL     1      -4.368  11.478  17.900  0.00  0.00    +0.000 OA
BRANCH  10  11
ATOM     11  C   UNL     1      -5.481  12.035  17.217  0.00  0.00    +0.000 C 
BRANCH  11  12
ATOM     12  C   UNL     1      -6.732  11.863  18.063  0.00  0.00    +0.000 C 
BRANCH  12  13
ATOM     13  O   UNL     1      -6.368  11.779  19.433  0.00  0.00    +0.000 OA
BRANCH  13  14
ATOM     14  C   UNL     1      -7.501  11.403  20.202  0.00  0.00    +0.000 C 
BRANCH  14  15
ATOM     15  C   UNL     1      -7.408  12.030  21.584  0.00  0.00    +0.000 C 
BRANCH  15  16
ATOM     16  O   UNL     1      -6.064  11.983  22.034  0.00  0.00    +0.000 OA
ATOM     17  H   UNL     1      -5.564  11.344  21.500  0.00  0.00    +0.000 HD
ENDBRANCH  15  16
ENDBRANCH  14  15
ENDBRANCH  13  14
ENDBRANCH  12  13
ENDBRANCH  11  12
ENDBRANCH  10  11
ENDBRANCH   9  10
ENDBRANCH   8   9
ENDBRANCH   7   8
ENDBRANCH   6   7
ENDBRANCH   5   6
ENDBRANCH   4   5
ENDBRANCH   3   4
ENDBRANCH   2   3
ENDBRANCH   1   2
BRANCH   1  18
ATOM     18  C   UNL     1       2.244   5.848  18.234  0.00  0.00    +0.000 C 
BRANCH  18  19
ATOM     19  C   UNL     1       1.655   5.186  19.468  0.00  0.00    +0.000 C 
BRANCH  19  20
ATOM     20  O   UNL     1       1.236   3.869  19.143  0.00  0.00    +0.000 OA
BRANCH  20  21
ATOM     21  C   UNL     1       1.974   3.400  18.024  0.00  0.00    +0.000 C 
BRANCH  21  22
ATOM     22  C   UNL     1       3.023   2.403  18.490  0.00  0.00    +0.000 C 
BRANCH  22  23
ATOM     23  O   UNL     1       4.319   2.939  18.267  0.00  0.00    +0.000 OA
BRANCH  23  24
ATOM     24  C   UNL     1       4.831   3.462  19.483  0.00  0.00    +0.000 C 
BRANCH  24  25
ATOM     25  C   UNL     1       5.235   4.913  19.282  0.00  0.00    +0.000 C 
BRANCH  25  26
ATOM     26  O   UNL     1       6.594   5.082  19.655  0.00  0.00    +0.000 OA
BRANCH  26  27
ATOM     27  C   UNL     1       7.332   5.572  18.544  0.00  0.00    +0.000 C 
BRANCH  27  28
ATOM     28  C   UNL     1       7.946   4.404  17.789  0.00  0.00    +0.000 C 
BRANCH  28  29
ATOM     29  O   UNL     1       7.811   4.620  16.392  0.00  0.00    +0.000 OA
BRANCH  29  30
ATOM     30  C   UNL     1       6.595   4.044  15.940  0.00  0.00    +0.000 C 
BRANCH  30  31
ATOM     31  C   UNL     1       5.984   4.928  14.865  0.00  0.00    +0.000 C 
BRANCH  31  33
ATOM     32  C   UNL     1       4.920   6.636  16.020  0.00  0.00    +0.000 C 
ATOM     33  O   UNL     1       6.072   6.289  15.265  0.00  0.00    +0.000 OA
ENDBRANCH  31  33
ENDBRANCH  30  31
ENDBRANCH  29  30
ENDBRANCH  28  29
ENDBRANCH  27  28
ENDBRANCH  26  27
ENDBRANCH  25  26
ENDBRANCH  24  25
ENDBRANCH  23  24
ENDBRANCH  22  23
ENDBRANCH  21  22
ENDBRANCH  20  21
ENDBRANCH  19  20
ENDBRANCH  18  19
ENDBRANCH   1  18
TORSDOF 30
ENDMDL
MODEL 8
REMARK VINA RESULT:      -4.2      2.276     10.109
REMARK  Name = 
REMARK  31 active torsions:
REMARK  status: ('A' for Active; 'I' for Inactive)
REMARK    1  A    between atoms: C_1  and  O_2
REMARK    2  A    between atoms: O_2  and  C_3
REMARK    3  A    between atoms: C_3  and  C_4
REMARK    4  A    between atoms: C_4  and  O_5
REMARK    5  A    between atoms: O_5  and  C_6
REMARK    6  A    between atoms: C_6  and  C_7
REMARK    7  A    between atoms: C_7  and  O_8
REMARK    8  A    between atoms: O_8  and  C_9
REMARK    9  A    between atoms: C_9  and  C_10
REMARK   10  A    between atoms: C_10  and  O_11
REMARK   11  A    between atoms: O_11  and  C_12
REMARK   12  A    between atoms: C_12  and  C_13
REMARK   13  A    between atoms: C_13  and  O_14
REMARK   14  A    between atoms: O_14  and  C_15
REMARK   15  A    between atoms: C_15  and  C_16
REMARK   16  A    between atoms: C_16  and  O_17
REMARK   17  A    between atoms: O_17  and  C_18
REMARK   18  A    between atoms: C_18  and  C_19
REMARK   19  A    between atoms: C_19  and  O_20
REMARK   20  A    between atoms: O_20  and  C_21
REMARK   21  A    between atoms: C_21  and  C_22
REMARK   22  A    between atoms: C_22  and  O_23
REMARK   23  A    between atoms: O_23  and  C_24
REMARK   24  A    between atoms: C_24  and  C_25
REMARK   25  A    between atoms: C_25  and  O_26
REMARK   26  A    between atoms: O_26  and  C_27
REMARK   27  A    between atoms: C_27  and  C_28
REMARK   28  A    between atoms: C_28  and  O_29
REMARK   29  A    between atoms: O_29  and  C_30
REMARK   30  A    between atoms: C_30  and  C_31
REMARK   31  A    between atoms: C_31  and  O_32
REMARK                            x       y       z     vdW  Elec       q    Type
REMARK                         _______ _______ _______ _____ _____    ______ ____
ROOT
ATOM      1  O   UNL     1       1.645   4.838  19.891  0.00  0.00    +0.000 OA
ENDROOT
BRANCH   1   2
ATOM      2  C   UNL     1       1.880   4.235  21.155  0.00  0.00    +0.000 C 
BRANCH   2   3
ATOM      3  C   UNL     1       2.093   2.741  20.972  0.00  0.00    +0.000 C 
BRANCH   3   4
ATOM      4  O   UNL     1       3.195   2.524  20.103  0.00  0.00    +0.000 OA
BRANCH   4   5
ATOM      5  C   UNL     1       2.754   1.846  18.936  0.00  0.00    +0.000 C 
BRANCH   5   6
ATOM      6  C   UNL     1       3.502   2.379  17.725  0.00  0.00    +0.000 C 
BRANCH   6   7
ATOM      7  O   UNL     1       2.899   3.588  17.291  0.00  0.00    +0.000 OA
BRANCH   7   8
ATOM      8  C   UNL     1       3.905   4.565  17.070  0.00  0.00    +0.000 C 
BRANCH   8   9
ATOM      9  C   UNL     1       4.868   4.070  16.003  0.00  0.00    +0.000 C 
BRANCH   9  10
ATOM     10  O   UNL     1       5.417   5.180  15.309  0.00  0.00    +0.000 OA
BRANCH  10  11
ATOM     11  C   UNL     1       6.814   4.986  15.137  0.00  0.00    +0.000 C 
BRANCH  11  12
ATOM     12  C   UNL     1       7.525   5.233  16.457  0.00  0.00    +0.000 C 
BRANCH  12  13
ATOM     13  O   UNL     1       7.277   6.564  16.886  0.00  0.00    +0.000 OA
BRANCH  13  14
ATOM     14  C   UNL     1       7.689   6.711  18.237  0.00  0.00    +0.000 C 
BRANCH  14  15
ATOM     15  C   UNL     1       7.079   5.601  19.077  0.00  0.00    +0.000 C 
BRANCH  15  16
ATOM     16  O   UNL     1       7.728   5.550  20.338  0.00  0.00    +0.000 OA
ATOM     17  H   UNL     1       7.132   5.892  21.024  0.00  0.00    +0.000 HD
ENDBRANCH  15  16
ENDBRANCH  14  15
ENDBRANCH  13  14
ENDBRANCH  12  13
ENDBRANCH  11  12
ENDBRANCH  10  11
ENDBRANCH   9  10
ENDBRANCH   8   9
ENDBRANCH   7   8
ENDBRANCH   6   7
ENDBRANCH   5   6
ENDBRANCH   4   5
ENDBRANCH   3   4
ENDBRANCH   2   3
ENDBRANCH   1   2
BRANCH   1  18
ATOM     18  C   UNL     1       2.108   6.181  19.914  0.00  0.00    +0.000 C 
BRANCH  18  19
ATOM     19  C   UNL     1       1.385   6.948  21.008  0.00  0.00    +0.000 C 
BRANCH  19  20
ATOM     20  O   UNL     1       1.818   8.300  21.004  0.00  0.00    +0.000 OA
BRANCH  20  21
ATOM     21  C   UNL     1       1.312   8.955  19.849  0.00  0.00    +0.000 C 
BRANCH  21  22
ATOM     22  C   UNL     1       0.733  10.304  20.245  0.00  0.00    +0.000 C 
BRANCH  22  23
ATOM     23  O   UNL     1       0.794  10.450  21.656  0.00  0.00    +0.000 OA
BRANCH  23  24
ATOM     24  C   UNL     1      -0.520  10.407  22.193  0.00  0.00    +0.000 C 
BRANCH  24  25
ATOM     25  C   UNL     1      -0.864  11.758  22.798  0.00  0.00    +0.000 C 
BRANCH  25  26
ATOM     26  O   UNL     1      -0.153  12.778  22.114  0.00  0.00    +0.000 OA
BRANCH  26  27
ATOM     27  C   UNL     1      -0.776  14.032  22.354  0.00  0.00    +0.000 C 
BRANCH  27  28
ATOM     28  C   UNL     1       0.278  15.127  22.370  0.00  0.00    +0.000 C 
BRANCH  28  29
ATOM     29  O   UNL     1       1.571  14.540  22.381  0.00  0.00    +0.000 OA
BRANCH  29  30
ATOM     30  C   UNL     1       2.346  15.083  21.323  0.00  0.00    +0.000 C 
BRANCH  30  31
ATOM     31  C   UNL     1       3.402  14.076  20.899  0.00  0.00    +0.000 C 
BRANCH  31  33
ATOM     32  C   UNL     1       5.119  14.549  22.386  0.00  0.00    +0.000 C 
ATOM     33  O   UNL     1       4.104  13.615  22.045  0.00  0.00    +0.000 OA
ENDBRANCH  31  33
ENDBRANCH  30  31
ENDBRANCH  29  30
ENDBRANCH  28  29
ENDBRANCH  27  28
ENDBRANCH  26  27
ENDBRANCH  25  26
ENDBRANCH  24  25
ENDBRANCH  23  24
ENDBRANCH  22  23
ENDBRANCH  21  22
ENDBRANCH  20  21
ENDBRANCH  19  20
ENDBRANCH  18  19
ENDBRANCH   1  18
TORSDOF 30
ENDMDL
MODEL 9
REMARK VINA RESULT:      -4.1      5.401     10.669
REMARK  Name = 
REMARK  31 active torsions:
REMARK  status: ('A' for Active; 'I' for Inactive)
REMARK    1  A    between atoms: C_1  and  O_2
REMARK    2  A    between atoms: O_2  and  C_3
REMARK    3  A    between atoms: C_3  and  C_4
REMARK    4  A    between atoms: C_4  and  O_5
REMARK    5  A    between atoms: O_5  and  C_6
REMARK    6  A    between atoms: C_6  and  C_7
REMARK    7  A    between atoms: C_7  and  O_8
REMARK    8  A    between atoms: O_8  and  C_9
REMARK    9  A    between atoms: C_9  and  C_10
REMARK   10  A    between atoms: C_10  and  O_11
REMARK   11  A    between atoms: O_11  and  C_12
REMARK   12  A    between atoms: C_12  and  C_13
REMARK   13  A    between atoms: C_13  and  O_14
REMARK   14  A    between atoms: O_14  and  C_15
REMARK   15  A    between atoms: C_15  and  C_16
REMARK   16  A    between atoms: C_16  and  O_17
REMARK   17  A    between atoms: O_17  and  C_18
REMARK   18  A    between atoms: C_18  and  C_19
REMARK   19  A    between atoms: C_19  and  O_20
REMARK   20  A    between atoms: O_20  and  C_21
REMARK   21  A    between atoms: C_21  and  C_22
REMARK   22  A    between atoms: C_22  and  O_23
REMARK   23  A    between atoms: O_23  and  C_24
REMARK   24  A    between atoms: C_24  and  C_25
REMARK   25  A    between atoms: C_25  and  O_26
REMARK   26  A    between atoms: O_26  and  C_27
REMARK   27  A    between atoms: C_27  and  C_28
REMARK   28  A    between atoms: C_28  and  O_29
REMARK   29  A    between atoms: O_29  and  C_30
REMARK   30  A    between atoms: C_30  and  C_31
REMARK   31  A    between atoms: C_31  and  O_32
REMARK                            x       y       z     vdW  Elec       q    Type
REMARK                         _______ _______ _______ _____ _____    ______ ____
ROOT
ATOM      1  O   UNL     1       8.644   8.392  18.722  0.00  0.00    +0.000 OA
ENDROOT
BRANCH   1   2
ATOM      2  C   UNL     1       7.933   8.606  17.512  0.00  0.00    +0.000 C 
BRANCH   2   3
ATOM      3  C   UNL     1       6.945   7.470  17.299  0.00  0.00    +0.000 C 
BRANCH   3   4
ATOM      4  O   UNL     1       7.566   6.436  16.550  0.00  0.00    +0.000 OA
BRANCH   4   5
ATOM      5  C   UNL     1       7.182   5.174  17.074  0.00  0.00    +0.000 C 
BRANCH   5   6
ATOM      6  C   UNL     1       7.643   5.061  18.518  0.00  0.00    +0.000 C 
BRANCH   6   7
ATOM      7  O   UNL     1       6.575   4.581  19.320  0.00  0.00    +0.000 OA
BRANCH   7   8
ATOM      8  C   UNL     1       5.346   5.091  18.825  0.00  0.00    +0.000 C 
BRANCH   8   9
ATOM      9  C   UNL     1       4.190   4.413  19.544  0.00  0.00    +0.000 C 
BRANCH   9  10
ATOM     10  O   UNL     1       4.244   3.013  19.312  0.00  0.00    +0.000 OA
BRANCH  10  11
ATOM     11  C   UNL     1       3.673   2.721  18.046  0.00  0.00    +0.000 C 
BRANCH  11  12
ATOM     12  C   UNL     1       2.228   2.287  18.230  0.00  0.00    +0.000 C 
BRANCH  12  13
ATOM     13  O   UNL     1       2.033   1.847  19.566  0.00  0.00    +0.000 OA
BRANCH  13  14
ATOM     14  C   UNL     1       1.061   2.668  20.198  0.00  0.00    +0.000 C 
BRANCH  14  15
ATOM     15  C   UNL     1       1.376   2.777  21.681  0.00  0.00    +0.000 C 
BRANCH  15  16
ATOM     16  O   UNL     1       2.719   2.382  21.910  0.00  0.00    +0.000 OA
ATOM     17  H   UNL     1       3.287   2.741  21.209  0.00  0.00    +0.000 HD
ENDBRANCH  15  16
ENDBRANCH  14  15
ENDBRANCH  13  14
ENDBRANCH  12  13
ENDBRANCH  11  12
ENDBRANCH  10  11
ENDBRANCH   9  10
ENDBRANCH   8   9
ENDBRANCH   7   8
ENDBRANCH   6   7
ENDBRANCH   5   6
ENDBRANCH   4   5
ENDBRANCH   3   4
ENDBRANCH   2   3
ENDBRANCH   1   2
BRANCH   1  18
ATOM     18  C   UNL     1       9.066   9.642  19.250  0.00  0.00    +0.000 C 
BRANCH  18  19
ATOM     19  C   UNL     1       9.226  10.643  18.118  0.00  0.00    +0.000 C 
BRANCH  19  20
ATOM     20  O   UNL     1      10.176  11.630  18.490  0.00  0.00    +0.000 OA
BRANCH  20  21
ATOM     21  C   UNL     1       9.543  12.901  18.538  0.00  0.00    +0.000 C 
BRANCH  21  22
ATOM     22  C   UNL     1      10.423  13.877  19.303  0.00  0.00    +0.000 C 
BRANCH  22  23
ATOM     23  O   UNL     1       9.678  15.046  19.610  0.00  0.00    +0.000 OA
BRANCH  23  24
ATOM     24  C   UNL     1       8.333  14.690  19.889  0.00  0.00    +0.000 C 
BRANCH  24  25
ATOM     25  C   UNL     1       7.395  15.626  19.144  0.00  0.00    +0.000 C 
BRANCH  25  26
ATOM     26  O   UNL     1       6.953  16.650  20.022  0.00  0.00    +0.000 OA
BRANCH  26  27
ATOM     27  C   UNL     1       5.898  17.376  19.407  0.00  0.00    +0.000 C 
BRANCH  27  28
ATOM     28  C   UNL     1       4.599  16.600  19.549  0.00  0.00    +0.000 C 
BRANCH  28  29
ATOM     29  O   UNL     1       3.518  17.401  19.095  0.00  0.00    +0.000 OA
BRANCH  29  30
ATOM     30  C   UNL     1       2.298  16.878  19.598  0.00  0.00    +0.000 C 
BRANCH  30  31
ATOM     31  C   UNL     1       1.179  17.877  19.354  0.00  0.00    +0.000 C 
BRANCH  31  33
ATOM     32  C   UNL     1       0.675  18.144  17.105  0.00  0.00    +0.000 C 
ATOM     33  O   UNL     1       1.463  18.630  18.183  0.00  0.00    +0.000 OA
ENDBRANCH  31  33
ENDBRANCH  30  31
ENDBRANCH  29  30
ENDBRANCH  28  29
ENDBRANCH  27  28
ENDBRANCH  26  27
ENDBRANCH  25  26
ENDBRANCH  24  25
ENDBRANCH  23  24
ENDBRANCH  22  23
ENDBRANCH  21  22
ENDBRANCH  20  21
ENDBRANCH  19  20
ENDBRANCH  18  19
ENDBRANCH   1  18
TORSDOF 30
ENDMDL
