MODEL 1
REMARK VINA RESULT:      -8.6      0.000      0.000
REMARK  Name = 
REMARK  10 active torsions:
REMARK  status: ('A' for Active; 'I' for Inactive)
REMARK    1  A    between atoms: C_1  and  C_2
REMARK    2  A    between atoms: C_2  and  N_3
REMARK    3  A    between atoms: N_3  and  C_4
REMARK    4  A    between atoms: N_3  and  C_6
REMARK    5  A    between atoms: C_4  and  C_5
REMARK    6  A    between atoms: C_9  and  N_10
REMARK    7  A    between atoms: C_11  and  C_13
REMARK    8  A    between atoms: C_13  and  C_14
REMARK    9  A    between atoms: C_14  and  N_15
REMARK   10  A    between atoms: C_29  and  C_30
REMARK                            x       y       z     vdW  Elec       q    Type
REMARK                         _______ _______ _______ _____ _____    ______ ____
ROOT
ATOM      1  N   UNL     1       8.987   9.094  19.196  0.00  0.00    +0.000 N 
ATOM      2  C   UNL     1       8.288   8.392  18.224  0.00  0.00    +0.000 C 
ATOM      3  O   UNL     1       7.810   8.863  17.195  0.00  0.00    +0.000 OA
ATOM      4  H   UNL     1       9.192   8.614  20.061  0.00  0.00    +0.000 HD
ENDROOT
BRANCH   1   8
ATOM      5  C   UNL     1      10.420  13.116  18.882  0.00  0.00    +0.000 A 
ATOM      6  C   UNL     1      10.367  12.259  17.783  0.00  0.00    +0.000 A 
ATOM      7  C   UNL     1       9.894  10.952  17.888  0.00  0.00    +0.000 A 
ATOM      8  C   UNL     1       9.417  10.442  19.096  0.00  0.00    +0.000 A 
ATOM      9  C   UNL     1       9.406  11.295  20.217  0.00  0.00    +0.000 A 
ATOM     10  C   UNL     1       8.902  10.881  21.573  0.00  0.00    +0.000 C 
ATOM     11  C   UNL     1       9.921  12.612  20.092  0.00  0.00    +0.000 A 
BRANCH   5  12
ATOM     12  N   UNL     1      10.962  14.409  18.796  0.00  0.00    +0.000 N 
BRANCH  12  14
ATOM     13  C   UNL     1      11.353  15.949  16.864  0.00  0.00    +0.000 C 
ATOM     14  C   UNL     1      11.780  14.691  17.604  0.00  0.00    +0.000 C 
ENDBRANCH  12  14
BRANCH  12  15
ATOM     15  C   UNL     1      10.163  15.502  19.382  0.00  0.00    +0.000 C 
ATOM     16  C   UNL     1      10.836  16.185  20.567  0.00  0.00    +0.000 C 
ENDBRANCH  12  15
ENDBRANCH   5  12
ENDBRANCH   1   8
BRANCH   2  17
ATOM     17  C   UNL     1       8.077   6.933  18.558  0.00  0.00    +0.000 C 
BRANCH  17  18
ATOM     18  C   UNL     1       7.276   6.254  17.436  0.00  0.00    +0.000 C 
BRANCH  18  19
ATOM     19  N   UNL     1       5.850   6.129  17.741  0.00  0.00    +0.000 N 
ATOM     20  C   UNL     1       4.939   7.056  17.240  0.00  0.00    +0.000 A 
ATOM     21  C   UNL     1       3.627   6.938  17.495  0.00  0.00    +0.000 A 
ATOM     22  N   UNL     1       3.161   5.901  18.292  0.00  0.00    +0.000 N 
ATOM     23  N   UNL     1       1.885   5.645  18.695  0.00  0.00    +0.000 NA
ATOM     24  C   UNL     1       2.003   4.588  19.505  0.00  0.00    +0.000 A 
ATOM     25  C   UNL     1       3.331   4.147  19.634  0.00  0.00    +0.000 A 
ATOM     26  C   UNL     1       4.044   4.974  18.805  0.00  0.00    +0.000 A 
ATOM     27  C   UNL     1       5.440   5.003  18.480  0.00  0.00    +0.000 A 
ATOM     28  O   UNL     1       6.216   4.122  18.832  0.00  0.00    +0.000 OA
ATOM     29  C   UNL     1       3.772   3.024  20.498  0.00  0.00    +0.000 C 
ATOM     30  C   UNL     1       2.667   2.648  21.495  0.00  0.00    +0.000 C 
ATOM     31  C   UNL     1       1.285   2.593  20.819  0.00  0.00    +0.000 C 
ATOM     32  C   UNL     1       0.866   3.961  20.237  0.00  0.00    +0.000 C 
ENDBRANCH  18  19
ENDBRANCH  17  18
ENDBRANCH   2  17
TORSDOF 7
ENDMDL
MODEL 2
REMARK VINA RESULT:      -8.4      5.921      8.698
REMARK  Name = 
REMARK  10 active torsions:
REMARK  status: ('A' for Active; 'I' for Inactive)
REMARK    1  A    between atoms: C_1  and  C_2
REMARK    2  A    between atoms: C_2  and  N_3
REMARK    3  A    between atoms: N_3  and  C_4
REMARK    4  A    between atoms: N_3  and  C_6
REMARK    5  A    between atoms: C_4  and  C_5
REMARK    6  A    between atoms: C_9  and  N_10
REMARK    7  A    between atoms: C_11  and  C_13
REMARK    8  A    between atoms: C_13  and  C_14
REMARK    9  A    between atoms: C_14  and  N_15
REMARK   10  A    between atoms: C_29  and  C_30
REMARK                            x       y       z     vdW  Elec       q    Type
REMARK                         _______ _______ _______ _____ _____    ______ ____
ROOT
ATOM      1  N   UNL     1       2.494   7.025  20.303  0.00  0.00    +0.000 N 
ATOM      2  C   UNL     1       2.153   5.680  20.352  0.00  0.00    +0.000 C 
ATOM      3  O   UNL     1       1.012   5.224  20.348  0.00  0.00    +0.000 OA
ATOM      4  H   UNL     1       3.462   7.266  20.465  0.00  0.00    +0.000 HD
ENDROOT
BRANCH   1   8
ATOM      5  C   UNL     1      -0.323  10.173  19.608  0.00  0.00    +0.000 A 
ATOM      6  C   UNL     1      -0.221   9.526  20.839  0.00  0.00    +0.000 A 
ATOM      7  C   UNL     1       0.702   8.506  21.064  0.00  0.00    +0.000 A 
ATOM      8  C   UNL     1       1.597   8.100  20.073  0.00  0.00    +0.000 A 
ATOM      9  C   UNL     1       1.559   8.764  18.832  0.00  0.00    +0.000 A 
ATOM     10  C   UNL     1       2.477   8.439  17.685  0.00  0.00    +0.000 C 
ATOM     11  C   UNL     1       0.590   9.779  18.618  0.00  0.00    +0.000 A 
BRANCH   5  12
ATOM     12  N   UNL     1      -1.299  11.151  19.356  0.00  0.00    +0.000 N 
BRANCH  12  14
ATOM     13  C   UNL     1      -2.191  12.717  21.091  0.00  0.00    +0.000 C 
ATOM     14  C   UNL     1      -1.120  12.439  20.048  0.00  0.00    +0.000 C 
ENDBRANCH  12  14
BRANCH  12  15
ATOM     15  C   UNL     1      -1.906  11.148  18.012  0.00  0.00    +0.000 C 
ATOM     16  C   UNL     1      -2.838   9.967  17.763  0.00  0.00    +0.000 C 
ENDBRANCH  12  15
ENDBRANCH   5  12
ENDBRANCH   1   8
BRANCH   2  17
ATOM     17  C   UNL     1       3.339   4.754  20.487  0.00  0.00    +0.000 C 
BRANCH  17  18
ATOM     18  C   UNL     1       3.485   3.909  19.211  0.00  0.00    +0.000 C 
BRANCH  18  19
ATOM     19  N   UNL     1       4.544   4.388  18.321  0.00  0.00    +0.000 N 
ATOM     20  C   UNL     1       5.487   5.304  18.780  0.00  0.00    +0.000 A 
ATOM     21  C   UNL     1       6.476   5.733  17.980  0.00  0.00    +0.000 A 
ATOM     22  N   UNL     1       6.554   5.287  16.667  0.00  0.00    +0.000 N 
ATOM     23  N   UNL     1       7.448   5.640  15.701  0.00  0.00    +0.000 NA
ATOM     24  C   UNL     1       7.027   4.988  14.612  0.00  0.00    +0.000 A 
ATOM     25  C   UNL     1       5.878   4.215  14.851  0.00  0.00    +0.000 A 
ATOM     26  C   UNL     1       5.629   4.384  16.188  0.00  0.00    +0.000 A 
ATOM     27  C   UNL     1       4.614   3.825  17.033  0.00  0.00    +0.000 A 
ATOM     28  O   UNL     1       3.859   2.936  16.655  0.00  0.00    +0.000 OA
ATOM     29  C   UNL     1       5.162   3.420  13.823  0.00  0.00    +0.000 C 
ATOM     30  C   UNL     1       5.613   3.833  12.414  0.00  0.00    +0.000 C 
ATOM     31  C   UNL     1       7.142   3.990  12.329  0.00  0.00    +0.000 C 
ATOM     32  C   UNL     1       7.667   5.096  13.270  0.00  0.00    +0.000 C 
ENDBRANCH  18  19
ENDBRANCH  17  18
ENDBRANCH   2  17
TORSDOF 7
ENDMDL
MODEL 3
REMARK VINA RESULT:      -8.3      6.018      8.325
REMARK  Name = 
REMARK  10 active torsions:
REMARK  status: ('A' for Active; 'I' for Inactive)
REMARK    1  A    between atoms: C_1  and  C_2
REMARK    2  A    between atoms: C_2  and  N_3
REMARK    3  A    between atoms: N_3  and  C_4
REMARK    4  A    between atoms: N_3  and  C_6
REMARK    5  A    between atoms: C_4  and  C_5
REMARK    6  A    between atoms: C_9  and  N_10
REMARK    7  A    between atoms: C_11  and  C_13
REMARK    8  A    between atoms: C_13  and  C_14
REMARK    9  A    between atoms: C_14  and  N_15
REMARK   10  A    between atoms: C_29  and  C_30
REMARK                            x       y       z     vdW  Elec       q    Type
REMARK                         _______ _______ _______ _____ _____    ______ ____
ROOT
ATOM      1  N   UNL     1       2.572   6.613  20.440  0.00  0.00    +0.000 N 
ATOM      2  C   UNL     1       2.443   5.352  19.875  0.00  0.00    +0.000 C 
ATOM      3  O   UNL     1       1.610   5.018  19.036  0.00  0.00    +0.000 OA
ATOM      4  H   UNL     1       3.200   6.709  21.226  0.00  0.00    +0.000 HD
ENDROOT
BRANCH   1   8
ATOM      5  C   UNL     1       0.354  10.054  19.190  0.00  0.00    +0.000 A 
ATOM      6  C   UNL     1       0.188   9.482  20.450  0.00  0.00    +0.000 A 
ATOM      7  C   UNL     1       0.917   8.365  20.856  0.00  0.00    +0.000 A 
ATOM      8  C   UNL     1       1.877   7.780  20.030  0.00  0.00    +0.000 A 
ATOM      9  C   UNL     1       2.110   8.361  18.769  0.00  0.00    +0.000 A 
ATOM     10  C   UNL     1       3.127   7.844  17.788  0.00  0.00    +0.000 C 
ATOM     11  C   UNL     1       1.333   9.479  18.366  0.00  0.00    +0.000 A 
BRANCH   5  12
ATOM     12  N   UNL     1      -0.429  11.134  18.750  0.00  0.00    +0.000 N 
BRANCH  12  14
ATOM     13  C   UNL     1      -2.055  10.033  17.200  0.00  0.00    +0.000 C 
ATOM     14  C   UNL     1      -1.845  10.838  18.473  0.00  0.00    +0.000 C 
ENDBRANCH  12  14
BRANCH  12  15
ATOM     15  C   UNL     1      -0.074  12.466  19.276  0.00  0.00    +0.000 C 
ATOM     16  C   UNL     1      -0.534  13.617  18.389  0.00  0.00    +0.000 C 
ENDBRANCH  12  15
ENDBRANCH   5  12
ENDBRANCH   1   8
BRANCH   2  17
ATOM     17  C   UNL     1       3.403   4.330  20.437  0.00  0.00    +0.000 C 
BRANCH  17  18
ATOM     18  C   UNL     1       3.833   3.356  19.327  0.00  0.00    +0.000 C 
BRANCH  18  19
ATOM     19  N   UNL     1       4.827   3.924  18.416  0.00  0.00    +0.000 N 
ATOM     20  C   UNL     1       5.791   4.810  18.891  0.00  0.00    +0.000 A 
ATOM     21  C   UNL     1       6.723   5.319  18.069  0.00  0.00    +0.000 A 
ATOM     22  N   UNL     1       6.717   4.991  16.719  0.00  0.00    +0.000 N 
ATOM     23  N   UNL     1       7.542   5.438  15.732  0.00  0.00    +0.000 NA
ATOM     24  C   UNL     1       7.055   4.878  14.619  0.00  0.00    +0.000 A 
ATOM     25  C   UNL     1       5.930   4.073  14.864  0.00  0.00    +0.000 A 
ATOM     26  C   UNL     1       5.768   4.121  16.224  0.00  0.00    +0.000 A 
ATOM     27  C   UNL     1       4.816   3.477  17.081  0.00  0.00    +0.000 A 
ATOM     28  O   UNL     1       4.044   2.615  16.676  0.00  0.00    +0.000 OA
ATOM     29  C   UNL     1       5.153   3.361  13.819  0.00  0.00    +0.000 C 
ATOM     30  C   UNL     1       5.506   3.902  12.425  0.00  0.00    +0.000 C 
ATOM     31  C   UNL     1       7.025   4.085  12.255  0.00  0.00    +0.000 C 
ATOM     32  C   UNL     1       7.604   5.111  13.253  0.00  0.00    +0.000 C 
ENDBRANCH  18  19
ENDBRANCH  17  18
ENDBRANCH   2  17
TORSDOF 7
ENDMDL
MODEL 4
REMARK VINA RESULT:      -8.0      5.782      8.411
REMARK  Name = 
REMARK  10 active torsions:
REMARK  status: ('A' for Active; 'I' for Inactive)
REMARK    1  A    between atoms: C_1  and  C_2
REMARK    2  A    between atoms: C_2  and  N_3
REMARK    3  A    between atoms: N_3  and  C_4
REMARK    4  A    between atoms: N_3  and  C_6
REMARK    5  A    between atoms: C_4  and  C_5
REMARK    6  A    between atoms: C_9  and  N_10
REMARK    7  A    between atoms: C_11  and  C_13
REMARK    8  A    between atoms: C_13  and  C_14
REMARK    9  A    between atoms: C_14  and  N_15
REMARK   10  A    between atoms: C_29  and  C_30
REMARK                            x       y       z     vdW  Elec       q    Type
REMARK                         _______ _______ _______ _____ _____    ______ ____
ROOT
ATOM      1  N   UNL     1       2.513   7.424  19.766  0.00  0.00    +0.000 N 
ATOM      2  C   UNL     1       2.204   6.121  20.130  0.00  0.00    +0.000 C 
ATOM      3  O   UNL     1       1.098   5.709  20.470  0.00  0.00    +0.000 OA
ATOM      4  H   UNL     1       3.490   7.658  19.656  0.00  0.00    +0.000 HD
ENDROOT
BRANCH   1   8
ATOM      5  C   UNL     1      -0.199  10.670  19.105  0.00  0.00    +0.000 A 
ATOM      6  C   UNL     1       0.356   9.941  18.055  0.00  0.00    +0.000 A 
ATOM      7  C   UNL     1       1.234   8.880  18.274  0.00  0.00    +0.000 A 
ATOM      8  C   UNL     1       1.578   8.472  19.563  0.00  0.00    +0.000 A 
ATOM      9  C   UNL     1       0.998   9.151  20.651  0.00  0.00    +0.000 A 
ATOM     10  C   UNL     1       1.268   8.803  22.090  0.00  0.00    +0.000 C 
ATOM     11  C   UNL     1       0.132  10.248  20.402  0.00  0.00    +0.000 A 
BRANCH   5  12
ATOM     12  N   UNL     1      -1.026  11.784  18.888  0.00  0.00    +0.000 N 
BRANCH  12  14
ATOM     13  C   UNL     1       0.686  13.609  18.894  0.00  0.00    +0.000 C 
ATOM     14  C   UNL     1      -0.426  12.900  18.137  0.00  0.00    +0.000 C 
ENDBRANCH  12  14
BRANCH  12  15
ATOM     15  C   UNL     1      -2.467  11.516  18.727  0.00  0.00    +0.000 C 
ATOM     16  C   UNL     1      -2.895  11.314  17.277  0.00  0.00    +0.000 C 
ENDBRANCH  12  15
ENDBRANCH   5  12
ENDBRANCH   1   8
BRANCH   2  17
ATOM     17  C   UNL     1       3.397   5.194  20.150  0.00  0.00    +0.000 C 
BRANCH  17  18
ATOM     18  C   UNL     1       3.426   4.358  18.860  0.00  0.00    +0.000 C 
BRANCH  18  19
ATOM     19  N   UNL     1       4.514   4.732  17.955  0.00  0.00    +0.000 N 
ATOM     20  C   UNL     1       5.493   5.632  18.368  0.00  0.00    +0.000 A 
ATOM     21  C   UNL     1       6.509   5.965  17.555  0.00  0.00    +0.000 A 
ATOM     22  N   UNL     1       6.578   5.435  16.273  0.00  0.00    +0.000 N 
ATOM     23  N   UNL     1       7.496   5.687  15.299  0.00  0.00    +0.000 NA
ATOM     24  C   UNL     1       7.057   4.988  14.247  0.00  0.00    +0.000 A 
ATOM     25  C   UNL     1       5.871   4.284  14.519  0.00  0.00    +0.000 A 
ATOM     26  C   UNL     1       5.617   4.547  15.840  0.00  0.00    +0.000 A 
ATOM     27  C   UNL     1       4.571   4.088  16.705  0.00  0.00    +0.000 A 
ATOM     28  O   UNL     1       3.779   3.212  16.374  0.00  0.00    +0.000 OA
ATOM     29  C   UNL     1       5.130   3.459  13.533  0.00  0.00    +0.000 C 
ATOM     30  C   UNL     1       5.612   3.763  12.107  0.00  0.00    +0.000 C 
ATOM     31  C   UNL     1       7.147   3.846  12.031  0.00  0.00    +0.000 C 
ATOM     32  C   UNL     1       7.714   4.983  12.909  0.00  0.00    +0.000 C 
ENDBRANCH  18  19
ENDBRANCH  17  18
ENDBRANCH   2  17
TORSDOF 7
ENDMDL
MODEL 5
REMARK VINA RESULT:      -8.0      1.851     11.049
REMARK  Name = 
REMARK  10 active torsions:
REMARK  status: ('A' for Active; 'I' for Inactive)
REMARK    1  A    between atoms: C_1  and  C_2
REMARK    2  A    between atoms: C_2  and  N_3
REMARK    3  A    between atoms: N_3  and  C_4
REMARK    4  A    between atoms: N_3  and  C_6
REMARK    5  A    between atoms: C_4  and  C_5
REMARK    6  A    between atoms: C_9  and  N_10
REMARK    7  A    between atoms: C_11  and  C_13
REMARK    8  A    between atoms: C_13  and  C_14
REMARK    9  A    between atoms: C_14  and  N_15
REMARK   10  A    between atoms: C_29  and  C_30
REMARK                            x       y       z     vdW  Elec       q    Type
REMARK                         _______ _______ _______ _____ _____    ______ ____
ROOT
ATOM      1  N   UNL     1       6.438   7.378  17.076  0.00  0.00    +0.000 N 
ATOM      2  C   UNL     1       7.608   7.457  17.818  0.00  0.00    +0.000 C 
ATOM      3  O   UNL     1       7.926   6.719  18.748  0.00  0.00    +0.000 OA
ATOM      4  H   UNL     1       6.237   8.139  16.443  0.00  0.00    +0.000 HD
ENDROOT
BRANCH   1   8
ATOM      5  C   UNL     1       3.584   4.208  17.435  0.00  0.00    +0.000 A 
ATOM      6  C   UNL     1       3.405   5.442  18.059  0.00  0.00    +0.000 A 
ATOM      7  C   UNL     1       4.334   6.474  17.935  0.00  0.00    +0.000 A 
ATOM      8  C   UNL     1       5.479   6.336  17.150  0.00  0.00    +0.000 A 
ATOM      9  C   UNL     1       5.669   5.122  16.462  0.00  0.00    +0.000 A 
ATOM     10  C   UNL     1       6.848   4.847  15.569  0.00  0.00    +0.000 C 
ATOM     11  C   UNL     1       4.725   4.075  16.629  0.00  0.00    +0.000 A 
BRANCH   5  12
ATOM     12  N   UNL     1       2.688   3.142  17.616  0.00  0.00    +0.000 N 
BRANCH  12  14
ATOM     13  C   UNL     1       4.093   2.033  19.363  0.00  0.00    +0.000 C 
ATOM     14  C   UNL     1       3.273   1.877  18.092  0.00  0.00    +0.000 C 
ENDBRANCH  12  14
BRANCH  12  15
ATOM     15  C   UNL     1       1.319   3.492  18.038  0.00  0.00    +0.000 C 
ATOM     16  C   UNL     1       0.992   3.071  19.467  0.00  0.00    +0.000 C 
ENDBRANCH  12  15
ENDBRANCH   5  12
ENDBRANCH   1   8
BRANCH   2  17
ATOM     17  C   UNL     1       8.497   8.617  17.436  0.00  0.00    +0.000 C 
BRANCH  17  18
ATOM     18  C   UNL     1       7.839   9.939  17.867  0.00  0.00    +0.000 C 
BRANCH  18  19
ATOM     19  N   UNL     1       8.808  10.955  18.282  0.00  0.00    +0.000 N 
ATOM     20  C   UNL     1       9.938  10.594  19.010  0.00  0.00    +0.000 A 
ATOM     21  C   UNL     1      10.844  11.514  19.375  0.00  0.00    +0.000 A 
ATOM     22  N   UNL     1      10.648  12.852  19.056  0.00  0.00    +0.000 N 
ATOM     23  N   UNL     1      11.424  13.924  19.377  0.00  0.00    +0.000 NA
ATOM     24  C   UNL     1      10.745  14.974  18.900  0.00  0.00    +0.000 A 
ATOM     25  C   UNL     1       9.543  14.604  18.273  0.00  0.00    +0.000 A 
ATOM     26  C   UNL     1       9.534  13.235  18.341  0.00  0.00    +0.000 A 
ATOM     27  C   UNL     1       8.590  12.276  17.846  0.00  0.00    +0.000 A 
ATOM     28  O   UNL     1       7.659  12.588  17.111  0.00  0.00    +0.000 OA
ATOM     29  C   UNL     1       8.564  15.554  17.690  0.00  0.00    +0.000 C 
ATOM     30  C   UNL     1       8.847  16.983  18.175  0.00  0.00    +0.000 C 
ATOM     31  C   UNL     1      10.350  17.312  18.128  0.00  0.00    +0.000 C 
ATOM     32  C   UNL     1      11.177  16.392  19.052  0.00  0.00    +0.000 C 
ENDBRANCH  18  19
ENDBRANCH  17  18
ENDBRANCH   2  17
TORSDOF 7
ENDMDL
MODEL 6
REMARK VINA RESULT:      -7.9      5.514      8.416
REMARK  Name = 
REMARK  10 active torsions:
REMARK  status: ('A' for Active; 'I' for Inactive)
REMARK    1  A    between atoms: C_1  and  C_2
REMARK    2  A    between atoms: C_2  and  N_3
REMARK    3  A    between atoms: N_3  and  C_4
REMARK    4  A    between atoms: N_3  and  C_6
REMARK    5  A    between atoms: C_4  and  C_5
REMARK    6  A    between atoms: C_9  and  N_10
REMARK    7  A    between atoms: C_11  and  C_13
REMARK    8  A    between atoms: C_13  and  C_14
REMARK    9  A    between atoms: C_14  and  N_15
REMARK   10  A    between atoms: C_29  and  C_30
REMARK                            x       y       z     vdW  Elec       q    Type
REMARK                         _______ _______ _______ _____ _____    ______ ____
ROOT
ATOM      1  N   UNL     1       2.566   6.627  19.628  0.00  0.00    +0.000 N 
ATOM      2  C   UNL     1       2.121   5.315  19.699  0.00  0.00    +0.000 C 
ATOM      3  O   UNL     1       1.115   4.924  20.285  0.00  0.00    +0.000 OA
ATOM      4  H   UNL     1       3.487   6.786  19.242  0.00  0.00    +0.000 HD
ENDROOT
BRANCH   1   8
ATOM      5  C   UNL     1       0.304   9.990  21.006  0.00  0.00    +0.000 A 
ATOM      6  C   UNL     1       0.747   8.989  21.870  0.00  0.00    +0.000 A 
ATOM      7  C   UNL     1       1.489   7.899  21.418  0.00  0.00    +0.000 A 
ATOM      8  C   UNL     1       1.856   7.769  20.078  0.00  0.00    +0.000 A 
ATOM      9  C   UNL     1       1.471   8.787  19.184  0.00  0.00    +0.000 A 
ATOM     10  C   UNL     1       1.814   8.782  17.719  0.00  0.00    +0.000 C 
ATOM     11  C   UNL     1       0.689   9.871  19.662  0.00  0.00    +0.000 A 
BRANCH   5  12
ATOM     12  N   UNL     1      -0.504  11.052  21.444  0.00  0.00    +0.000 N 
BRANCH  12  14
ATOM     13  C   UNL     1      -2.171  11.856  23.127  0.00  0.00    +0.000 C 
ATOM     14  C   UNL     1      -0.956  10.987  22.844  0.00  0.00    +0.000 C 
ENDBRANCH  12  14
BRANCH  12  15
ATOM     15  C   UNL     1      -0.242  12.374  20.845  0.00  0.00    +0.000 C 
ATOM     16  C   UNL     1       1.225  12.786  20.889  0.00  0.00    +0.000 C 
ENDBRANCH  12  15
ENDBRANCH   5  12
ENDBRANCH   1   8
BRANCH   2  17
ATOM     17  C   UNL     1       3.038   4.321  19.025  0.00  0.00    +0.000 C 
BRANCH  17  18
ATOM     18  C   UNL     1       4.493   4.592  19.444  0.00  0.00    +0.000 C 
BRANCH  18  19
ATOM     19  N   UNL     1       5.370   4.900  18.313  0.00  0.00    +0.000 N 
ATOM     20  C   UNL     1       6.398   5.828  18.454  0.00  0.00    +0.000 A 
ATOM     21  C   UNL     1       7.223   6.102  17.430  0.00  0.00    +0.000 A 
ATOM     22  N   UNL     1       7.040   5.480  16.202  0.00  0.00    +0.000 N 
ATOM     23  N   UNL     1       7.738   5.661  15.046  0.00  0.00    +0.000 NA
ATOM     24  C   UNL     1       7.106   4.886  14.157  0.00  0.00    +0.000 A 
ATOM     25  C   UNL     1       6.011   4.203  14.714  0.00  0.00    +0.000 A 
ATOM     26  C   UNL     1       6.025   4.562  16.037  0.00  0.00    +0.000 A 
ATOM     27  C   UNL     1       5.182   4.166  17.127  0.00  0.00    +0.000 A 
ATOM     28  O   UNL     1       4.354   3.268  17.026  0.00  0.00    +0.000 OA
ATOM     29  C   UNL     1       5.098   3.308  13.961  0.00  0.00    +0.000 C 
ATOM     30  C   UNL     1       5.277   3.508  12.448  0.00  0.00    +0.000 C 
ATOM     31  C   UNL     1       6.763   3.586  12.057  0.00  0.00    +0.000 C 
ATOM     32  C   UNL     1       7.478   4.785  12.718  0.00  0.00    +0.000 C 
ENDBRANCH  18  19
ENDBRANCH  17  18
ENDBRANCH   2  17
TORSDOF 7
ENDMDL
MODEL 7
REMARK VINA RESULT:      -7.9      5.588      8.119
REMARK  Name = 
REMARK  10 active torsions:
REMARK  status: ('A' for Active; 'I' for Inactive)
REMARK    1  A    between atoms: C_1  and  C_2
REMARK    2  A    between atoms: C_2  and  N_3
REMARK    3  A    between atoms: N_3  and  C_4
REMARK    4  A    between atoms: N_3  and  C_6
REMARK    5  A    between atoms: C_4  and  C_5
REMARK    6  A    between atoms: C_9  and  N_10
REMARK    7  A    between atoms: C_11  and  C_13
REMARK    8  A    between atoms: C_13  and  C_14
REMARK    9  A    between atoms: C_14  and  N_15
REMARK   10  A    between atoms: C_29  and  C_30
REMARK                            x       y       z     vdW  Elec       q    Type
REMARK                         _______ _______ _______ _____ _____    ______ ____
ROOT
ATOM      1  N   UNL     1       2.238   7.234  20.217  0.00  0.00    +0.000 N 
ATOM      2  C   UNL     1       2.553   6.121  19.451  0.00  0.00    +0.000 C 
ATOM      3  O   UNL     1       2.173   5.903  18.303  0.00  0.00    +0.000 OA
ATOM      4  H   UNL     1       2.494   7.214  21.194  0.00  0.00    +0.000 HD
ENDROOT
BRANCH   1   8
ATOM      5  C   UNL     1       0.312  10.800  18.836  0.00  0.00    +0.000 A 
ATOM      6  C   UNL     1       1.162  10.052  18.022  0.00  0.00    +0.000 A 
ATOM      7  C   UNL     1       1.782   8.888  18.473  0.00  0.00    +0.000 A 
ATOM      8  C   UNL     1       1.558   8.392  19.758  0.00  0.00    +0.000 A 
ATOM      9  C   UNL     1       0.665   9.091  20.592  0.00  0.00    +0.000 A 
ATOM     10  C   UNL     1       0.320   8.657  21.991  0.00  0.00    +0.000 C 
ATOM     11  C   UNL     1       0.070  10.291  20.121  0.00  0.00    +0.000 A 
BRANCH   5  12
ATOM     12  N   UNL     1      -0.258  12.011  18.410  0.00  0.00    +0.000 N 
BRANCH  12  14
ATOM     13  C   UNL     1      -2.562  11.450  17.612  0.00  0.00    +0.000 C 
ATOM     14  C   UNL     1      -1.704  12.164  18.645  0.00  0.00    +0.000 C 
ENDBRANCH  12  14
BRANCH  12  15
ATOM     15  C   UNL     1       0.602  13.207  18.479  0.00  0.00    +0.000 C 
ATOM     16  C   UNL     1       1.973  12.941  19.091  0.00  0.00    +0.000 C 
ENDBRANCH  12  15
ENDBRANCH   5  12
ENDBRANCH   1   8
BRANCH   2  17
ATOM     17  C   UNL     1       3.392   5.097  20.178  0.00  0.00    +0.000 C 
BRANCH  17  18
ATOM     18  C   UNL     1       3.821   3.989  19.202  0.00  0.00    +0.000 C 
BRANCH  18  19
ATOM     19  N   UNL     1       4.832   4.430  18.240  0.00  0.00    +0.000 N 
ATOM     20  C   UNL     1       5.832   5.318  18.627  0.00  0.00    +0.000 A 
ATOM     21  C   UNL     1       6.777   5.711  17.759  0.00  0.00    +0.000 A 
ATOM     22  N   UNL     1       6.751   5.258  16.447  0.00  0.00    +0.000 N 
ATOM     23  N   UNL     1       7.588   5.578  15.421  0.00  0.00    +0.000 NA
ATOM     24  C   UNL     1       7.074   4.935  14.367  0.00  0.00    +0.000 A 
ATOM     25  C   UNL     1       5.920   4.200  14.688  0.00  0.00    +0.000 A 
ATOM     26  C   UNL     1       5.768   4.383  16.037  0.00  0.00    +0.000 A 
ATOM     27  C   UNL     1       4.796   3.860  16.953  0.00  0.00    +0.000 A 
ATOM     28  O   UNL     1       3.989   2.994  16.633  0.00  0.00    +0.000 OA
ATOM     29  C   UNL     1       5.111   3.424  13.716  0.00  0.00    +0.000 C 
ATOM     30  C   UNL     1       5.477   3.817  12.277  0.00  0.00    +0.000 C 
ATOM     31  C   UNL     1       7.001   3.925  12.087  0.00  0.00    +0.000 C 
ATOM     32  C   UNL     1       7.624   5.017  12.984  0.00  0.00    +0.000 C 
ENDBRANCH  18  19
ENDBRANCH  17  18
ENDBRANCH   2  17
TORSDOF 7
ENDMDL
MODEL 8
REMARK VINA RESULT:      -7.8      5.650      8.355
REMARK  Name = 
REMARK  10 active torsions:
REMARK  status: ('A' for Active; 'I' for Inactive)
REMARK    1  A    between atoms: C_1  and  C_2
REMARK    2  A    between atoms: C_2  and  N_3
REMARK    3  A    between atoms: N_3  and  C_4
REMARK    4  A    between atoms: N_3  and  C_6
REMARK    5  A    between atoms: C_4  and  C_5
REMARK    6  A    between atoms: C_9  and  N_10
REMARK    7  A    between atoms: C_11  and  C_13
REMARK    8  A    between atoms: C_13  and  C_14
REMARK    9  A    between atoms: C_14  and  N_15
REMARK   10  A    between atoms: C_29  and  C_30
REMARK                            x       y       z     vdW  Elec       q    Type
REMARK                         _______ _______ _______ _____ _____    ______ ____
ROOT
ATOM      1  N   UNL     1       2.704   6.146  19.546  0.00  0.00    +0.000 N 
ATOM      2  C   UNL     1       2.125   4.886  19.589  0.00  0.00    +0.000 C 
ATOM      3  O   UNL     1       1.003   4.621  20.014  0.00  0.00    +0.000 OA
ATOM      4  H   UNL     1       3.686   6.199  19.314  0.00  0.00    +0.000 HD
ENDROOT
BRANCH   1   8
ATOM      5  C   UNL     1       0.594   9.773  20.396  0.00  0.00    +0.000 A 
ATOM      6  C   UNL     1       0.720   8.750  21.334  0.00  0.00    +0.000 A 
ATOM      7  C   UNL     1       1.413   7.573  21.057  0.00  0.00    +0.000 A 
ATOM      8  C   UNL     1       2.048   7.371  19.830  0.00  0.00    +0.000 A 
ATOM      9  C   UNL     1       1.987   8.404  18.875  0.00  0.00    +0.000 A 
ATOM     10  C   UNL     1       2.640   8.325  17.522  0.00  0.00    +0.000 C 
ATOM     11  C   UNL     1       1.249   9.580  19.170  0.00  0.00    +0.000 A 
BRANCH   5  12
ATOM     12  N   UNL     1      -0.164  10.929  20.646  0.00  0.00    +0.000 N 
BRANCH  12  14
ATOM     13  C   UNL     1      -1.051  12.327  18.771  0.00  0.00    +0.000 C 
ATOM     14  C   UNL     1      -1.293  11.174  19.732  0.00  0.00    +0.000 C 
ENDBRANCH  12  14
BRANCH  12  15
ATOM     15  C   UNL     1      -0.290  11.344  22.056  0.00  0.00    +0.000 C 
ATOM     16  C   UNL     1      -1.668  11.893  22.411  0.00  0.00    +0.000 C 
ENDBRANCH  12  15
ENDBRANCH   5  12
ENDBRANCH   1   8
BRANCH   2  17
ATOM     17  C   UNL     1       3.036   3.778  19.115  0.00  0.00    +0.000 C 
BRANCH  17  18
ATOM     18  C   UNL     1       4.478   4.065  19.563  0.00  0.00    +0.000 C 
BRANCH  18  19
ATOM     19  N   UNL     1       5.338   4.534  18.475  0.00  0.00    +0.000 N 
ATOM     20  C   UNL     1       6.289   5.524  18.707  0.00  0.00    +0.000 A 
ATOM     21  C   UNL     1       7.097   5.946  17.723  0.00  0.00    +0.000 A 
ATOM     22  N   UNL     1       6.973   5.418  16.444  0.00  0.00    +0.000 N 
ATOM     23  N   UNL     1       7.664   5.749  15.317  0.00  0.00    +0.000 NA
ATOM     24  C   UNL     1       7.102   5.006  14.358  0.00  0.00    +0.000 A 
ATOM     25  C   UNL     1       6.059   4.196  14.840  0.00  0.00    +0.000 A 
ATOM     26  C   UNL     1       6.035   4.442  16.188  0.00  0.00    +0.000 A 
ATOM     27  C   UNL     1       5.217   3.891  17.229  0.00  0.00    +0.000 A 
ATOM     28  O   UNL     1       4.462   2.943  17.041  0.00  0.00    +0.000 OA
ATOM     29  C   UNL     1       5.225   3.300  14.001  0.00  0.00    +0.000 C 
ATOM     30  C   UNL     1       5.400   3.640  12.514  0.00  0.00    +0.000 C 
ATOM     31  C   UNL     1       6.879   3.865  12.151  0.00  0.00    +0.000 C 
ATOM     32  C   UNL     1       7.492   5.055  12.921  0.00  0.00    +0.000 C 
ENDBRANCH  18  19
ENDBRANCH  17  18
ENDBRANCH   2  17
TORSDOF 7
ENDMDL
MODEL 9
REMARK VINA RESULT:      -7.7      5.731      8.374
REMARK  Name = 
REMARK  10 active torsions:
REMARK  status: ('A' for Active; 'I' for Inactive)
REMARK    1  A    between atoms: C_1  and  C_2
REMARK    2  A    between atoms: C_2  and  N_3
REMARK    3  A    between atoms: N_3  and  C_4
REMARK    4  A    between atoms: N_3  and  C_6
REMARK    5  A    between atoms: C_4  and  C_5
REMARK    6  A    between atoms: C_9  and  N_10
REMARK    7  A    between atoms: C_11  and  C_13
REMARK    8  A    between atoms: C_13  and  C_14
REMARK    9  A    between atoms: C_14  and  N_15
REMARK   10  A    between atoms: C_29  and  C_30
REMARK                            x       y       z     vdW  Elec       q    Type
REMARK                         _______ _______ _______ _____ _____    ______ ____
ROOT
ATOM      1  N   UNL     1       1.970   7.702  20.319  0.00  0.00    +0.000 N 
ATOM      2  C   UNL     1       2.508   6.882  19.338  0.00  0.00    +0.000 C 
ATOM      3  O   UNL     1       2.257   6.932  18.136  0.00  0.00    +0.000 OA
ATOM      4  H   UNL     1       2.147   7.453  21.282  0.00  0.00    +0.000 HD
ENDROOT
BRANCH   1   8
ATOM      5  C   UNL     1      -0.340  11.238  19.620  0.00  0.00    +0.000 A 
ATOM      6  C   UNL     1       0.355  10.591  18.599  0.00  0.00    +0.000 A 
ATOM      7  C   UNL     1       1.101   9.436  18.829  0.00  0.00    +0.000 A 
ATOM      8  C   UNL     1       1.164   8.848  20.092  0.00  0.00    +0.000 A 
ATOM      9  C   UNL     1       0.434   9.443  21.139  0.00  0.00    +0.000 A 
ATOM     10  C   UNL     1       0.401   8.904  22.543  0.00  0.00    +0.000 C 
ATOM     11  C   UNL     1      -0.292  10.636  20.886  0.00  0.00    +0.000 A 
BRANCH   5  12
ATOM     12  N   UNL     1      -1.033  12.441  19.407  0.00  0.00    +0.000 N 
BRANCH  12  14
ATOM     13  C   UNL     1       0.393  14.417  18.837  0.00  0.00    +0.000 C 
ATOM     14  C   UNL     1      -0.515  13.306  18.333  0.00  0.00    +0.000 C 
ENDBRANCH  12  14
BRANCH  12  15
ATOM     15  C   UNL     1      -2.485  12.422  19.663  0.00  0.00    +0.000 C 
ATOM     16  C   UNL     1      -2.931  13.410  20.735  0.00  0.00    +0.000 C 
ENDBRANCH  12  15
ENDBRANCH   5  12
ENDBRANCH   1   8
BRANCH   2  17
ATOM     17  C   UNL     1       3.428   5.811  19.874  0.00  0.00    +0.000 C 
BRANCH  17  18
ATOM     18  C   UNL     1       3.601   4.701  18.824  0.00  0.00    +0.000 C 
BRANCH  18  19
ATOM     19  N   UNL     1       4.677   4.974  17.870  0.00  0.00    +0.000 N 
ATOM     20  C   UNL     1       5.713   5.841  18.207  0.00  0.00    +0.000 A 
ATOM     21  C   UNL     1       6.717   6.081  17.349  0.00  0.00    +0.000 A 
ATOM     22  N   UNL     1       6.718   5.488  16.093  0.00  0.00    +0.000 N 
ATOM     23  N   UNL     1       7.615   5.645  15.080  0.00  0.00    +0.000 NA
ATOM     24  C   UNL     1       7.106   4.920  14.078  0.00  0.00    +0.000 A 
ATOM     25  C   UNL     1       5.896   4.292  14.420  0.00  0.00    +0.000 A 
ATOM     26  C   UNL     1       5.699   4.632  15.733  0.00  0.00    +0.000 A 
ATOM     27  C   UNL     1       4.660   4.269  16.652  0.00  0.00    +0.000 A 
ATOM     28  O   UNL     1       3.815   3.421  16.388  0.00  0.00    +0.000 OA
ATOM     29  C   UNL     1       5.082   3.462  13.499  0.00  0.00    +0.000 C 
ATOM     30  C   UNL     1       5.531   3.672  12.046  0.00  0.00    +0.000 C 
ATOM     31  C   UNL     1       7.066   3.670  11.919  0.00  0.00    +0.000 C 
ATOM     32  C   UNL     1       7.717   4.817  12.722  0.00  0.00    +0.000 C 
ENDBRANCH  18  19
ENDBRANCH  17  18
ENDBRANCH   2  17
TORSDOF 7
ENDMDL
