MODEL 1
REMARK VINA RESULT:      -6.6      0.000      0.000
REMARK  Name = 
REMARK  10 active torsions:
REMARK  status: ('A' for Active; 'I' for Inactive)
REMARK    1  A    between atoms: C_1  and  C_2
REMARK    2  A    between atoms: C_2  and  N_3
REMARK    3  A    between atoms: C_2  and  C_21
REMARK    4  A    between atoms: C_5  and  O_6
REMARK    5  A    between atoms: C_7  and  O_8
REMARK    6  A    between atoms: N_10  and  C_11
REMARK    7  A    between atoms: C_14  and  C_15
REMARK    8  A    between atoms: C_21  and  C_22
REMARK    9  A    between atoms: C_21  and  C_23
REMARK   10  A    between atoms: C_21  and  C_24
REMARK                            x       y       z     vdW  Elec       q    Type
REMARK                         _______ _______ _______ _____ _____    ______ ____
ROOT
ATOM      1  N   UNL     1       1.026  10.640  18.615  0.00  0.00    +0.000 NA
ATOM      2  C   UNL     1       1.232   9.657  19.413  0.00  0.00    +0.000 C 
ATOM      3  C   UNL     1       1.005   9.289  20.820  0.00  0.00    +0.000 C 
ATOM      4  C   UNL     1       1.491   8.030  20.609  0.00  0.00    +0.000 C 
ATOM      5  C   UNL     1       1.786   8.323  19.195  0.00  0.00    +0.000 C 
ATOM      6  N   UNL     1       2.234   7.744  18.133  0.00  0.00    +0.000 NA
ENDROOT
BRANCH   6   7
ATOM      7  C   UNL     1       2.569   6.371  18.210  0.00  0.00    +0.000 A 
ATOM      8  C   UNL     1       3.815   5.937  18.680  0.00  0.00    +0.000 A 
ATOM      9  C   UNL     1       4.168   4.595  18.736  0.00  0.00    +0.000 A 
ATOM     10  C   UNL     1       3.225   3.617  18.439  0.00  0.00    +0.000 A 
ATOM     11  C   UNL     1       1.947   4.023  18.019  0.00  0.00    +0.000 A 
ATOM     12  C   UNL     1       1.628   5.388  17.892  0.00  0.00    +0.000 A 
BRANCH  10  13
ATOM     13  C   UNL     1       3.569   2.163  18.630  0.00  0.00    +0.000 C 
ATOM     14  F   UNL     1       4.022   1.561  17.491  0.00  0.00    +0.000 F 
ATOM     15  F   UNL     1       4.552   1.982  19.554  0.00  0.00    +0.000 F 
ATOM     16  F   UNL     1       2.511   1.419  19.047  0.00  0.00    +0.000 F 
ENDBRANCH  10  13
ENDBRANCH   6   7
BRANCH   1  18
ATOM     17  C   UNL     1      -0.825  12.204  18.298  0.00  0.00    +0.000 C 
ATOM     18  C   UNL     1       0.412  11.870  19.146  0.00  0.00    +0.000 C 
BRANCH  18  19
ATOM     19  C   UNL     1       1.478  13.022  19.163  0.00  0.00    +0.000 C 
ATOM     20  C   UNL     1       2.576  12.773  18.105  0.00  0.00    +0.000 C 
ATOM     21  C   UNL     1       0.808  14.373  18.831  0.00  0.00    +0.000 C 
ATOM     22  C   UNL     1       2.154  13.153  20.541  0.00  0.00    +0.000 C 
ENDBRANCH  18  19
ENDBRANCH   1  18
BRANCH   3  23
ATOM     23  O   UNL     1       0.520   9.807  21.883  0.00  0.00    +0.000 OA
ATOM     24  H   UNL     1      -0.352  10.208  21.689  0.00  0.00    +0.000 HD
ENDBRANCH   3  23
BRANCH   4  25
ATOM     25  O   UNL     1       1.607   7.005  21.375  0.00  0.00    +0.000 OA
ATOM     26  H   UNL     1       0.732   6.596  21.488  0.00  0.00    +0.000 HD
ENDBRANCH   4  25
TORSDOF 6
ENDMDL
MODEL 2
REMARK VINA RESULT:      -6.6      0.023      1.171
REMARK  Name = 
REMARK  10 active torsions:
REMARK  status: ('A' for Active; 'I' for Inactive)
REMARK    1  A    between atoms: C_1  and  C_2
REMARK    2  A    between atoms: C_2  and  N_3
REMARK    3  A    between atoms: C_2  and  C_21
REMARK    4  A    between atoms: C_5  and  O_6
REMARK    5  A    between atoms: C_7  and  O_8
REMARK    6  A    between atoms: N_10  and  C_11
REMARK    7  A    between atoms: C_14  and  C_15
REMARK    8  A    between atoms: C_21  and  C_22
REMARK    9  A    between atoms: C_21  and  C_23
REMARK   10  A    between atoms: C_21  and  C_24
REMARK                            x       y       z     vdW  Elec       q    Type
REMARK                         _______ _______ _______ _____ _____    ______ ____
ROOT
ATOM      1  N   UNL     1       1.040  10.651  18.632  0.00  0.00    +0.000 NA
ATOM      2  C   UNL     1       1.235   9.666  19.429  0.00  0.00    +0.000 C 
ATOM      3  C   UNL     1       0.992   9.292  20.833  0.00  0.00    +0.000 C 
ATOM      4  C   UNL     1       1.478   8.034  20.622  0.00  0.00    +0.000 C 
ATOM      5  C   UNL     1       1.789   8.331  19.213  0.00  0.00    +0.000 C 
ATOM      6  N   UNL     1       2.248   7.755  18.154  0.00  0.00    +0.000 NA
ENDROOT
BRANCH   6   7
ATOM      7  C   UNL     1       2.581   6.381  18.230  0.00  0.00    +0.000 A 
ATOM      8  C   UNL     1       3.827   5.944  18.695  0.00  0.00    +0.000 A 
ATOM      9  C   UNL     1       4.177   4.602  18.750  0.00  0.00    +0.000 A 
ATOM     10  C   UNL     1       3.230   3.625  18.456  0.00  0.00    +0.000 A 
ATOM     11  C   UNL     1       1.952   4.035  18.041  0.00  0.00    +0.000 A 
ATOM     12  C   UNL     1       1.636   5.401  17.916  0.00  0.00    +0.000 A 
BRANCH  10  13
ATOM     13  C   UNL     1       3.572   2.170  18.647  0.00  0.00    +0.000 C 
ATOM     14  F   UNL     1       2.509   1.416  19.055  0.00  0.00    +0.000 F 
ATOM     15  F   UNL     1       4.014   1.589  17.499  0.00  0.00    +0.000 F 
ATOM     16  F   UNL     1       4.545   1.972  19.574  0.00  0.00    +0.000 F 
ENDBRANCH  10  13
ENDBRANCH   6   7
BRANCH   1  18
ATOM     17  C   UNL     1      -0.826  12.200  18.322  0.00  0.00    +0.000 C 
ATOM     18  C   UNL     1       0.422  11.881  19.161  0.00  0.00    +0.000 C 
BRANCH  18  19
ATOM     19  C   UNL     1       1.479  13.040  19.159  0.00  0.00    +0.000 C 
ATOM     20  C   UNL     1       2.169  13.160  20.537  0.00  0.00    +0.000 C 
ATOM     21  C   UNL     1       2.578  12.757  18.112  0.00  0.00    +0.000 C 
ATOM     22  C   UNL     1       0.837  14.398  18.819  0.00  0.00    +0.000 C 
ENDBRANCH  18  19
ENDBRANCH   1  18
BRANCH   3  23
ATOM     23  O   UNL     1       0.495   9.808  21.892  0.00  0.00    +0.000 OA
ATOM     24  H   UNL     1      -0.164   9.198  22.281  0.00  0.00    +0.000 HD
ENDBRANCH   3  23
BRANCH   4  25
ATOM     25  O   UNL     1       1.584   7.006  21.386  0.00  0.00    +0.000 OA
ATOM     26  H   UNL     1       1.838   7.301  22.278  0.00  0.00    +0.000 HD
ENDBRANCH   4  25
TORSDOF 6
ENDMDL
MODEL 3
REMARK VINA RESULT:      -6.6      0.168      1.166
REMARK  Name = 
REMARK  10 active torsions:
REMARK  status: ('A' for Active; 'I' for Inactive)
REMARK    1  A    between atoms: C_1  and  C_2
REMARK    2  A    between atoms: C_2  and  N_3
REMARK    3  A    between atoms: C_2  and  C_21
REMARK    4  A    between atoms: C_5  and  O_6
REMARK    5  A    between atoms: C_7  and  O_8
REMARK    6  A    between atoms: N_10  and  C_11
REMARK    7  A    between atoms: C_14  and  C_15
REMARK    8  A    between atoms: C_21  and  C_22
REMARK    9  A    between atoms: C_21  and  C_23
REMARK   10  A    between atoms: C_21  and  C_24
REMARK                            x       y       z     vdW  Elec       q    Type
REMARK                         _______ _______ _______ _____ _____    ______ ____
ROOT
ATOM      1  N   UNL     1       1.007  10.740  18.613  0.00  0.00    +0.000 NA
ATOM      2  C   UNL     1       1.181   9.761  19.421  0.00  0.00    +0.000 C 
ATOM      3  C   UNL     1       0.899   9.397  20.820  0.00  0.00    +0.000 C 
ATOM      4  C   UNL     1       1.392   8.137  20.632  0.00  0.00    +0.000 C 
ATOM      5  C   UNL     1       1.742   8.425  19.230  0.00  0.00    +0.000 C 
ATOM      6  N   UNL     1       2.230   7.842  18.188  0.00  0.00    +0.000 NA
ENDROOT
BRANCH   6   7
ATOM      7  C   UNL     1       2.561   6.469  18.283  0.00  0.00    +0.000 A 
ATOM      8  C   UNL     1       3.724   6.029  18.925  0.00  0.00    +0.000 A 
ATOM      9  C   UNL     1       4.076   4.688  19.003  0.00  0.00    +0.000 A 
ATOM     10  C   UNL     1       3.196   3.712  18.544  0.00  0.00    +0.000 A 
ATOM     11  C   UNL     1       1.993   4.124  17.946  0.00  0.00    +0.000 A 
ATOM     12  C   UNL     1       1.686   5.490  17.804  0.00  0.00    +0.000 A 
BRANCH  10  13
ATOM     13  C   UNL     1       3.519   2.256  18.752  0.00  0.00    +0.000 C 
ATOM     14  F   UNL     1       4.584   2.053  19.581  0.00  0.00    +0.000 F 
ATOM     15  F   UNL     1       2.484   1.572  19.311  0.00  0.00    +0.000 F 
ATOM     16  F   UNL     1       3.821   1.611  17.594  0.00  0.00    +0.000 F 
ENDBRANCH  10  13
ENDBRANCH   6   7
BRANCH   1  18
ATOM     17  C   UNL     1      -0.865  12.271  18.257  0.00  0.00    +0.000 C 
ATOM     18  C   UNL     1       0.375  11.974  19.115  0.00  0.00    +0.000 C 
BRANCH  18  19
ATOM     19  C   UNL     1       1.424  13.140  19.109  0.00  0.00    +0.000 C 
ATOM     20  C   UNL     1       0.743  14.494  18.807  0.00  0.00    +0.000 C 
ATOM     21  C   UNL     1       2.099  13.257  20.493  0.00  0.00    +0.000 C 
ATOM     22  C   UNL     1       2.528  12.909  18.060  0.00  0.00    +0.000 C 
ENDBRANCH  18  19
ENDBRANCH   1  18
BRANCH   3  23
ATOM     23  O   UNL     1       0.373   9.920  21.861  0.00  0.00    +0.000 OA
ATOM     24  H   UNL     1       0.894  10.701  22.140  0.00  0.00    +0.000 HD
ENDBRANCH   3  23
BRANCH   4  25
ATOM     25  O   UNL     1       1.476   7.115  21.406  0.00  0.00    +0.000 OA
ATOM     26  H   UNL     1       1.518   6.310  20.861  0.00  0.00    +0.000 HD
ENDBRANCH   4  25
TORSDOF 6
ENDMDL
MODEL 4
REMARK VINA RESULT:      -6.5      4.825      8.031
REMARK  Name = 
REMARK  10 active torsions:
REMARK  status: ('A' for Active; 'I' for Inactive)
REMARK    1  A    between atoms: C_1  and  C_2
REMARK    2  A    between atoms: C_2  and  N_3
REMARK    3  A    between atoms: C_2  and  C_21
REMARK    4  A    between atoms: C_5  and  O_6
REMARK    5  A    between atoms: C_7  and  O_8
REMARK    6  A    between atoms: N_10  and  C_11
REMARK    7  A    between atoms: C_14  and  C_15
REMARK    8  A    between atoms: C_21  and  C_22
REMARK    9  A    between atoms: C_21  and  C_23
REMARK   10  A    between atoms: C_21  and  C_24
REMARK                            x       y       z     vdW  Elec       q    Type
REMARK                         _______ _______ _______ _____ _____    ______ ____
ROOT
ATOM      1  N   UNL     1       4.669   6.982  17.306  0.00  0.00    +0.000 NA
ATOM      2  C   UNL     1       3.727   7.027  18.174  0.00  0.00    +0.000 C 
ATOM      3  C   UNL     1       3.307   6.348  19.411  0.00  0.00    +0.000 C 
ATOM      4  C   UNL     1       2.262   7.213  19.577  0.00  0.00    +0.000 C 
ATOM      5  C   UNL     1       2.587   7.929  18.331  0.00  0.00    +0.000 C 
ATOM      6  N   UNL     1       2.196   8.944  17.637  0.00  0.00    +0.000 NA
ENDROOT
BRANCH   6   7
ATOM      7  C   UNL     1       1.123   9.721  18.135  0.00  0.00    +0.000 A 
ATOM      8  C   UNL     1       1.328  10.792  19.013  0.00  0.00    +0.000 A 
ATOM      9  C   UNL     1       0.284  11.547  19.531  0.00  0.00    +0.000 A 
ATOM     10  C   UNL     1      -1.016  11.334  19.081  0.00  0.00    +0.000 A 
ATOM     11  C   UNL     1      -1.243  10.302  18.155  0.00  0.00    +0.000 A 
ATOM     12  C   UNL     1      -0.185   9.494  17.698  0.00  0.00    +0.000 A 
BRANCH  10  13
ATOM     13  C   UNL     1      -2.126  12.242  19.542  0.00  0.00    +0.000 C 
ATOM     14  F   UNL     1      -2.490  12.031  20.841  0.00  0.00    +0.000 F 
ATOM     15  F   UNL     1      -1.782  13.557  19.467  0.00  0.00    +0.000 F 
ATOM     16  F   UNL     1      -3.262  12.102  18.810  0.00  0.00    +0.000 F 
ENDBRANCH  10  13
ENDBRANCH   6   7
BRANCH   1  18
ATOM     17  C   UNL     1       7.075   6.638  17.567  0.00  0.00    +0.000 C 
ATOM     18  C   UNL     1       5.709   5.945  17.440  0.00  0.00    +0.000 C 
BRANCH  18  19
ATOM     19  C   UNL     1       5.627   4.961  16.220  0.00  0.00    +0.000 C 
ATOM     20  C   UNL     1       5.293   5.723  14.918  0.00  0.00    +0.000 C 
ATOM     21  C   UNL     1       6.986   4.257  16.012  0.00  0.00    +0.000 C 
ATOM     22  C   UNL     1       4.557   3.874  16.435  0.00  0.00    +0.000 C 
ENDBRANCH  18  19
ENDBRANCH   1  18
BRANCH   3  23
ATOM     23  O   UNL     1       3.692   5.383  20.156  0.00  0.00    +0.000 OA
ATOM     24  H   UNL     1       2.990   4.703  20.208  0.00  0.00    +0.000 HD
ENDBRANCH   3  23
BRANCH   4  25
ATOM     25  O   UNL     1       1.373   7.332  20.497  0.00  0.00    +0.000 OA
ATOM     26  H   UNL     1       0.996   6.455  20.686  0.00  0.00    +0.000 HD
ENDBRANCH   4  25
TORSDOF 6
ENDMDL
MODEL 5
REMARK VINA RESULT:      -6.5      4.800      8.064
REMARK  Name = 
REMARK  10 active torsions:
REMARK  status: ('A' for Active; 'I' for Inactive)
REMARK    1  A    between atoms: C_1  and  C_2
REMARK    2  A    between atoms: C_2  and  N_3
REMARK    3  A    between atoms: C_2  and  C_21
REMARK    4  A    between atoms: C_5  and  O_6
REMARK    5  A    between atoms: C_7  and  O_8
REMARK    6  A    between atoms: N_10  and  C_11
REMARK    7  A    between atoms: C_14  and  C_15
REMARK    8  A    between atoms: C_21  and  C_22
REMARK    9  A    between atoms: C_21  and  C_23
REMARK   10  A    between atoms: C_21  and  C_24
REMARK                            x       y       z     vdW  Elec       q    Type
REMARK                         _______ _______ _______ _____ _____    ______ ____
ROOT
ATOM      1  N   UNL     1       4.589   6.942  17.267  0.00  0.00    +0.000 NA
ATOM      2  C   UNL     1       3.663   7.049  18.146  0.00  0.00    +0.000 C 
ATOM      3  C   UNL     1       3.243   6.429  19.414  0.00  0.00    +0.000 C 
ATOM      4  C   UNL     1       2.227   7.331  19.562  0.00  0.00    +0.000 C 
ATOM      5  C   UNL     1       2.554   7.991  18.286  0.00  0.00    +0.000 C 
ATOM      6  N   UNL     1       2.182   8.990  17.560  0.00  0.00    +0.000 NA
ENDROOT
BRANCH   6   7
ATOM      7  C   UNL     1       1.142   9.818  18.044  0.00  0.00    +0.000 A 
ATOM      8  C   UNL     1      -0.206   9.551  17.774  0.00  0.00    +0.000 A 
ATOM      9  C   UNL     1      -1.236  10.369  18.220  0.00  0.00    +0.000 A 
ATOM     10  C   UNL     1      -0.958  11.431  19.073  0.00  0.00    +0.000 A 
ATOM     11  C   UNL     1       0.382  11.689  19.408  0.00  0.00    +0.000 A 
ATOM     12  C   UNL     1       1.423  10.898  18.886  0.00  0.00    +0.000 A 
BRANCH  10  13
ATOM     13  C   UNL     1      -2.089  12.234  19.663  0.00  0.00    +0.000 C 
ATOM     14  F   UNL     1      -3.285  12.016  19.041  0.00  0.00    +0.000 F 
ATOM     15  F   UNL     1      -2.300  11.942  20.974  0.00  0.00    +0.000 F 
ATOM     16  F   UNL     1      -1.876  13.574  19.599  0.00  0.00    +0.000 F 
ENDBRANCH  10  13
ENDBRANCH   6   7
BRANCH   1  18
ATOM     17  C   UNL     1       6.974   6.538  17.621  0.00  0.00    +0.000 C 
ATOM     18  C   UNL     1       5.600   5.879  17.424  0.00  0.00    +0.000 C 
BRANCH  18  19
ATOM     19  C   UNL     1       5.547   4.919  16.184  0.00  0.00    +0.000 C 
ATOM     20  C   UNL     1       4.456   3.841  16.367  0.00  0.00    +0.000 C 
ATOM     21  C   UNL     1       5.204   5.717  14.907  0.00  0.00    +0.000 C 
ATOM     22  C   UNL     1       6.895   4.211  15.954  0.00  0.00    +0.000 C 
ENDBRANCH  18  19
ENDBRANCH   1  18
BRANCH   3  23
ATOM     23  O   UNL     1       3.610   5.481  20.189  0.00  0.00    +0.000 OA
ATOM     24  H   UNL     1       3.843   4.692  19.659  0.00  0.00    +0.000 HD
ENDBRANCH   3  23
BRANCH   4  25
ATOM     25  O   UNL     1       1.357   7.512  20.490  0.00  0.00    +0.000 OA
ATOM     26  H   UNL     1       0.703   8.165  20.186  0.00  0.00    +0.000 HD
ENDBRANCH   4  25
TORSDOF 6
ENDMDL
MODEL 6
REMARK VINA RESULT:      -6.5      4.812      8.096
REMARK  Name = 
REMARK  10 active torsions:
REMARK  status: ('A' for Active; 'I' for Inactive)
REMARK    1  A    between atoms: C_1  and  C_2
REMARK    2  A    between atoms: C_2  and  N_3
REMARK    3  A    between atoms: C_2  and  C_21
REMARK    4  A    between atoms: C_5  and  O_6
REMARK    5  A    between atoms: C_7  and  O_8
REMARK    6  A    between atoms: N_10  and  C_11
REMARK    7  A    between atoms: C_14  and  C_15
REMARK    8  A    between atoms: C_21  and  C_22
REMARK    9  A    between atoms: C_21  and  C_23
REMARK   10  A    between atoms: C_21  and  C_24
REMARK                            x       y       z     vdW  Elec       q    Type
REMARK                         _______ _______ _______ _____ _____    ______ ____
ROOT
ATOM      1  N   UNL     1       4.561   6.903  17.279  0.00  0.00    +0.000 NA
ATOM      2  C   UNL     1       3.642   7.035  18.163  0.00  0.00    +0.000 C 
ATOM      3  C   UNL     1       3.228   6.446  19.447  0.00  0.00    +0.000 C 
ATOM      4  C   UNL     1       2.219   7.357  19.583  0.00  0.00    +0.000 C 
ATOM      5  C   UNL     1       2.539   7.987  18.290  0.00  0.00    +0.000 C 
ATOM      6  N   UNL     1       2.168   8.972  17.545  0.00  0.00    +0.000 NA
ENDROOT
BRANCH   6   7
ATOM      7  C   UNL     1       1.136   9.817  18.019  0.00  0.00    +0.000 A 
ATOM      8  C   UNL     1      -0.217   9.506  17.840  0.00  0.00    +0.000 A 
ATOM      9  C   UNL     1      -1.241  10.338  18.276  0.00  0.00    +0.000 A 
ATOM     10  C   UNL     1      -0.943  11.468  19.031  0.00  0.00    +0.000 A 
ATOM     11  C   UNL     1       0.407  11.773  19.275  0.00  0.00    +0.000 A 
ATOM     12  C   UNL     1       1.436  10.962  18.761  0.00  0.00    +0.000 A 
BRANCH  10  13
ATOM     13  C   UNL     1      -2.059  12.293  19.616  0.00  0.00    +0.000 C 
ATOM     14  F   UNL     1      -1.818  13.637  19.568  0.00  0.00    +0.000 F 
ATOM     15  F   UNL     1      -3.236  12.109  18.960  0.00  0.00    +0.000 F 
ATOM     16  F   UNL     1      -2.301  12.006  20.922  0.00  0.00    +0.000 F 
ENDBRANCH  10  13
ENDBRANCH   6   7
BRANCH   1  18
ATOM     17  C   UNL     1       6.928   6.494  17.727  0.00  0.00    +0.000 C 
ATOM     18  C   UNL     1       5.566   5.839  17.452  0.00  0.00    +0.000 C 
BRANCH  18  19
ATOM     19  C   UNL     1       5.571   4.913  16.185  0.00  0.00    +0.000 C 
ATOM     20  C   UNL     1       6.951   4.243  15.997  0.00  0.00    +0.000 C 
ATOM     21  C   UNL     1       4.525   3.788  16.344  0.00  0.00    +0.000 C 
ATOM     22  C   UNL     1       5.234   5.697  14.903  0.00  0.00    +0.000 C 
ENDBRANCH  18  19
ENDBRANCH   1  18
BRANCH   3  23
ATOM     23  O   UNL     1       3.596   5.514  20.239  0.00  0.00    +0.000 OA
ATOM     24  H   UNL     1       2.976   5.456  20.995  0.00  0.00    +0.000 HD
ENDBRANCH   3  23
BRANCH   4  25
ATOM     25  O   UNL     1       1.356   7.564  20.513  0.00  0.00    +0.000 OA
ATOM     26  H   UNL     1       1.828   7.773  21.339  0.00  0.00    +0.000 HD
ENDBRANCH   4  25
TORSDOF 6
ENDMDL
MODEL 7
REMARK VINA RESULT:      -6.5      0.158      1.534
REMARK  Name = 
REMARK  10 active torsions:
REMARK  status: ('A' for Active; 'I' for Inactive)
REMARK    1  A    between atoms: C_1  and  C_2
REMARK    2  A    between atoms: C_2  and  N_3
REMARK    3  A    between atoms: C_2  and  C_21
REMARK    4  A    between atoms: C_5  and  O_6
REMARK    5  A    between atoms: C_7  and  O_8
REMARK    6  A    between atoms: N_10  and  C_11
REMARK    7  A    between atoms: C_14  and  C_15
REMARK    8  A    between atoms: C_21  and  C_22
REMARK    9  A    between atoms: C_21  and  C_23
REMARK   10  A    between atoms: C_21  and  C_24
REMARK                            x       y       z     vdW  Elec       q    Type
REMARK                         _______ _______ _______ _____ _____    ______ ____
ROOT
ATOM      1  N   UNL     1       1.030  10.699  18.662  0.00  0.00    +0.000 NA
ATOM      2  C   UNL     1       1.205   9.738  19.493  0.00  0.00    +0.000 C 
ATOM      3  C   UNL     1       0.940   9.413  20.904  0.00  0.00    +0.000 C 
ATOM      4  C   UNL     1       1.416   8.144  20.741  0.00  0.00    +0.000 C 
ATOM      5  C   UNL     1       1.749   8.392  19.327  0.00  0.00    +0.000 C 
ATOM      6  N   UNL     1       2.215   7.777  18.293  0.00  0.00    +0.000 NA
ENDROOT
BRANCH   6   7
ATOM      7  C   UNL     1       2.532   6.404  18.418  0.00  0.00    +0.000 A 
ATOM      8  C   UNL     1       1.689   5.400  17.926  0.00  0.00    +0.000 A 
ATOM      9  C   UNL     1       1.974   4.048  18.064  0.00  0.00    +0.000 A 
ATOM     10  C   UNL     1       3.196   3.647  18.596  0.00  0.00    +0.000 A 
ATOM     11  C   UNL     1       4.087   4.636  19.046  0.00  0.00    +0.000 A 
ATOM     12  C   UNL     1       3.751   6.001  18.970  0.00  0.00    +0.000 A 
BRANCH  10  13
ATOM     13  C   UNL     1       3.558   2.185  18.621  0.00  0.00    +0.000 C 
ATOM     14  F   UNL     1       4.531   1.886  19.531  0.00  0.00    +0.000 F 
ATOM     15  F   UNL     1       2.499   1.396  18.945  0.00  0.00    +0.000 F 
ATOM     16  F   UNL     1       4.018   1.734  17.424  0.00  0.00    +0.000 F 
ENDBRANCH  10  13
ENDBRANCH   6   7
BRANCH   1  18
ATOM     17  C   UNL     1      -0.805  12.264  18.267  0.00  0.00    +0.000 C 
ATOM     18  C   UNL     1       0.419  11.952  19.142  0.00  0.00    +0.000 C 
BRANCH  18  19
ATOM     19  C   UNL     1       1.493  13.096  19.133  0.00  0.00    +0.000 C 
ATOM     20  C   UNL     1       2.189  13.209  20.508  0.00  0.00    +0.000 C 
ATOM     21  C   UNL     1       2.584  12.794  18.082  0.00  0.00    +0.000 C 
ATOM     22  C   UNL     1       0.869  14.462  18.791  0.00  0.00    +0.000 C 
ENDBRANCH  18  19
ENDBRANCH   1  18
BRANCH   3  23
ATOM     23  O   UNL     1       0.436   9.968  21.939  0.00  0.00    +0.000 OA
ATOM     24  H   UNL     1      -0.539   9.994  21.860  0.00  0.00    +0.000 HD
ENDBRANCH   3  23
BRANCH   4  25
ATOM     25  O   UNL     1       1.501   7.140  21.539  0.00  0.00    +0.000 OA
ATOM     26  H   UNL     1       1.092   7.379  22.389  0.00  0.00    +0.000 HD
ENDBRANCH   4  25
TORSDOF 6
ENDMDL
MODEL 8
REMARK VINA RESULT:      -6.4      0.404      1.529
REMARK  Name = 
REMARK  10 active torsions:
REMARK  status: ('A' for Active; 'I' for Inactive)
REMARK    1  A    between atoms: C_1  and  C_2
REMARK    2  A    between atoms: C_2  and  N_3
REMARK    3  A    between atoms: C_2  and  C_21
REMARK    4  A    between atoms: C_5  and  O_6
REMARK    5  A    between atoms: C_7  and  O_8
REMARK    6  A    between atoms: N_10  and  C_11
REMARK    7  A    between atoms: C_14  and  C_15
REMARK    8  A    between atoms: C_21  and  C_22
REMARK    9  A    between atoms: C_21  and  C_23
REMARK   10  A    between atoms: C_21  and  C_24
REMARK                            x       y       z     vdW  Elec       q    Type
REMARK                         _______ _______ _______ _____ _____    ______ ____
ROOT
ATOM      1  N   UNL     1       0.937  10.880  18.614  0.00  0.00    +0.000 NA
ATOM      2  C   UNL     1       1.160   9.891  19.399  0.00  0.00    +0.000 C 
ATOM      3  C   UNL     1       0.946   9.503  20.803  0.00  0.00    +0.000 C 
ATOM      4  C   UNL     1       1.448   8.253  20.573  0.00  0.00    +0.000 C 
ATOM      5  C   UNL     1       1.732   8.567  19.162  0.00  0.00    +0.000 C 
ATOM      6  N   UNL     1       2.182   8.008  18.090  0.00  0.00    +0.000 NA
ENDROOT
BRANCH   6   7
ATOM      7  C   UNL     1       2.536   6.639  18.148  0.00  0.00    +0.000 A 
ATOM      8  C   UNL     1       1.607   5.621  17.903  0.00  0.00    +0.000 A 
ATOM      9  C   UNL     1       1.934   4.273  17.983  0.00  0.00    +0.000 A 
ATOM     10  C   UNL     1       3.255   3.891  18.189  0.00  0.00    +0.000 A 
ATOM     11  C   UNL     1       4.220   4.894  18.382  0.00  0.00    +0.000 A 
ATOM     12  C   UNL     1       3.860   6.255  18.376  0.00  0.00    +0.000 A 
BRANCH  10  13
ATOM     13  C   UNL     1       3.629   2.432  18.140  0.00  0.00    +0.000 C 
ATOM     14  F   UNL     1       2.551   1.604  18.009  0.00  0.00    +0.000 F 
ATOM     15  F   UNL     1       4.443   2.142  17.090  0.00  0.00    +0.000 F 
ATOM     16  F   UNL     1       4.283   2.016  19.256  0.00  0.00    +0.000 F 
ENDBRANCH  10  13
ENDBRANCH   6   7
BRANCH   1  18
ATOM     17  C   UNL     1      -0.939  12.421  18.329  0.00  0.00    +0.000 C 
ATOM     18  C   UNL     1       0.310  12.096  19.163  0.00  0.00    +0.000 C 
BRANCH  18  19
ATOM     19  C   UNL     1       1.359  13.263  19.184  0.00  0.00    +0.000 C 
ATOM     20  C   UNL     1       0.670  14.628  18.964  0.00  0.00    +0.000 C 
ATOM     21  C   UNL     1       2.069  13.316  20.554  0.00  0.00    +0.000 C 
ATOM     22  C   UNL     1       2.435  13.082  18.098  0.00  0.00    +0.000 C 
ENDBRANCH  18  19
ENDBRANCH   1  18
BRANCH   3  23
ATOM     23  O   UNL     1       0.460  10.001  21.874  0.00  0.00    +0.000 OA
ATOM     24  H   UNL     1       1.027   9.767  22.637  0.00  0.00    +0.000 HD
ENDBRANCH   3  23
BRANCH   4  25
ATOM     25  O   UNL     1       1.582   7.221  21.326  0.00  0.00    +0.000 OA
ATOM     26  H   UNL     1       1.455   6.420  20.788  0.00  0.00    +0.000 HD
ENDBRANCH   4  25
TORSDOF 6
ENDMDL
MODEL 9
REMARK VINA RESULT:      -6.3      3.561      4.888
REMARK  Name = 
REMARK  10 active torsions:
REMARK  status: ('A' for Active; 'I' for Inactive)
REMARK    1  A    between atoms: C_1  and  C_2
REMARK    2  A    between atoms: C_2  and  N_3
REMARK    3  A    between atoms: C_2  and  C_21
REMARK    4  A    between atoms: C_5  and  O_6
REMARK    5  A    between atoms: C_7  and  O_8
REMARK    6  A    between atoms: N_10  and  C_11
REMARK    7  A    between atoms: C_14  and  C_15
REMARK    8  A    between atoms: C_21  and  C_22
REMARK    9  A    between atoms: C_21  and  C_23
REMARK   10  A    between atoms: C_21  and  C_24
REMARK                            x       y       z     vdW  Elec       q    Type
REMARK                         _______ _______ _______ _____ _____    ______ ____
ROOT
ATOM      1  N   UNL     1      -1.761  12.592  20.809  0.00  0.00    +0.000 NA
ATOM      2  C   UNL     1      -1.648  11.804  19.805  0.00  0.00    +0.000 C 
ATOM      3  C   UNL     1      -2.254  11.578  18.482  0.00  0.00    +0.000 C 
ATOM      4  C   UNL     1      -1.357  10.588  18.198  0.00  0.00    +0.000 C 
ATOM      5  C   UNL     1      -0.712  10.719  19.516  0.00  0.00    +0.000 C 
ATOM      6  N   UNL     1       0.275  10.237  20.192  0.00  0.00    +0.000 NA
ENDROOT
BRANCH   6   7
ATOM      7  C   UNL     1       1.102   9.271  19.571  0.00  0.00    +0.000 A 
ATOM      8  C   UNL     1       1.676   9.485  18.312  0.00  0.00    +0.000 A 
ATOM      9  C   UNL     1       2.469   8.536  17.679  0.00  0.00    +0.000 A 
ATOM     10  C   UNL     1       2.825   7.370  18.350  0.00  0.00    +0.000 A 
ATOM     11  C   UNL     1       2.309   7.155  19.639  0.00  0.00    +0.000 A 
ATOM     12  C   UNL     1       1.444   8.091  20.237  0.00  0.00    +0.000 A 
BRANCH  10  13
ATOM     13  C   UNL     1       3.793   6.407  17.714  0.00  0.00    +0.000 C 
ATOM     14  F   UNL     1       4.810   6.036  18.546  0.00  0.00    +0.000 F 
ATOM     15  F   UNL     1       3.191   5.248  17.332  0.00  0.00    +0.000 F 
ATOM     16  F   UNL     1       4.389   6.912  16.602  0.00  0.00    +0.000 F 
ENDBRANCH  10  13
ENDBRANCH   6   7
BRANCH   1  18
ATOM     17  C   UNL     1      -2.147  15.005  20.874  0.00  0.00    +0.000 C 
ATOM     18  C   UNL     1      -2.814  13.624  20.788  0.00  0.00    +0.000 C 
BRANCH  18  19
ATOM     19  C   UNL     1      -3.832  13.356  21.952  0.00  0.00    +0.000 C 
ATOM     20  C   UNL     1      -4.250  14.678  22.635  0.00  0.00    +0.000 C 
ATOM     21  C   UNL     1      -5.112  12.693  21.399  0.00  0.00    +0.000 C 
ATOM     22  C   UNL     1      -3.240  12.423  23.025  0.00  0.00    +0.000 C 
ENDBRANCH  18  19
ENDBRANCH   1  18
BRANCH   3  23
ATOM     23  O   UNL     1      -3.189  12.063  17.758  0.00  0.00    +0.000 OA
ATOM     24  H   UNL     1      -2.929  12.947  17.428  0.00  0.00    +0.000 HD
ENDBRANCH   3  23
BRANCH   4  25
ATOM     25  O   UNL     1      -1.170   9.861  17.155  0.00  0.00    +0.000 OA
ATOM     26  H   UNL     1      -1.427   8.945  17.359  0.00  0.00    +0.000 HD
ENDBRANCH   4  25
TORSDOF 6
ENDMDL
