MODEL 1
REMARK VINA RESULT:      -7.1      0.000      0.000
REMARK  Name = 
REMARK  17 active torsions:
REMARK  status: ('A' for Active; 'I' for Inactive)
REMARK    1  A    between atoms: C_1  and  O_2
REMARK    2  A    between atoms: O_2  and  C_3
REMARK    3  A    between atoms: C_12  and  O_13
REMARK    4  A    between atoms: O_13  and  C_14
REMARK    5  A    between atoms: C_15  and  C_16
REMARK    6  A    between atoms: C_16  and  C_17
REMARK    7  A    between atoms: C_17  and  O_18
REMARK    8  A    between atoms: C_17  and  C_19
REMARK    9  A    between atoms: C_19  and  C_20
REMARK   10  A    between atoms: C_19  and  C_21
REMARK   11  A    between atoms: C_19  and  O_22
REMARK   12  A    between atoms: O_22  and  C_23
REMARK   13  A    between atoms: C_25  and  C_26
REMARK   14  A    between atoms: C_26  and  O_27
REMARK   15  A    between atoms: C_28  and  O_29
REMARK   16  A    between atoms: C_30  and  O_31
REMARK   17  A    between atoms: C_32  and  O_33
REMARK                            x       y       z     vdW  Elec       q    Type
REMARK                         _______ _______ _______ _____ _____    ______ ____
ROOT
ATOM      1  C   UNL     1       2.658   5.553  19.591  0.00  0.00    +0.000 C 
ENDROOT
BRANCH   1   2
ATOM      2  C   UNL     1       2.225   4.201  18.890  0.00  0.00    +0.000 C 
ATOM      3  C   UNL     1       1.387   3.392  19.903  0.00  0.00    +0.000 C 
ATOM      4  C   UNL     1       1.383   4.437  17.625  0.00  0.00    +0.000 C 
BRANCH   2   5
ATOM      5  O   UNL     1       3.468   3.525  18.519  0.00  0.00    +0.000 OA
BRANCH   5   6
ATOM      6  C   UNL     1       4.471   4.275  17.830  0.00  0.00    +0.000 C 
ATOM      7  O   UNL     1       4.533   3.852  16.476  0.00  0.00    +0.000 OA
ATOM      8  C   UNL     1       5.407   4.637  15.667  0.00  0.00    +0.000 C 
ATOM      9  C   UNL     1       6.844   4.476  16.147  0.00  0.00    +0.000 C 
ATOM     10  C   UNL     1       6.926   4.834  17.638  0.00  0.00    +0.000 C 
ATOM     11  C   UNL     1       5.865   4.105  18.491  0.00  0.00    +0.000 C 
BRANCH   9  12
ATOM     12  O   UNL     1       7.681   5.348  15.381  0.00  0.00    +0.000 OA
ATOM     13  H   UNL     1       7.201   5.562  14.558  0.00  0.00    +0.000 HD
ENDBRANCH   9  12
BRANCH  10  14
ATOM     14  O   UNL     1       8.264   4.576  18.090  0.00  0.00    +0.000 OA
ATOM     15  H   UNL     1       8.714   5.436  18.202  0.00  0.00    +0.000 HD
ENDBRANCH  10  14
BRANCH  11  16
ATOM     16  O   UNL     1       5.924   4.645  19.826  0.00  0.00    +0.000 OA
ATOM     17  H   UNL     1       6.709   5.217  19.899  0.00  0.00    +0.000 HD
ENDBRANCH  11  16
BRANCH   8  18
ATOM     18  C   UNL     1       5.224   4.175  14.218  0.00  0.00    +0.000 C 
BRANCH  18  19
ATOM     19  O   UNL     1       6.348   3.381  13.821  0.00  0.00    +0.000 OA
ATOM     20  H   UNL     1       6.973   3.990  13.391  0.00  0.00    +0.000 HD
ENDBRANCH  18  19
ENDBRANCH   8  18
ENDBRANCH   5   6
ENDBRANCH   2   5
ENDBRANCH   1   2
BRANCH   1  21
ATOM     21  O   UNL     1       3.391   5.221  20.806  0.00  0.00    +0.000 OA
ATOM     22  H   UNL     1       2.957   4.477  21.253  0.00  0.00    +0.000 HD
ENDBRANCH   1  21
BRANCH   1  23
ATOM     23  C   UNL     1       1.529   6.554  19.992  0.00  0.00    +0.000 C 
BRANCH  23  34
ATOM     24  C   UNL     1       2.134   8.418  18.354  0.00  0.00    +0.000 A 
ATOM     25  C   UNL     1       2.068   9.744  17.965  0.00  0.00    +0.000 A 
ATOM     26  C   UNL     1       1.542  10.692  18.837  0.00  0.00    +0.000 A 
ATOM     27  O   UNL     1       1.554  12.013  18.316  0.00  0.00    +0.000 OA
ATOM     28  C   UNL     1       1.125  13.087  19.063  0.00  0.00    +0.000 A 
ATOM     29  O   UNL     1       1.151  14.234  18.641  0.00  0.00    +0.000 OA
ATOM     30  C   UNL     1       0.623  12.780  20.397  0.00  0.00    +0.000 A 
ATOM     31  C   UNL     1       0.583  11.540  20.895  0.00  0.00    +0.000 A 
ATOM     32  C   UNL     1       1.064  10.387  20.118  0.00  0.00    +0.000 A 
ATOM     33  C   UNL     1       1.097   9.029  20.510  0.00  0.00    +0.000 A 
ATOM     34  C   UNL     1       1.586   8.030  19.596  0.00  0.00    +0.000 A 
BRANCH  24  36
ATOM     35  C   UNL     1       4.038   7.549  17.194  0.00  0.00    +0.000 C 
ATOM     36  O   UNL     1       2.674   7.432  17.579  0.00  0.00    +0.000 OA
ENDBRANCH  24  36
BRANCH  33  37
ATOM     37  O   UNL     1       0.716   8.473  21.702  0.00  0.00    +0.000 OA
ATOM     38  C   UNL     1      -0.563   8.640  22.277  0.00  0.00    +0.000 C 
ENDBRANCH  33  37
ENDBRANCH  23  34
ENDBRANCH   1  23
TORSDOF 13
ENDMDL
MODEL 2
REMARK VINA RESULT:      -6.7      3.746     10.472
REMARK  Name = 
REMARK  17 active torsions:
REMARK  status: ('A' for Active; 'I' for Inactive)
REMARK    1  A    between atoms: C_1  and  O_2
REMARK    2  A    between atoms: O_2  and  C_3
REMARK    3  A    between atoms: C_12  and  O_13
REMARK    4  A    between atoms: O_13  and  C_14
REMARK    5  A    between atoms: C_15  and  C_16
REMARK    6  A    between atoms: C_16  and  C_17
REMARK    7  A    between atoms: C_17  and  O_18
REMARK    8  A    between atoms: C_17  and  C_19
REMARK    9  A    between atoms: C_19  and  C_20
REMARK   10  A    between atoms: C_19  and  C_21
REMARK   11  A    between atoms: C_19  and  O_22
REMARK   12  A    between atoms: O_22  and  C_23
REMARK   13  A    between atoms: C_25  and  C_26
REMARK   14  A    between atoms: C_26  and  O_27
REMARK   15  A    between atoms: C_28  and  O_29
REMARK   16  A    between atoms: C_30  and  O_31
REMARK   17  A    between atoms: C_32  and  O_33
REMARK                            x       y       z     vdW  Elec       q    Type
REMARK                         _______ _______ _______ _____ _____    ______ ____
ROOT
ATOM      1  C   UNL     1       0.122  12.874  21.036  0.00  0.00    +0.000 C 
ENDROOT
BRANCH   1   2
ATOM      2  C   UNL     1      -0.019  14.370  20.536  0.00  0.00    +0.000 C 
ATOM      3  C   UNL     1       1.336  15.072  20.762  0.00  0.00    +0.000 C 
ATOM      4  C   UNL     1      -0.383  14.460  19.045  0.00  0.00    +0.000 C 
BRANCH   2   5
ATOM      5  O   UNL     1      -1.098  14.958  21.330  0.00  0.00    +0.000 OA
BRANCH   5   6
ATOM      6  C   UNL     1      -1.948  14.084  22.078  0.00  0.00    +0.000 C 
ATOM      7  O   UNL     1      -3.207  13.977  21.430  0.00  0.00    +0.000 OA
ATOM      8  C   UNL     1      -4.079  13.017  22.022  0.00  0.00    +0.000 C 
ATOM      9  C   UNL     1      -4.451  13.453  23.434  0.00  0.00    +0.000 C 
ATOM     10  C   UNL     1      -3.170  13.682  24.250  0.00  0.00    +0.000 C 
ATOM     11  C   UNL     1      -2.153  14.593  23.529  0.00  0.00    +0.000 C 
BRANCH   9  12
ATOM     12  O   UNL     1      -5.245  12.426  24.035  0.00  0.00    +0.000 OA
ATOM     13  H   UNL     1      -6.181  12.695  23.949  0.00  0.00    +0.000 HD
ENDBRANCH   9  12
BRANCH  10  14
ATOM     14  O   UNL     1      -3.544  14.192  25.539  0.00  0.00    +0.000 OA
ATOM     15  H   UNL     1      -4.418  13.818  25.767  0.00  0.00    +0.000 HD
ENDBRANCH  10  14
BRANCH  11  16
ATOM     16  O   UNL     1      -0.936  14.594  24.303  0.00  0.00    +0.000 OA
ATOM     17  H   UNL     1      -0.383  13.844  24.019  0.00  0.00    +0.000 HD
ENDBRANCH  11  16
BRANCH   8  18
ATOM     18  C   UNL     1      -5.304  12.892  21.111  0.00  0.00    +0.000 C 
BRANCH  18  19
ATOM     19  O   UNL     1      -6.114  11.792  21.543  0.00  0.00    +0.000 OA
ATOM     20  H   UNL     1      -5.746  10.998  21.117  0.00  0.00    +0.000 HD
ENDBRANCH  18  19
ENDBRANCH   8  18
ENDBRANCH   5   6
ENDBRANCH   2   5
ENDBRANCH   1   2
BRANCH   1  21
ATOM     21  O   UNL     1       1.498  12.668  21.472  0.00  0.00    +0.000 OA
ATOM     22  H   UNL     1       2.071  13.334  21.061  0.00  0.00    +0.000 HD
ENDBRANCH   1  21
BRANCH   1  23
ATOM     23  C   UNL     1      -0.215  11.737  20.021  0.00  0.00    +0.000 C 
BRANCH  23  34
ATOM     24  C   UNL     1       0.371   9.542  21.186  0.00  0.00    +0.000 A 
ATOM     25  C   UNL     1       0.926   8.274  21.153  0.00  0.00    +0.000 A 
ATOM     26  C   UNL     1       1.677   7.880  20.051  0.00  0.00    +0.000 A 
ATOM     27  O   UNL     1       2.201   6.565  20.160  0.00  0.00    +0.000 OA
ATOM     28  C   UNL     1       3.016   6.030  19.188  0.00  0.00    +0.000 A 
ATOM     29  O   UNL     1       3.497   4.909  19.277  0.00  0.00    +0.000 OA
ATOM     30  C   UNL     1       3.269   6.875  18.028  0.00  0.00    +0.000 A 
ATOM     31  C   UNL     1       2.765   8.107  17.898  0.00  0.00    +0.000 A 
ATOM     32  C   UNL     1       1.916   8.701  18.941  0.00  0.00    +0.000 A 
ATOM     33  C   UNL     1       1.324   9.984  18.952  0.00  0.00    +0.000 A 
ATOM     34  C   UNL     1       0.499  10.385  20.061  0.00  0.00    +0.000 A 
BRANCH  24  36
ATOM     35  C   UNL     1      -0.036   9.530  23.545  0.00  0.00    +0.000 C 
ATOM     36  O   UNL     1      -0.341  10.025  22.246  0.00  0.00    +0.000 OA
ENDBRANCH  24  36
BRANCH  33  37
ATOM     37  O   UNL     1       1.418  10.979  18.014  0.00  0.00    +0.000 OA
ATOM     38  C   UNL     1       2.424  11.970  18.014  0.00  0.00    +0.000 C 
ENDBRANCH  33  37
ENDBRANCH  23  34
ENDBRANCH   1  23
TORSDOF 13
ENDMDL
MODEL 3
REMARK VINA RESULT:      -6.5      3.996      5.879
REMARK  Name = 
REMARK  17 active torsions:
REMARK  status: ('A' for Active; 'I' for Inactive)
REMARK    1  A    between atoms: C_1  and  O_2
REMARK    2  A    between atoms: O_2  and  C_3
REMARK    3  A    between atoms: C_12  and  O_13
REMARK    4  A    between atoms: O_13  and  C_14
REMARK    5  A    between atoms: C_15  and  C_16
REMARK    6  A    between atoms: C_16  and  C_17
REMARK    7  A    between atoms: C_17  and  O_18
REMARK    8  A    between atoms: C_17  and  C_19
REMARK    9  A    between atoms: C_19  and  C_20
REMARK   10  A    between atoms: C_19  and  C_21
REMARK   11  A    between atoms: C_19  and  O_22
REMARK   12  A    between atoms: O_22  and  C_23
REMARK   13  A    between atoms: C_25  and  C_26
REMARK   14  A    between atoms: C_26  and  O_27
REMARK   15  A    between atoms: C_28  and  O_29
REMARK   16  A    between atoms: C_30  and  O_31
REMARK   17  A    between atoms: C_32  and  O_33
REMARK                            x       y       z     vdW  Elec       q    Type
REMARK                         _______ _______ _______ _____ _____    ______ ____
ROOT
ATOM      1  C   UNL     1      -0.455  10.171  18.730  0.00  0.00    +0.000 C 
ENDROOT
BRANCH   1   2
ATOM      2  C   UNL     1       1.042   9.751  19.027  0.00  0.00    +0.000 C 
ATOM      3  C   UNL     1       1.965  10.728  18.269  0.00  0.00    +0.000 C 
ATOM      4  C   UNL     1       1.383   9.808  20.526  0.00  0.00    +0.000 C 
BRANCH   2   5
ATOM      5  O   UNL     1       1.173   8.372  18.557  0.00  0.00    +0.000 OA
BRANCH   5   6
ATOM      6  C   UNL     1       2.415   7.695  18.771  0.00  0.00    +0.000 C 
ATOM      7  O   UNL     1       3.039   7.443  17.520  0.00  0.00    +0.000 OA
ATOM      8  C   UNL     1       4.351   6.895  17.631  0.00  0.00    +0.000 C 
ATOM      9  C   UNL     1       4.285   5.515  18.272  0.00  0.00    +0.000 C 
ATOM     10  C   UNL     1       3.562   5.613  19.622  0.00  0.00    +0.000 C 
ATOM     11  C   UNL     1       2.211   6.356  19.528  0.00  0.00    +0.000 C 
BRANCH   9  12
ATOM     12  O   UNL     1       5.621   5.035  18.458  0.00  0.00    +0.000 OA
ATOM     13  H   UNL     1       6.200   5.549  17.862  0.00  0.00    +0.000 HD
ENDBRANCH   9  12
BRANCH  10  14
ATOM     14  O   UNL     1       3.422   4.287  20.155  0.00  0.00    +0.000 OA
ATOM     15  H   UNL     1       2.783   3.805  19.594  0.00  0.00    +0.000 HD
ENDBRANCH  10  14
BRANCH  11  16
ATOM     16  O   UNL     1       1.713   6.537  20.869  0.00  0.00    +0.000 OA
ATOM     17  H   UNL     1       1.835   7.469  21.125  0.00  0.00    +0.000 HD
ENDBRANCH  11  16
BRANCH   8  18
ATOM     18  C   UNL     1       4.948   6.855  16.221  0.00  0.00    +0.000 C 
BRANCH  18  19
ATOM     19  O   UNL     1       6.378   6.863  16.305  0.00  0.00    +0.000 OA
ATOM     20  H   UNL     1       6.664   5.943  16.172  0.00  0.00    +0.000 HD
ENDBRANCH  18  19
ENDBRANCH   8  18
ENDBRANCH   5   6
ENDBRANCH   2   5
ENDBRANCH   1   2
BRANCH   1  21
ATOM     21  O   UNL     1      -0.724   9.926  17.317  0.00  0.00    +0.000 OA
ATOM     22  H   UNL     1      -0.461   9.021  17.090  0.00  0.00    +0.000 HD
ENDBRANCH   1  21
BRANCH   1  23
ATOM     23  C   UNL     1      -0.866  11.646  19.029  0.00  0.00    +0.000 C 
BRANCH  23  34
ATOM     24  C   UNL     1      -3.374  11.962  18.667  0.00  0.00    +0.000 A 
ATOM     25  C   UNL     1      -4.645  12.173  19.174  0.00  0.00    +0.000 A 
ATOM     26  C   UNL     1      -4.804  12.511  20.514  0.00  0.00    +0.000 A 
ATOM     27  O   UNL     1      -6.157  12.717  20.892  0.00  0.00    +0.000 OA
ATOM     28  C   UNL     1      -6.498  13.114  22.165  0.00  0.00    +0.000 A 
ATOM     29  O   UNL     1      -7.655  13.321  22.502  0.00  0.00    +0.000 OA
ATOM     30  C   UNL     1      -5.395  13.265  23.106  0.00  0.00    +0.000 A 
ATOM     31  C   UNL     1      -4.117  13.053  22.774  0.00  0.00    +0.000 A 
ATOM     32  C   UNL     1      -3.737  12.656  21.410  0.00  0.00    +0.000 A 
ATOM     33  C   UNL     1      -2.439  12.409  20.908  0.00  0.00    +0.000 A 
ATOM     34  C   UNL     1      -2.263  12.005  19.538  0.00  0.00    +0.000 A 
BRANCH  24  36
ATOM     35  C   UNL     1      -4.112  10.953  16.626  0.00  0.00    +0.000 C 
ATOM     36  O   UNL     1      -3.125  11.671  17.357  0.00  0.00    +0.000 OA
ENDBRANCH  24  36
BRANCH  33  37
ATOM     37  O   UNL     1      -1.237  12.502  21.559  0.00  0.00    +0.000 OA
ATOM     38  C   UNL     1      -0.900  11.747  22.703  0.00  0.00    +0.000 C 
ENDBRANCH  33  37
ENDBRANCH  23  34
ENDBRANCH   1  23
TORSDOF 13
ENDMDL
MODEL 4
REMARK VINA RESULT:      -6.5      3.370      9.617
REMARK  Name = 
REMARK  17 active torsions:
REMARK  status: ('A' for Active; 'I' for Inactive)
REMARK    1  A    between atoms: C_1  and  O_2
REMARK    2  A    between atoms: O_2  and  C_3
REMARK    3  A    between atoms: C_12  and  O_13
REMARK    4  A    between atoms: O_13  and  C_14
REMARK    5  A    between atoms: C_15  and  C_16
REMARK    6  A    between atoms: C_16  and  C_17
REMARK    7  A    between atoms: C_17  and  O_18
REMARK    8  A    between atoms: C_17  and  C_19
REMARK    9  A    between atoms: C_19  and  C_20
REMARK   10  A    between atoms: C_19  and  C_21
REMARK   11  A    between atoms: C_19  and  O_22
REMARK   12  A    between atoms: O_22  and  C_23
REMARK   13  A    between atoms: C_25  and  C_26
REMARK   14  A    between atoms: C_26  and  O_27
REMARK   15  A    between atoms: C_28  and  O_29
REMARK   16  A    between atoms: C_30  and  O_31
REMARK   17  A    between atoms: C_32  and  O_33
REMARK                            x       y       z     vdW  Elec       q    Type
REMARK                         _______ _______ _______ _____ _____    ______ ____
ROOT
ATOM      1  C   UNL     1       1.154  10.276  18.349  0.00  0.00    +0.000 C 
ENDROOT
BRANCH   1   2
ATOM      2  C   UNL     1       0.402  11.392  19.182  0.00  0.00    +0.000 C 
ATOM      3  C   UNL     1       1.185  11.612  20.493  0.00  0.00    +0.000 C 
ATOM      4  C   UNL     1       0.312  12.730  18.427  0.00  0.00    +0.000 C 
BRANCH   2   5
ATOM      5  O   UNL     1      -0.950  10.880  19.411  0.00  0.00    +0.000 OA
BRANCH   5   6
ATOM      6  C   UNL     1      -2.060  11.667  18.971  0.00  0.00    +0.000 C 
ATOM      7  O   UNL     1      -2.911  11.944  20.073  0.00  0.00    +0.000 OA
ATOM      8  C   UNL     1      -3.976  12.841  19.766  0.00  0.00    +0.000 C 
ATOM      9  C   UNL     1      -4.917  12.205  18.751  0.00  0.00    +0.000 C 
ATOM     10  C   UNL     1      -4.117  11.779  17.512  0.00  0.00    +0.000 C 
ATOM     11  C   UNL     1      -2.866  10.943  17.861  0.00  0.00    +0.000 C 
BRANCH   9  12
ATOM     12  O   UNL     1      -5.917  13.164  18.392  0.00  0.00    +0.000 OA
ATOM     13  H   UNL     1      -5.850  13.305  17.428  0.00  0.00    +0.000 HD
ENDBRANCH   9  12
BRANCH  10  14
ATOM     14  O   UNL     1      -5.005  11.090  16.618  0.00  0.00    +0.000 OA
ATOM     15  H   UNL     1      -5.151  11.664  15.840  0.00  0.00    +0.000 HD
ENDBRANCH  10  14
BRANCH  11  16
ATOM     16  O   UNL     1      -2.111  10.753  16.648  0.00  0.00    +0.000 OA
ATOM     17  H   UNL     1      -1.320  10.222  16.851  0.00  0.00    +0.000 HD
ENDBRANCH  11  16
BRANCH   8  18
ATOM     18  C   UNL     1      -4.682  13.177  21.083  0.00  0.00    +0.000 C 
BRANCH  18  19
ATOM     19  O   UNL     1      -4.255  12.266  22.103  0.00  0.00    +0.000 OA
ATOM     20  H   UNL     1      -4.465  12.690  22.953  0.00  0.00    +0.000 HD
ENDBRANCH  18  19
ENDBRANCH   8  18
ENDBRANCH   5   6
ENDBRANCH   2   5
ENDBRANCH   1   2
BRANCH   1  21
ATOM     21  O   UNL     1       0.162   9.321  17.869  0.00  0.00    +0.000 OA
ATOM     22  H   UNL     1      -0.102   8.735  18.596  0.00  0.00    +0.000 HD
ENDBRANCH   1  21
BRANCH   1  23
ATOM     23  C   UNL     1       2.268   9.459  19.075  0.00  0.00    +0.000 C 
BRANCH  23  34
ATOM     24  C   UNL     1       1.524   7.483  20.512  0.00  0.00    +0.000 A 
ATOM     25  C   UNL     1       1.300   6.126  20.667  0.00  0.00    +0.000 A 
ATOM     26  C   UNL     1       1.750   5.239  19.694  0.00  0.00    +0.000 A 
ATOM     27  O   UNL     1       1.470   3.879  19.991  0.00  0.00    +0.000 OA
ATOM     28  C   UNL     1       1.892   2.859  19.169  0.00  0.00    +0.000 A 
ATOM     29  O   UNL     1       1.683   1.681  19.421  0.00  0.00    +0.000 OA
ATOM     30  C   UNL     1       2.603   3.262  17.962  0.00  0.00    +0.000 A 
ATOM     31  C   UNL     1       2.856   4.538  17.655  0.00  0.00    +0.000 A 
ATOM     32  C   UNL     1       2.434   5.636  18.539  0.00  0.00    +0.000 A 
ATOM     33  C   UNL     1       2.637   7.023  18.357  0.00  0.00    +0.000 A 
ATOM     34  C   UNL     1       2.128   7.956  19.327  0.00  0.00    +0.000 A 
BRANCH  24  36
ATOM     35  C   UNL     1      -0.219   8.508  21.792  0.00  0.00    +0.000 C 
ATOM     36  O   UNL     1       1.156   8.417  21.437  0.00  0.00    +0.000 OA
ENDBRANCH  24  36
BRANCH  33  37
ATOM     37  O   UNL     1       3.289   7.667  17.338  0.00  0.00    +0.000 OA
ATOM     38  C   UNL     1       4.589   7.336  16.901  0.00  0.00    +0.000 C 
ENDBRANCH  33  37
ENDBRANCH  23  34
ENDBRANCH   1  23
TORSDOF 13
ENDMDL
MODEL 5
REMARK VINA RESULT:      -6.5      3.140      5.636
REMARK  Name = 
REMARK  17 active torsions:
REMARK  status: ('A' for Active; 'I' for Inactive)
REMARK    1  A    between atoms: C_1  and  O_2
REMARK    2  A    between atoms: O_2  and  C_3
REMARK    3  A    between atoms: C_12  and  O_13
REMARK    4  A    between atoms: O_13  and  C_14
REMARK    5  A    between atoms: C_15  and  C_16
REMARK    6  A    between atoms: C_16  and  C_17
REMARK    7  A    between atoms: C_17  and  O_18
REMARK    8  A    between atoms: C_17  and  C_19
REMARK    9  A    between atoms: C_19  and  C_20
REMARK   10  A    between atoms: C_19  and  C_21
REMARK   11  A    between atoms: C_19  and  O_22
REMARK   12  A    between atoms: O_22  and  C_23
REMARK   13  A    between atoms: C_25  and  C_26
REMARK   14  A    between atoms: C_26  and  O_27
REMARK   15  A    between atoms: C_28  and  O_29
REMARK   16  A    between atoms: C_30  and  O_31
REMARK   17  A    between atoms: C_32  and  O_33
REMARK                            x       y       z     vdW  Elec       q    Type
REMARK                         _______ _______ _______ _____ _____    ______ ____
ROOT
ATOM      1  C   UNL     1       0.640   9.736  19.919  0.00  0.00    +0.000 C 
ENDROOT
BRANCH   1   2
ATOM      2  C   UNL     1       1.531   9.472  18.637  0.00  0.00    +0.000 C 
ATOM      3  C   UNL     1       0.615   8.905  17.534  0.00  0.00    +0.000 C 
ATOM      4  C   UNL     1       2.205  10.753  18.115  0.00  0.00    +0.000 C 
BRANCH   2   5
ATOM      5  O   UNL     1       2.564   8.524  19.055  0.00  0.00    +0.000 OA
BRANCH   5   6
ATOM      6  C   UNL     1       2.443   7.160  18.643  0.00  0.00    +0.000 C 
ATOM      7  O   UNL     1       2.133   6.351  19.768  0.00  0.00    +0.000 OA
ATOM      8  C   UNL     1       1.853   4.992  19.440  0.00  0.00    +0.000 C 
ATOM      9  C   UNL     1       3.099   4.328  18.868  0.00  0.00    +0.000 C 
ATOM     10  C   UNL     1       3.605   5.142  17.668  0.00  0.00    +0.000 C 
ATOM     11  C   UNL     1       3.749   6.647  17.980  0.00  0.00    +0.000 C 
BRANCH   9  12
ATOM     12  O   UNL     1       2.761   2.998  18.459  0.00  0.00    +0.000 OA
ATOM     13  H   UNL     1       3.150   2.859  17.574  0.00  0.00    +0.000 HD
ENDBRANCH   9  12
BRANCH  10  14
ATOM     14  O   UNL     1       4.834   4.556  17.213  0.00  0.00    +0.000 OA
ATOM     15  H   UNL     1       4.618   3.909  16.514  0.00  0.00    +0.000 HD
ENDBRANCH  10  14
BRANCH  11  16
ATOM     16  O   UNL     1       4.058   7.326  16.746  0.00  0.00    +0.000 OA
ATOM     17  H   UNL     1       3.266   7.806  16.445  0.00  0.00    +0.000 HD
ENDBRANCH  11  16
BRANCH   8  18
ATOM     18  C   UNL     1       1.364   4.306  20.719  0.00  0.00    +0.000 C 
BRANCH  18  19
ATOM     19  O   UNL     1       0.489   3.223  20.380  0.00  0.00    +0.000 OA
ATOM     20  H   UNL     1       0.427   2.664  21.174  0.00  0.00    +0.000 HD
ENDBRANCH  18  19
ENDBRANCH   8  18
ENDBRANCH   5   6
ENDBRANCH   2   5
ENDBRANCH   1   2
BRANCH   1  21
ATOM     21  O   UNL     1      -0.738   9.387  19.593  0.00  0.00    +0.000 OA
ATOM     22  H   UNL     1      -0.770   8.481  19.249  0.00  0.00    +0.000 HD
ENDBRANCH   1  21
BRANCH   1  23
ATOM     23  C   UNL     1       0.624  11.183  20.504  0.00  0.00    +0.000 C 
BRANCH  23  34
ATOM     24  C   UNL     1      -1.377  12.688  20.000  0.00  0.00    +0.000 A 
ATOM     25  C   UNL     1      -2.613  13.203  20.352  0.00  0.00    +0.000 A 
ATOM     26  C   UNL     1      -3.112  12.981  21.631  0.00  0.00    +0.000 A 
ATOM     27  O   UNL     1      -4.378  13.582  21.860  0.00  0.00    +0.000 OA
ATOM     28  C   UNL     1      -4.997  13.515  23.087  0.00  0.00    +0.000 A 
ATOM     29  O   UNL     1      -6.075  14.048  23.311  0.00  0.00    +0.000 OA
ATOM     30  C   UNL     1      -4.297  12.757  24.117  0.00  0.00    +0.000 A 
ATOM     31  C   UNL     1      -3.116  12.166  23.913  0.00  0.00    +0.000 A 
ATOM     32  C   UNL     1      -2.431  12.253  22.615  0.00  0.00    +0.000 A 
ATOM     33  C   UNL     1      -1.183  11.695  22.252  0.00  0.00    +0.000 A 
ATOM     34  C   UNL     1      -0.680  11.869  20.915  0.00  0.00    +0.000 A 
BRANCH  24  36
ATOM     35  C   UNL     1      -0.161  14.146  18.543  0.00  0.00    +0.000 C 
ATOM     36  O   UNL     1      -0.794  12.895  18.783  0.00  0.00    +0.000 OA
ENDBRANCH  24  36
BRANCH  33  37
ATOM     37  O   UNL     1      -0.314  10.968  23.023  0.00  0.00    +0.000 OA
ATOM     38  C   UNL     1      -0.494   9.605  23.342  0.00  0.00    +0.000 C 
ENDBRANCH  33  37
ENDBRANCH  23  34
ENDBRANCH   1  23
TORSDOF 13
ENDMDL
MODEL 6
REMARK VINA RESULT:      -6.4      2.531      4.710
REMARK  Name = 
REMARK  17 active torsions:
REMARK  status: ('A' for Active; 'I' for Inactive)
REMARK    1  A    between atoms: C_1  and  O_2
REMARK    2  A    between atoms: O_2  and  C_3
REMARK    3  A    between atoms: C_12  and  O_13
REMARK    4  A    between atoms: O_13  and  C_14
REMARK    5  A    between atoms: C_15  and  C_16
REMARK    6  A    between atoms: C_16  and  C_17
REMARK    7  A    between atoms: C_17  and  O_18
REMARK    8  A    between atoms: C_17  and  C_19
REMARK    9  A    between atoms: C_19  and  C_20
REMARK   10  A    between atoms: C_19  and  C_21
REMARK   11  A    between atoms: C_19  and  O_22
REMARK   12  A    between atoms: O_22  and  C_23
REMARK   13  A    between atoms: C_25  and  C_26
REMARK   14  A    between atoms: C_26  and  O_27
REMARK   15  A    between atoms: C_28  and  O_29
REMARK   16  A    between atoms: C_30  and  O_31
REMARK   17  A    between atoms: C_32  and  O_33
REMARK                            x       y       z     vdW  Elec       q    Type
REMARK                         _______ _______ _______ _____ _____    ______ ____
ROOT
ATOM      1  C   UNL     1       1.387   9.076  19.962  0.00  0.00    +0.000 C 
ENDROOT
BRANCH   1   2
ATOM      2  C   UNL     1       1.950   8.675  18.538  0.00  0.00    +0.000 C 
ATOM      3  C   UNL     1       0.766   8.172  17.687  0.00  0.00    +0.000 C 
ATOM      4  C   UNL     1       2.616   9.858  17.814  0.00  0.00    +0.000 C 
BRANCH   2   5
ATOM      5  O   UNL     1       2.952   7.637  18.779  0.00  0.00    +0.000 OA
BRANCH   5   6
ATOM      6  C   UNL     1       2.716   6.327  18.254  0.00  0.00    +0.000 C 
ATOM      7  O   UNL     1       2.145   5.507  19.263  0.00  0.00    +0.000 OA
ATOM      8  C   UNL     1       1.743   4.221  18.799  0.00  0.00    +0.000 C 
ATOM      9  C   UNL     1       2.962   3.424  18.352  0.00  0.00    +0.000 C 
ATOM     10  C   UNL     1       3.736   4.226  17.296  0.00  0.00    +0.000 C 
ATOM     11  C   UNL     1       4.026   5.677  17.737  0.00  0.00    +0.000 C 
BRANCH   9  12
ATOM     12  O   UNL     1       2.517   2.179  17.804  0.00  0.00    +0.000 OA
ATOM     13  H   UNL     1       2.319   2.332  16.859  0.00  0.00    +0.000 HD
ENDBRANCH   9  12
BRANCH  10  14
ATOM     14  O   UNL     1       4.932   3.502  16.969  0.00  0.00    +0.000 OA
ATOM     15  H   UNL     1       5.536   4.115  16.506  0.00  0.00    +0.000 HD
ENDBRANCH  10  14
BRANCH  11  16
ATOM     16  O   UNL     1       4.595   6.374  16.610  0.00  0.00    +0.000 OA
ATOM     17  H   UNL     1       3.873   6.771  16.090  0.00  0.00    +0.000 HD
ENDBRANCH  11  16
BRANCH   8  18
ATOM     18  C   UNL     1       0.990   3.538  19.945  0.00  0.00    +0.000 C 
BRANCH  18  19
ATOM     19  O   UNL     1       0.054   2.595  19.411  0.00  0.00    +0.000 OA
ATOM     20  H   UNL     1       0.224   1.753  19.869  0.00  0.00    +0.000 HD
ENDBRANCH  18  19
ENDBRANCH   8  18
ENDBRANCH   5   6
ENDBRANCH   2   5
ENDBRANCH   1   2
BRANCH   1  21
ATOM     21  O   UNL     1       1.737   8.018  20.903  0.00  0.00    +0.000 OA
ATOM     22  H   UNL     1       1.461   8.274  21.797  0.00  0.00    +0.000 HD
ENDBRANCH   1  21
BRANCH   1  23
ATOM     23  C   UNL     1      -0.149   9.319  20.091  0.00  0.00    +0.000 C 
BRANCH  23  34
ATOM     24  C   UNL     1      -1.403  11.416  19.350  0.00  0.00    +0.000 A 
ATOM     25  C   UNL     1      -2.017  12.619  19.652  0.00  0.00    +0.000 A 
ATOM     26  C   UNL     1      -1.882  13.160  20.927  0.00  0.00    +0.000 A 
ATOM     27  O   UNL     1      -2.547  14.405  21.090  0.00  0.00    +0.000 OA
ATOM     28  C   UNL     1      -2.473  15.113  22.268  0.00  0.00    +0.000 A 
ATOM     29  O   UNL     1      -3.017  16.198  22.418  0.00  0.00    +0.000 OA
ATOM     30  C   UNL     1      -1.712  14.489  23.343  0.00  0.00    +0.000 A 
ATOM     31  C   UNL     1      -1.100  13.308  23.215  0.00  0.00    +0.000 A 
ATOM     32  C   UNL     1      -1.147  12.554  21.953  0.00  0.00    +0.000 A 
ATOM     33  C   UNL     1      -0.545  11.308  21.662  0.00  0.00    +0.000 A 
ATOM     34  C   UNL     1      -0.723  10.710  20.366  0.00  0.00    +0.000 A 
BRANCH  24  36
ATOM     35  C   UNL     1      -2.411  11.313  17.181  0.00  0.00    +0.000 C 
ATOM     36  O   UNL     1      -1.448  10.838  18.114  0.00  0.00    +0.000 OA
ENDBRANCH  24  36
BRANCH  33  37
ATOM     37  O   UNL     1       0.237  10.526  22.471  0.00  0.00    +0.000 OA
ATOM     38  C   UNL     1      -0.275   9.619  23.424  0.00  0.00    +0.000 C 
ENDBRANCH  33  37
ENDBRANCH  23  34
ENDBRANCH   1  23
TORSDOF 13
ENDMDL
MODEL 7
REMARK VINA RESULT:      -6.4      1.709      7.606
REMARK  Name = 
REMARK  17 active torsions:
REMARK  status: ('A' for Active; 'I' for Inactive)
REMARK    1  A    between atoms: C_1  and  O_2
REMARK    2  A    between atoms: O_2  and  C_3
REMARK    3  A    between atoms: C_12  and  O_13
REMARK    4  A    between atoms: O_13  and  C_14
REMARK    5  A    between atoms: C_15  and  C_16
REMARK    6  A    between atoms: C_16  and  C_17
REMARK    7  A    between atoms: C_17  and  O_18
REMARK    8  A    between atoms: C_17  and  C_19
REMARK    9  A    between atoms: C_19  and  C_20
REMARK   10  A    between atoms: C_19  and  C_21
REMARK   11  A    between atoms: C_19  and  O_22
REMARK   12  A    between atoms: O_22  and  C_23
REMARK   13  A    between atoms: C_25  and  C_26
REMARK   14  A    between atoms: C_26  and  O_27
REMARK   15  A    between atoms: C_28  and  O_29
REMARK   16  A    between atoms: C_30  and  O_31
REMARK   17  A    between atoms: C_32  and  O_33
REMARK                            x       y       z     vdW  Elec       q    Type
REMARK                         _______ _______ _______ _____ _____    ______ ____
ROOT
ATOM      1  C   UNL     1       3.134   3.363  19.603  0.00  0.00    +0.000 C 
ENDROOT
BRANCH   1   2
ATOM      2  C   UNL     1       2.249   4.597  20.054  0.00  0.00    +0.000 C 
ATOM      3  C   UNL     1       0.806   4.092  20.261  0.00  0.00    +0.000 C 
ATOM      4  C   UNL     1       2.747   5.231  21.364  0.00  0.00    +0.000 C 
BRANCH   2   5
ATOM      5  O   UNL     1       2.353   5.580  18.976  0.00  0.00    +0.000 OA
BRANCH   5   6
ATOM      6  C   UNL     1       2.362   6.969  19.319  0.00  0.00    +0.000 C 
ATOM      7  O   UNL     1       1.277   7.248  20.192  0.00  0.00    +0.000 OA
ATOM      8  C   UNL     1       1.278   8.578  20.705  0.00  0.00    +0.000 C 
ATOM      9  C   UNL     1       1.076   9.574  19.569  0.00  0.00    +0.000 C 
ATOM     10  C   UNL     1       2.148   9.345  18.494  0.00  0.00    +0.000 C 
ATOM     11  C   UNL     1       2.258   7.868  18.059  0.00  0.00    +0.000 C 
BRANCH   9  12
ATOM     12  O   UNL     1       1.179  10.899  20.101  0.00  0.00    +0.000 OA
ATOM     13  H   UNL     1       1.722  11.419  19.477  0.00  0.00    +0.000 HD
ENDBRANCH   9  12
BRANCH  10  14
ATOM     14  O   UNL     1       1.873  10.223  17.392  0.00  0.00    +0.000 OA
ATOM     15  H   UNL     1       0.982  10.008  17.053  0.00  0.00    +0.000 HD
ENDBRANCH  10  14
BRANCH  11  16
ATOM     16  O   UNL     1       3.400   7.749  17.187  0.00  0.00    +0.000 OA
ATOM     17  H   UNL     1       4.091   7.236  17.642  0.00  0.00    +0.000 HD
ENDBRANCH  11  16
BRANCH   8  18
ATOM     18  C   UNL     1       0.168   8.662  21.756  0.00  0.00    +0.000 C 
BRANCH  18  19
ATOM     19  O   UNL     1       0.515   9.639  22.745  0.00  0.00    +0.000 OA
ATOM     20  H   UNL     1       0.023   9.400  23.550  0.00  0.00    +0.000 HD
ENDBRANCH  18  19
ENDBRANCH   8  18
ENDBRANCH   5   6
ENDBRANCH   2   5
ENDBRANCH   1   2
BRANCH   1  21
ATOM     21  O   UNL     1       2.842   2.246  20.493  0.00  0.00    +0.000 OA
ATOM     22  H   UNL     1       2.027   1.805  20.204  0.00  0.00    +0.000 HD
ENDBRANCH   1  21
BRANCH   1  23
ATOM     23  C   UNL     1       4.683   3.550  19.591  0.00  0.00    +0.000 C 
BRANCH  23  34
ATOM     24  C   UNL     1       6.485   5.003  18.513  0.00  0.00    +0.000 A 
ATOM     25  C   UNL     1       7.213   5.387  17.400  0.00  0.00    +0.000 A 
ATOM     26  C   UNL     1       6.832   4.938  16.140  0.00  0.00    +0.000 A 
ATOM     27  O   UNL     1       7.655   5.425  15.089  0.00  0.00    +0.000 OA
ATOM     28  C   UNL     1       7.391   5.130  13.771  0.00  0.00    +0.000 A 
ATOM     29  O   UNL     1       8.073   5.561  12.852  0.00  0.00    +0.000 OA
ATOM     30  C   UNL     1       6.249   4.259  13.525  0.00  0.00    +0.000 A 
ATOM     31  C   UNL     1       5.477   3.773  14.503  0.00  0.00    +0.000 A 
ATOM     32  C   UNL     1       5.731   4.103  15.914  0.00  0.00    +0.000 A 
ATOM     33  C   UNL     1       5.002   3.679  17.049  0.00  0.00    +0.000 A 
ATOM     34  C   UNL     1       5.419   4.090  18.364  0.00  0.00    +0.000 A 
BRANCH  24  36
ATOM     35  C   UNL     1       8.122   5.664  20.129  0.00  0.00    +0.000 C 
ATOM     36  O   UNL     1       6.763   5.432  19.779  0.00  0.00    +0.000 OA
ENDBRANCH  24  36
BRANCH  33  37
ATOM     37  O   UNL     1       3.885   2.889  17.103  0.00  0.00    +0.000 OA
ATOM     38  C   UNL     1       2.621   3.275  16.606  0.00  0.00    +0.000 C 
ENDBRANCH  33  37
ENDBRANCH  23  34
ENDBRANCH   1  23
TORSDOF 13
ENDMDL
MODEL 8
REMARK VINA RESULT:      -6.4      2.948      5.162
REMARK  Name = 
REMARK  17 active torsions:
REMARK  status: ('A' for Active; 'I' for Inactive)
REMARK    1  A    between atoms: C_1  and  O_2
REMARK    2  A    between atoms: O_2  and  C_3
REMARK    3  A    between atoms: C_12  and  O_13
REMARK    4  A    between atoms: O_13  and  C_14
REMARK    5  A    between atoms: C_15  and  C_16
REMARK    6  A    between atoms: C_16  and  C_17
REMARK    7  A    between atoms: C_17  and  O_18
REMARK    8  A    between atoms: C_17  and  C_19
REMARK    9  A    between atoms: C_19  and  C_20
REMARK   10  A    between atoms: C_19  and  C_21
REMARK   11  A    between atoms: C_19  and  O_22
REMARK   12  A    between atoms: O_22  and  C_23
REMARK   13  A    between atoms: C_25  and  C_26
REMARK   14  A    between atoms: C_26  and  O_27
REMARK   15  A    between atoms: C_28  and  O_29
REMARK   16  A    between atoms: C_30  and  O_31
REMARK   17  A    between atoms: C_32  and  O_33
REMARK                            x       y       z     vdW  Elec       q    Type
REMARK                         _______ _______ _______ _____ _____    ______ ____
ROOT
ATOM      1  C   UNL     1       0.950   9.708  20.013  0.00  0.00    +0.000 C 
ENDROOT
BRANCH   1   2
ATOM      2  C   UNL     1       1.061   9.552  18.441  0.00  0.00    +0.000 C 
ATOM      3  C   UNL     1      -0.247  10.084  17.820  0.00  0.00    +0.000 C 
ATOM      4  C   UNL     1       2.246  10.338  17.854  0.00  0.00    +0.000 C 
BRANCH   2   5
ATOM      5  O   UNL     1       1.264   8.125  18.192  0.00  0.00    +0.000 OA
BRANCH   5   6
ATOM      6  C   UNL     1       2.528   7.547  18.533  0.00  0.00    +0.000 C 
ATOM      7  O   UNL     1       3.235   7.220  17.346  0.00  0.00    +0.000 OA
ATOM      8  C   UNL     1       4.567   6.766  17.576  0.00  0.00    +0.000 C 
ATOM      9  C   UNL     1       4.542   5.448  18.340  0.00  0.00    +0.000 C 
ATOM     10  C   UNL     1       3.738   5.625  19.636  0.00  0.00    +0.000 C 
ATOM     11  C   UNL     1       2.355   6.273  19.402  0.00  0.00    +0.000 C 
BRANCH   9  12
ATOM     12  O   UNL     1       5.889   5.069  18.640  0.00  0.00    +0.000 OA
ATOM     13  H   UNL     1       6.422   5.887  18.663  0.00  0.00    +0.000 HD
ENDBRANCH   9  12
BRANCH  10  14
ATOM     14  O   UNL     1       3.641   4.348  20.284  0.00  0.00    +0.000 OA
ATOM     15  H   UNL     1       4.536   3.955  20.306  0.00  0.00    +0.000 HD
ENDBRANCH  10  14
BRANCH  11  16
ATOM     16  O   UNL     1       1.772   6.546  20.692  0.00  0.00    +0.000 OA
ATOM     17  H   UNL     1       0.820   6.345  20.655  0.00  0.00    +0.000 HD
ENDBRANCH  11  16
BRANCH   8  18
ATOM     18  C   UNL     1       5.245   6.633  16.210  0.00  0.00    +0.000 C 
BRANCH  18  19
ATOM     19  O   UNL     1       6.667   6.682  16.372  0.00  0.00    +0.000 OA
ATOM     20  H   UNL     1       6.937   5.799  16.681  0.00  0.00    +0.000 HD
ENDBRANCH  18  19
ENDBRANCH   8  18
ENDBRANCH   5   6
ENDBRANCH   2   5
ENDBRANCH   1   2
BRANCH   1  21
ATOM     21  O   UNL     1      -0.275   9.049  20.449  0.00  0.00    +0.000 OA
ATOM     22  H   UNL     1      -0.102   8.547  21.261  0.00  0.00    +0.000 HD
ENDBRANCH   1  21
BRANCH   1  23
ATOM     23  C   UNL     1       0.929  11.155  20.596  0.00  0.00    +0.000 C 
BRANCH  23  34
ATOM     24  C   UNL     1      -1.007  12.733  20.062  0.00  0.00    +0.000 A 
ATOM     25  C   UNL     1      -2.249  13.259  20.371  0.00  0.00    +0.000 A 
ATOM     26  C   UNL     1      -2.824  12.985  21.607  0.00  0.00    +0.000 A 
ATOM     27  O   UNL     1      -4.088  13.605  21.797  0.00  0.00    +0.000 OA
ATOM     28  C   UNL     1      -4.777  13.492  22.983  0.00  0.00    +0.000 A 
ATOM     29  O   UNL     1      -5.854  14.039  23.174  0.00  0.00    +0.000 OA
ATOM     30  C   UNL     1      -4.153  12.666  24.009  0.00  0.00    +0.000 A 
ATOM     31  C   UNL     1      -2.975  12.056  23.840  0.00  0.00    +0.000 A 
ATOM     32  C   UNL     1      -2.216  12.192  22.588  0.00  0.00    +0.000 A 
ATOM     33  C   UNL     1      -0.962  11.623  22.267  0.00  0.00    +0.000 A 
ATOM     34  C   UNL     1      -0.381  11.852  20.970  0.00  0.00    +0.000 A 
BRANCH  24  36
ATOM     35  C   UNL     1       0.043  14.325  18.616  0.00  0.00    +0.000 C 
ATOM     36  O   UNL     1      -0.352  12.986  18.891  0.00  0.00    +0.000 OA
ENDBRANCH  24  36
BRANCH  33  37
ATOM     37  O   UNL     1      -0.154  10.837  23.045  0.00  0.00    +0.000 OA
ATOM     38  C   UNL     1      -0.482   9.524  23.448  0.00  0.00    +0.000 C 
ENDBRANCH  33  37
ENDBRANCH  23  34
ENDBRANCH   1  23
TORSDOF 13
ENDMDL
MODEL 9
REMARK VINA RESULT:      -6.4      1.229      1.235
REMARK  Name = 
REMARK  17 active torsions:
REMARK  status: ('A' for Active; 'I' for Inactive)
REMARK    1  A    between atoms: C_1  and  O_2
REMARK    2  A    between atoms: O_2  and  C_3
REMARK    3  A    between atoms: C_12  and  O_13
REMARK    4  A    between atoms: O_13  and  C_14
REMARK    5  A    between atoms: C_15  and  C_16
REMARK    6  A    between atoms: C_16  and  C_17
REMARK    7  A    between atoms: C_17  and  O_18
REMARK    8  A    between atoms: C_17  and  C_19
REMARK    9  A    between atoms: C_19  and  C_20
REMARK   10  A    between atoms: C_19  and  C_21
REMARK   11  A    between atoms: C_19  and  O_22
REMARK   12  A    between atoms: O_22  and  C_23
REMARK   13  A    between atoms: C_25  and  C_26
REMARK   14  A    between atoms: C_26  and  O_27
REMARK   15  A    between atoms: C_28  and  O_29
REMARK   16  A    between atoms: C_30  and  O_31
REMARK   17  A    between atoms: C_32  and  O_33
REMARK                            x       y       z     vdW  Elec       q    Type
REMARK                         _______ _______ _______ _____ _____    ______ ____
ROOT
ATOM      1  C   UNL     1       2.189   5.013  20.185  0.00  0.00    +0.000 C 
ENDROOT
BRANCH   1   2
ATOM      2  C   UNL     1       2.246   3.972  18.992  0.00  0.00    +0.000 C 
ATOM      3  C   UNL     1       1.296   2.807  19.336  0.00  0.00    +0.000 C 
ATOM      4  C   UNL     1       1.812   4.590  17.652  0.00  0.00    +0.000 C 
BRANCH   2   5
ATOM      5  O   UNL     1       3.644   3.550  18.895  0.00  0.00    +0.000 OA
BRANCH   5   6
ATOM      6  C   UNL     1       4.532   4.320  18.080  0.00  0.00    +0.000 C 
ATOM      7  O   UNL     1       4.569   3.773  16.771  0.00  0.00    +0.000 OA
ATOM      8  C   UNL     1       5.320   4.552  15.842  0.00  0.00    +0.000 C 
ATOM      9  C   UNL     1       6.787   4.577  16.250  0.00  0.00    +0.000 C 
ATOM     10  C   UNL     1       6.907   5.086  17.694  0.00  0.00    +0.000 C 
ATOM     11  C   UNL     1       5.966   4.348  18.672  0.00  0.00    +0.000 C 
BRANCH   9  12
ATOM     12  O   UNL     1       7.495   5.443  15.357  0.00  0.00    +0.000 OA
ATOM     13  H   UNL     1       6.828   5.975  14.881  0.00  0.00    +0.000 HD
ENDBRANCH   9  12
BRANCH  10  14
ATOM     14  O   UNL     1       8.284   5.001  18.088  0.00  0.00    +0.000 OA
ATOM     15  H   UNL     1       8.770   5.720  17.639  0.00  0.00    +0.000 HD
ENDBRANCH  10  14
BRANCH  11  16
ATOM     16  O   UNL     1       6.038   5.021  19.945  0.00  0.00    +0.000 OA
ATOM     17  H   UNL     1       5.991   5.982  19.795  0.00  0.00    +0.000 HD
ENDBRANCH  11  16
BRANCH   8  18
ATOM     18  C   UNL     1       5.111   3.935  14.456  0.00  0.00    +0.000 C 
BRANCH  18  19
ATOM     19  O   UNL     1       6.340   3.360  13.997  0.00  0.00    +0.000 OA
ATOM     20  H   UNL     1       6.116   2.824  13.216  0.00  0.00    +0.000 HD
ENDBRANCH  18  19
ENDBRANCH   8  18
ENDBRANCH   5   6
ENDBRANCH   2   5
ENDBRANCH   1   2
BRANCH   1  21
ATOM     21  O   UNL     1       0.788   5.299  20.471  0.00  0.00    +0.000 OA
ATOM     22  H   UNL     1       0.624   6.250  20.372  0.00  0.00    +0.000 HD
ENDBRANCH   1  21
BRANCH   1  23
ATOM     23  C   UNL     1       2.908   6.383  19.986  0.00  0.00    +0.000 C 
BRANCH  23  34
ATOM     24  C   UNL     1       2.293   7.970  18.083  0.00  0.00    +0.000 A 
ATOM     25  C   UNL     1       1.526   9.008  17.583  0.00  0.00    +0.000 A 
ATOM     26  C   UNL     1       0.709   9.736  18.443  0.00  0.00    +0.000 A 
ATOM     27  O   UNL     1      -0.006  10.781  17.801  0.00  0.00    +0.000 OA
ATOM     28  C   UNL     1      -0.817  11.640  18.506  0.00  0.00    +0.000 A 
ATOM     29  O   UNL     1      -1.420  12.561  17.975  0.00  0.00    +0.000 OA
ATOM     30  C   UNL     1      -0.930  11.384  19.937  0.00  0.00    +0.000 A 
ATOM     31  C   UNL     1      -0.283  10.390  20.555  0.00  0.00    +0.000 A 
ATOM     32  C   UNL     1       0.609   9.483  19.817  0.00  0.00    +0.000 A 
ATOM     33  C   UNL     1       1.364   8.403  20.329  0.00  0.00    +0.000 A 
ATOM     34  C   UNL     1       2.170   7.607  19.441  0.00  0.00    +0.000 A 
BRANCH  24  36
ATOM     35  C   UNL     1       4.428   7.789  17.016  0.00  0.00    +0.000 C 
ATOM     36  O   UNL     1       3.153   7.235  17.319  0.00  0.00    +0.000 OA
ENDBRANCH  24  36
BRANCH  33  37
ATOM     37  O   UNL     1       1.462   7.964  21.623  0.00  0.00    +0.000 OA
ATOM     38  C   UNL     1       1.616   8.818  22.736  0.00  0.00    +0.000 C 
ENDBRANCH  33  37
ENDBRANCH  23  34
ENDBRANCH   1  23
TORSDOF 13
ENDMDL
