MODEL 1
REMARK VINA RESULT:      -7.0      0.000      0.000
REMARK  Name = 
REMARK  6 active torsions:
REMARK  status: ('A' for Active; 'I' for Inactive)
REMARK    1  A    between atoms: C_3  and  C_4
REMARK    2  A    between atoms: C_4  and  C_5
REMARK    3  A    between atoms: C_5  and  O_6
REMARK    4  A    between atoms: C_15  and  C_16
REMARK    5  A    between atoms: C_15  and  C_17
REMARK    6  A    between atoms: C_21  and  C_22
REMARK                            x       y       z     vdW  Elec       q    Type
REMARK                         _______ _______ _______ _____ _____    ______ ____
ROOT
ATOM      1  C   UNL     1       1.288   8.966  21.925  0.00  0.00    +0.000 C 
ATOM      2  C   UNL     1       1.255   8.598  20.636  0.00  0.00    +0.000 C 
ATOM      3  C   UNL     1       1.051   9.560  19.552  0.00  0.00    +0.000 C 
ATOM      4  C   UNL     1       1.517   9.282  18.325  0.00  0.00    +0.000 C 
ATOM      5  C   UNL     1       2.397   8.105  18.067  0.00  0.00    +0.000 C 
ATOM      6  O   UNL     1       2.977   8.043  16.983  0.00  0.00    +0.000 OA
ATOM      7  C   UNL     1       2.588   7.059  19.182  0.00  0.00    +0.000 C 
ATOM      8  C   UNL     1       1.369   7.148  20.130  0.00  0.00    +0.000 C 
ATOM      9  C   UNL     1       1.444   6.081  21.219  0.00  0.00    +0.000 C 
ATOM     10  C   UNL     1       1.408   4.676  20.587  0.00  0.00    +0.000 C 
ATOM     11  C   UNL     1       2.616   4.505  19.671  0.00  0.00    +0.000 C 
ATOM     12  C   UNL     1       3.001   3.058  19.099  0.00  0.00    +0.000 C 
ATOM     13  C   UNL     1       1.986   1.992  19.536  0.00  0.00    +0.000 C 
ATOM     14  C   UNL     1       3.200   2.721  17.579  0.00  0.00    +0.000 C 
ATOM     15  C   UNL     1       4.444   2.985  19.623  0.00  0.00    +0.000 C 
ATOM     16  C   UNL     1       5.222   4.244  19.074  0.00  0.00    +0.000 C 
ATOM     17  C   UNL     1       4.415   5.412  18.311  0.00  0.00    +0.000 C 
ATOM     18  C   UNL     1       2.860   5.599  18.628  0.00  0.00    +0.000 C 
ATOM     19  C   UNL     1       1.888   5.324  17.441  0.00  0.00    +0.000 C 
ENDROOT
BRANCH   3  20
ATOM     20  C   UNL     1       0.268  10.841  19.785  0.00  0.00    +0.000 C 
BRANCH  20  21
ATOM     21  C   UNL     1      -0.975  10.948  18.889  0.00  0.00    +0.000 C 
BRANCH  21  22
ATOM     22  O   UNL     1      -0.803  11.915  17.867  0.00  0.00    +0.000 OA
ATOM     23  H   UNL     1       0.152  11.977  17.688  0.00  0.00    +0.000 HD
ENDBRANCH  21  22
ENDBRANCH  20  21
ENDBRANCH   3  20
TORSDOF 3
ENDMDL
MODEL 2
REMARK VINA RESULT:      -7.0      2.829      5.253
REMARK  Name = 
REMARK  6 active torsions:
REMARK  status: ('A' for Active; 'I' for Inactive)
REMARK    1  A    between atoms: C_3  and  C_4
REMARK    2  A    between atoms: C_4  and  C_5
REMARK    3  A    between atoms: C_5  and  O_6
REMARK    4  A    between atoms: C_15  and  C_16
REMARK    5  A    between atoms: C_15  and  C_17
REMARK    6  A    between atoms: C_21  and  C_22
REMARK                            x       y       z     vdW  Elec       q    Type
REMARK                         _______ _______ _______ _____ _____    ______ ____
ROOT
ATOM      1  C   UNL     1       7.645   4.680  17.275  0.00  0.00    +0.000 C 
ATOM      2  C   UNL     1       6.695   5.506  17.739  0.00  0.00    +0.000 C 
ATOM      3  C   UNL     1       6.693   6.940  17.448  0.00  0.00    +0.000 C 
ATOM      4  C   UNL     1       5.535   7.617  17.469  0.00  0.00    +0.000 C 
ATOM      5  C   UNL     1       4.221   6.923  17.601  0.00  0.00    +0.000 C 
ATOM      6  O   UNL     1       3.200   7.571  17.376  0.00  0.00    +0.000 OA
ATOM      7  C   UNL     1       4.203   5.422  17.951  0.00  0.00    +0.000 C 
ATOM      8  C   UNL     1       5.535   5.085  18.661  0.00  0.00    +0.000 C 
ATOM      9  C   UNL     1       5.559   3.628  19.116  0.00  0.00    +0.000 C 
ATOM     10  C   UNL     1       4.437   3.375  20.141  0.00  0.00    +0.000 C 
ATOM     11  C   UNL     1       3.086   3.646  19.487  0.00  0.00    +0.000 C 
ATOM     12  C   UNL     1       1.729   3.199  20.214  0.00  0.00    +0.000 C 
ATOM     13  C   UNL     1       2.006   2.578  21.590  0.00  0.00    +0.000 C 
ATOM     14  C   UNL     1       0.521   4.154  20.519  0.00  0.00    +0.000 C 
ATOM     15  C   UNL     1       1.151   2.321  19.092  0.00  0.00    +0.000 C 
ATOM     16  C   UNL     1       1.052   3.205  17.787  0.00  0.00    +0.000 C 
ATOM     17  C   UNL     1       1.709   4.677  17.767  0.00  0.00    +0.000 C 
ATOM     18  C   UNL     1       2.917   4.988  18.767  0.00  0.00    +0.000 C 
ATOM     19  C   UNL     1       2.631   6.061  19.862  0.00  0.00    +0.000 C 
ENDROOT
BRANCH   3  20
ATOM     20  C   UNL     1       7.992   7.682  17.181  0.00  0.00    +0.000 C 
BRANCH  20  21
ATOM     21  C   UNL     1       8.084   9.011  17.944  0.00  0.00    +0.000 C 
BRANCH  21  22
ATOM     22  O   UNL     1       8.935   8.911  19.073  0.00  0.00    +0.000 OA
ATOM     23  H   UNL     1       9.840   8.784  18.740  0.00  0.00    +0.000 HD
ENDBRANCH  21  22
ENDBRANCH  20  21
ENDBRANCH   3  20
TORSDOF 3
ENDMDL
MODEL 3
REMARK VINA RESULT:      -7.0      0.964      1.060
REMARK  Name = 
REMARK  6 active torsions:
REMARK  status: ('A' for Active; 'I' for Inactive)
REMARK    1  A    between atoms: C_3  and  C_4
REMARK    2  A    between atoms: C_4  and  C_5
REMARK    3  A    between atoms: C_5  and  O_6
REMARK    4  A    between atoms: C_15  and  C_16
REMARK    5  A    between atoms: C_15  and  C_17
REMARK    6  A    between atoms: C_21  and  C_22
REMARK                            x       y       z     vdW  Elec       q    Type
REMARK                         _______ _______ _______ _____ _____    ______ ____
ROOT
ATOM      1  C   UNL     1       1.311   8.958  22.042  0.00  0.00    +0.000 C 
ATOM      2  C   UNL     1       1.255   8.617  20.745  0.00  0.00    +0.000 C 
ATOM      3  C   UNL     1       1.009   9.597  19.688  0.00  0.00    +0.000 C 
ATOM      4  C   UNL     1       1.452   9.354  18.444  0.00  0.00    +0.000 C 
ATOM      5  C   UNL     1       2.347   8.199  18.141  0.00  0.00    +0.000 C 
ATOM      6  O   UNL     1       2.902   8.172  17.044  0.00  0.00    +0.000 OA
ATOM      7  C   UNL     1       2.583   7.134  19.229  0.00  0.00    +0.000 C 
ATOM      8  C   UNL     1       1.385   7.180  20.206  0.00  0.00    +0.000 C 
ATOM      9  C   UNL     1       1.504   6.092  21.269  0.00  0.00    +0.000 C 
ATOM     10  C   UNL     1       1.479   4.700  20.608  0.00  0.00    +0.000 C 
ATOM     11  C   UNL     1       2.669   4.571  19.662  0.00  0.00    +0.000 C 
ATOM     12  C   UNL     1       3.067   3.144  19.050  0.00  0.00    +0.000 C 
ATOM     13  C   UNL     1       2.082   2.050  19.486  0.00  0.00    +0.000 C 
ATOM     14  C   UNL     1       3.237   2.844  17.519  0.00  0.00    +0.000 C 
ATOM     15  C   UNL     1       4.523   3.087  19.539  0.00  0.00    +0.000 C 
ATOM     16  C   UNL     1       5.265   4.372  19.000  0.00  0.00    +0.000 C 
ATOM     17  C   UNL     1       4.419   5.541  18.281  0.00  0.00    +0.000 C 
ATOM     18  C   UNL     1       2.869   5.692  18.637  0.00  0.00    +0.000 C 
ATOM     19  C   UNL     1       1.875   5.424  17.466  0.00  0.00    +0.000 C 
ENDROOT
BRANCH   3  20
ATOM     20  C   UNL     1       0.207  10.857  19.966  0.00  0.00    +0.000 C 
BRANCH  20  21
ATOM     21  C   UNL     1       1.080  12.119  20.011  0.00  0.00    +0.000 C 
BRANCH  21  22
ATOM     22  O   UNL     1       1.496  12.423  21.332  0.00  0.00    +0.000 OA
ATOM     23  H   UNL     1       2.239  13.047  21.263  0.00  0.00    +0.000 HD
ENDBRANCH  21  22
ENDBRANCH  20  21
ENDBRANCH   3  20
TORSDOF 3
ENDMDL
MODEL 4
REMARK VINA RESULT:      -6.5      1.828      6.644
REMARK  Name = 
REMARK  6 active torsions:
REMARK  status: ('A' for Active; 'I' for Inactive)
REMARK    1  A    between atoms: C_3  and  C_4
REMARK    2  A    between atoms: C_4  and  C_5
REMARK    3  A    between atoms: C_5  and  O_6
REMARK    4  A    between atoms: C_15  and  C_16
REMARK    5  A    between atoms: C_15  and  C_17
REMARK    6  A    between atoms: C_21  and  C_22
REMARK                            x       y       z     vdW  Elec       q    Type
REMARK                         _______ _______ _______ _____ _____    ______ ____
ROOT
ATOM      1  C   UNL     1       1.622   5.213  20.816  0.00  0.00    +0.000 C 
ATOM      2  C   UNL     1       2.185   6.228  20.142  0.00  0.00    +0.000 C 
ATOM      3  C   UNL     1       3.275   6.025  19.188  0.00  0.00    +0.000 C 
ATOM      4  C   UNL     1       3.459   6.910  18.196  0.00  0.00    +0.000 C 
ATOM      5  C   UNL     1       2.476   7.999  17.923  0.00  0.00    +0.000 C 
ATOM      6  O   UNL     1       2.581   8.619  16.866  0.00  0.00    +0.000 OA
ATOM      7  C   UNL     1       1.347   8.256  18.940  0.00  0.00    +0.000 C 
ATOM      8  C   UNL     1       1.810   7.712  20.311  0.00  0.00    +0.000 C 
ATOM      9  C   UNL     1       0.776   8.006  21.394  0.00  0.00    +0.000 C 
ATOM     10  C   UNL     1       0.599   9.527  21.560  0.00  0.00    +0.000 C 
ATOM     11  C   UNL     1       0.096  10.122  20.249  0.00  0.00    +0.000 C 
ATOM     12  C   UNL     1      -0.448  11.630  20.198  0.00  0.00    +0.000 C 
ATOM     13  C   UNL     1      -0.311  12.323  21.561  0.00  0.00    +0.000 C 
ATOM     14  C   UNL     1       0.071  12.734  19.211  0.00  0.00    +0.000 C 
ATOM     15  C   UNL     1      -1.849  11.345  19.633  0.00  0.00    +0.000 C 
ATOM     16  C   UNL     1      -1.673  10.561  18.274  0.00  0.00    +0.000 C 
ATOM     17  C   UNL     1      -0.213  10.034  17.838  0.00  0.00    +0.000 C 
ATOM     18  C   UNL     1       0.875   9.768  18.978  0.00  0.00    +0.000 C 
ATOM     19  C   UNL     1       2.133  10.687  18.942  0.00  0.00    +0.000 C 
ENDROOT
BRANCH   3  20
ATOM     20  C   UNL     1       4.237   4.859  19.341  0.00  0.00    +0.000 C 
BRANCH  20  21
ATOM     21  C   UNL     1       5.694   5.250  19.058  0.00  0.00    +0.000 C 
BRANCH  21  22
ATOM     22  O   UNL     1       6.441   4.159  18.548  0.00  0.00    +0.000 OA
ATOM     23  H   UNL     1       6.972   3.805  19.283  0.00  0.00    +0.000 HD
ENDBRANCH  21  22
ENDBRANCH  20  21
ENDBRANCH   3  20
TORSDOF 3
ENDMDL
MODEL 5
REMARK VINA RESULT:      -6.4      2.233      3.693
REMARK  Name = 
REMARK  6 active torsions:
REMARK  status: ('A' for Active; 'I' for Inactive)
REMARK    1  A    between atoms: C_3  and  C_4
REMARK    2  A    between atoms: C_4  and  C_5
REMARK    3  A    between atoms: C_5  and  O_6
REMARK    4  A    between atoms: C_15  and  C_16
REMARK    5  A    between atoms: C_15  and  C_17
REMARK    6  A    between atoms: C_21  and  C_22
REMARK                            x       y       z     vdW  Elec       q    Type
REMARK                         _______ _______ _______ _____ _____    ______ ____
ROOT
ATOM      1  C   UNL     1       0.697   9.600  18.219  0.00  0.00    +0.000 C 
ATOM      2  C   UNL     1       1.372   8.798  19.057  0.00  0.00    +0.000 C 
ATOM      3  C   UNL     1       1.003   8.650  20.465  0.00  0.00    +0.000 C 
ATOM      4  C   UNL     1       1.328   7.524  21.120  0.00  0.00    +0.000 C 
ATOM      5  C   UNL     1       1.893   6.339  20.410  0.00  0.00    +0.000 C 
ATOM      6  O   UNL     1       1.943   5.271  21.020  0.00  0.00    +0.000 OA
ATOM      7  C   UNL     1       2.327   6.488  18.939  0.00  0.00    +0.000 C 
ATOM      8  C   UNL     1       2.624   7.983  18.681  0.00  0.00    +0.000 C 
ATOM      9  C   UNL     1       3.143   8.201  17.263  0.00  0.00    +0.000 C 
ATOM     10  C   UNL     1       4.471   7.448  17.063  0.00  0.00    +0.000 C 
ATOM     11  C   UNL     1       4.237   5.953  17.258  0.00  0.00    +0.000 C 
ATOM     12  C   UNL     1       5.365   4.894  16.838  0.00  0.00    +0.000 C 
ATOM     13  C   UNL     1       6.631   5.594  16.325  0.00  0.00    +0.000 C 
ATOM     14  C   UNL     1       5.957   3.794  17.789  0.00  0.00    +0.000 C 
ATOM     15  C   UNL     1       4.527   4.045  15.869  0.00  0.00    +0.000 C 
ATOM     16  C   UNL     1       3.259   3.525  16.653  0.00  0.00    +0.000 C 
ATOM     17  C   UNL     1       2.948   4.085  18.132  0.00  0.00    +0.000 C 
ATOM     18  C   UNL     1       3.518   5.522  18.540  0.00  0.00    +0.000 C 
ATOM     19  C   UNL     1       4.576   5.532  19.684  0.00  0.00    +0.000 C 
ENDROOT
BRANCH   3  20
ATOM     20  C   UNL     1       0.313   9.779  21.212  0.00  0.00    +0.000 C 
BRANCH  20  21
ATOM     21  C   UNL     1      -0.358   9.309  22.511  0.00  0.00    +0.000 C 
BRANCH  21  22
ATOM     22  O   UNL     1       0.337   9.768  23.657  0.00  0.00    +0.000 OA
ATOM     23  H   UNL     1       0.130  10.714  23.759  0.00  0.00    +0.000 HD
ENDBRANCH  21  22
ENDBRANCH  20  21
ENDBRANCH   3  20
TORSDOF 3
ENDMDL
MODEL 6
REMARK VINA RESULT:      -6.1      6.529     10.679
REMARK  Name = 
REMARK  6 active torsions:
REMARK  status: ('A' for Active; 'I' for Inactive)
REMARK    1  A    between atoms: C_3  and  C_4
REMARK    2  A    between atoms: C_4  and  C_5
REMARK    3  A    between atoms: C_5  and  O_6
REMARK    4  A    between atoms: C_15  and  C_16
REMARK    5  A    between atoms: C_15  and  C_17
REMARK    6  A    between atoms: C_21  and  C_22
REMARK                            x       y       z     vdW  Elec       q    Type
REMARK                         _______ _______ _______ _____ _____    ______ ____
ROOT
ATOM      1  C   UNL     1      -1.765  10.447  18.692  0.00  0.00    +0.000 C 
ATOM      2  C   UNL     1      -2.829  11.150  18.274  0.00  0.00    +0.000 C 
ATOM      3  C   UNL     1      -3.429  10.950  16.955  0.00  0.00    +0.000 C 
ATOM      4  C   UNL     1      -4.722  11.256  16.763  0.00  0.00    +0.000 C 
ATOM      5  C   UNL     1      -5.619  11.623  17.898  0.00  0.00    +0.000 C 
ATOM      6  O   UNL     1      -6.831  11.656  17.688  0.00  0.00    +0.000 OA
ATOM      7  C   UNL     1      -4.999  11.879  19.285  0.00  0.00    +0.000 C 
ATOM      8  C   UNL     1      -3.517  12.270  19.077  0.00  0.00    +0.000 C 
ATOM      9  C   UNL     1      -2.853  12.623  20.405  0.00  0.00    +0.000 C 
ATOM     10  C   UNL     1      -3.546  13.846  21.035  0.00  0.00    +0.000 C 
ATOM     11  C   UNL     1      -5.008  13.510  21.310  0.00  0.00    +0.000 C 
ATOM     12  C   UNL     1      -5.907  14.480  22.216  0.00  0.00    +0.000 C 
ATOM     13  C   UNL     1      -5.125  15.728  22.651  0.00  0.00    +0.000 C 
ATOM     14  C   UNL     1      -7.285  15.090  21.779  0.00  0.00    +0.000 C 
ATOM     15  C   UNL     1      -6.345  13.457  23.276  0.00  0.00    +0.000 C 
ATOM     16  C   UNL     1      -7.049  12.257  22.529  0.00  0.00    +0.000 C 
ATOM     17  C   UNL     1      -7.009  12.185  20.920  0.00  0.00    +0.000 C 
ATOM     18  C   UNL     1      -5.818  12.923  20.150  0.00  0.00    +0.000 C 
ATOM     19  C   UNL     1      -6.238  14.114  19.236  0.00  0.00    +0.000 C 
ENDROOT
BRANCH   3  20
ATOM     20  C   UNL     1      -2.593  10.458  15.785  0.00  0.00    +0.000 C 
BRANCH  20  21
ATOM     21  C   UNL     1      -3.433  10.180  14.530  0.00  0.00    +0.000 C 
BRANCH  21  22
ATOM     22  O   UNL     1      -2.618   9.956  13.392  0.00  0.00    +0.000 OA
ATOM     23  H   UNL     1      -2.692  10.744  12.826  0.00  0.00    +0.000 HD
ENDBRANCH  21  22
ENDBRANCH  20  21
ENDBRANCH   3  20
TORSDOF 3
ENDMDL
MODEL 7
REMARK VINA RESULT:      -6.0      3.763      6.246
REMARK  Name = 
REMARK  6 active torsions:
REMARK  status: ('A' for Active; 'I' for Inactive)
REMARK    1  A    between atoms: C_3  and  C_4
REMARK    2  A    between atoms: C_4  and  C_5
REMARK    3  A    between atoms: C_5  and  O_6
REMARK    4  A    between atoms: C_15  and  C_16
REMARK    5  A    between atoms: C_15  and  C_17
REMARK    6  A    between atoms: C_21  and  C_22
REMARK                            x       y       z     vdW  Elec       q    Type
REMARK                         _______ _______ _______ _____ _____    ______ ____
ROOT
ATOM      1  C   UNL     1       4.994   5.606  14.737  0.00  0.00    +0.000 C 
ATOM      2  C   UNL     1       5.449   5.016  15.853  0.00  0.00    +0.000 C 
ATOM      3  C   UNL     1       6.859   5.057  16.241  0.00  0.00    +0.000 C 
ATOM      4  C   UNL     1       7.193   4.931  17.535  0.00  0.00    +0.000 C 
ATOM      5  C   UNL     1       6.164   4.933  18.615  0.00  0.00    +0.000 C 
ATOM      6  O   UNL     1       6.548   5.054  19.778  0.00  0.00    +0.000 OA
ATOM      7  C   UNL     1       4.675   4.847  18.226  0.00  0.00    +0.000 C 
ATOM      8  C   UNL     1       4.587   4.193  16.828  0.00  0.00    +0.000 C 
ATOM      9  C   UNL     1       3.134   3.995  16.408  0.00  0.00    +0.000 C 
ATOM     10  C   UNL     1       2.424   3.040  17.386  0.00  0.00    +0.000 C 
ATOM     11  C   UNL     1       2.434   3.651  18.784  0.00  0.00    +0.000 C 
ATOM     12  C   UNL     1       1.529   3.026  19.949  0.00  0.00    +0.000 C 
ATOM     13  C   UNL     1       0.780   1.774  19.470  0.00  0.00    +0.000 C 
ATOM     14  C   UNL     1       2.065   2.573  21.353  0.00  0.00    +0.000 C 
ATOM     15  C   UNL     1       0.731   4.287  20.317  0.00  0.00    +0.000 C 
ATOM     16  C   UNL     1       1.764   5.421  20.691  0.00  0.00    +0.000 C 
ATOM     17  C   UNL     1       3.339   5.181  20.443  0.00  0.00    +0.000 C 
ATOM     18  C   UNL     1       3.785   4.130  19.324  0.00  0.00    +0.000 C 
ATOM     19  C   UNL     1       4.544   2.871  19.841  0.00  0.00    +0.000 C 
ENDROOT
BRANCH   3  20
ATOM     20  C   UNL     1       7.952   5.178  15.193  0.00  0.00    +0.000 C 
BRANCH  20  21
ATOM     21  C   UNL     1       7.465   4.820  13.782  0.00  0.00    +0.000 C 
BRANCH  21  22
ATOM     22  O   UNL     1       8.089   5.620  12.792  0.00  0.00    +0.000 OA
ATOM     23  H   UNL     1       7.491   6.364  12.605  0.00  0.00    +0.000 HD
ENDBRANCH  21  22
ENDBRANCH  20  21
ENDBRANCH   3  20
TORSDOF 3
ENDMDL
MODEL 8
REMARK VINA RESULT:      -5.7      3.587      8.807
REMARK  Name = 
REMARK  6 active torsions:
REMARK  status: ('A' for Active; 'I' for Inactive)
REMARK    1  A    between atoms: C_3  and  C_4
REMARK    2  A    between atoms: C_4  and  C_5
REMARK    3  A    between atoms: C_5  and  O_6
REMARK    4  A    between atoms: C_15  and  C_16
REMARK    5  A    between atoms: C_15  and  C_17
REMARK    6  A    between atoms: C_21  and  C_22
REMARK                            x       y       z     vdW  Elec       q    Type
REMARK                         _______ _______ _______ _____ _____    ______ ____
ROOT
ATOM      1  C   UNL     1      -0.018   8.507  21.678  0.00  0.00    +0.000 C 
ATOM      2  C   UNL     1       0.019   9.608  20.912  0.00  0.00    +0.000 C 
ATOM      3  C   UNL     1       0.627   9.615  19.581  0.00  0.00    +0.000 C 
ATOM      4  C   UNL     1       0.217  10.513  18.671  0.00  0.00    +0.000 C 
ATOM      5  C   UNL     1      -0.968  11.388  18.910  0.00  0.00    +0.000 C 
ATOM      6  O   UNL     1      -1.428  12.009  17.953  0.00  0.00    +0.000 OA
ATOM      7  C   UNL     1      -1.595  11.426  20.317  0.00  0.00    +0.000 C 
ATOM      8  C   UNL     1      -0.511  10.992  21.331  0.00  0.00    +0.000 C 
ATOM      9  C   UNL     1      -1.032  11.085  22.762  0.00  0.00    +0.000 C 
ATOM     10  C   UNL     1      -1.393  12.544  23.101  0.00  0.00    +0.000 C 
ATOM     11  C   UNL     1      -2.497  13.021  22.162  0.00  0.00    +0.000 C 
ATOM     12  C   UNL     1      -3.273  14.393  22.453  0.00  0.00    +0.000 C 
ATOM     13  C   UNL     1      -2.706  15.109  23.687  0.00  0.00    +0.000 C 
ATOM     14  C   UNL     1      -3.423  15.571  21.427  0.00  0.00    +0.000 C 
ATOM     15  C   UNL     1      -4.705  13.837  22.495  0.00  0.00    +0.000 C 
ATOM     16  C   UNL     1      -4.976  13.093  21.129  0.00  0.00    +0.000 C 
ATOM     17  C   UNL     1      -3.764  12.859  20.093  0.00  0.00    +0.000 C 
ATOM     18  C   UNL     1      -2.270  12.817  20.661  0.00  0.00    +0.000 C 
ATOM     19  C   UNL     1      -1.330  13.964  20.180  0.00  0.00    +0.000 C 
ENDROOT
BRANCH   3  20
ATOM     20  C   UNL     1       1.757   8.660  19.237  0.00  0.00    +0.000 C 
BRANCH  20  21
ATOM     21  C   UNL     1       2.142   8.706  17.751  0.00  0.00    +0.000 C 
BRANCH  21  22
ATOM     22  O   UNL     1       3.252   7.870  17.470  0.00  0.00    +0.000 OA
ATOM     23  H   UNL     1       3.331   7.240  18.207  0.00  0.00    +0.000 HD
ENDBRANCH  21  22
ENDBRANCH  20  21
ENDBRANCH   3  20
TORSDOF 3
ENDMDL
MODEL 9
REMARK VINA RESULT:      -5.7      3.756      6.103
REMARK  Name = 
REMARK  6 active torsions:
REMARK  status: ('A' for Active; 'I' for Inactive)
REMARK    1  A    between atoms: C_3  and  C_4
REMARK    2  A    between atoms: C_4  and  C_5
REMARK    3  A    between atoms: C_5  and  O_6
REMARK    4  A    between atoms: C_15  and  C_16
REMARK    5  A    between atoms: C_15  and  C_17
REMARK    6  A    between atoms: C_21  and  C_22
REMARK                            x       y       z     vdW  Elec       q    Type
REMARK                         _______ _______ _______ _____ _____    ______ ____
ROOT
ATOM      1  C   UNL     1       7.314   6.517  17.656  0.00  0.00    +0.000 C 
ATOM      2  C   UNL     1       6.377   5.714  17.128  0.00  0.00    +0.000 C 
ATOM      3  C   UNL     1       6.594   4.968  15.889  0.00  0.00    +0.000 C 
ATOM      4  C   UNL     1       5.903   3.839  15.667  0.00  0.00    +0.000 C 
ATOM      5  C   UNL     1       5.053   3.218  16.724  0.00  0.00    +0.000 C 
ATOM      6  O   UNL     1       4.644   2.073  16.538  0.00  0.00    +0.000 OA
ATOM      7  C   UNL     1       4.778   4.009  18.019  0.00  0.00    +0.000 C 
ATOM      8  C   UNL     1       4.964   5.511  17.705  0.00  0.00    +0.000 C 
ATOM      9  C   UNL     1       4.626   6.369  18.921  0.00  0.00    +0.000 C 
ATOM     10  C   UNL     1       3.147   6.180  19.309  0.00  0.00    +0.000 C 
ATOM     11  C   UNL     1       2.905   4.720  19.677  0.00  0.00    +0.000 C 
ATOM     12  C   UNL     1       1.539   4.278  20.389  0.00  0.00    +0.000 C 
ATOM     13  C   UNL     1       0.578   5.465  20.549  0.00  0.00    +0.000 C 
ATOM     14  C   UNL     1       0.583   3.148  19.868  0.00  0.00    +0.000 C 
ATOM     15  C   UNL     1       2.140   3.620  21.641  0.00  0.00    +0.000 C 
ATOM     16  C   UNL     1       3.139   2.495  21.165  0.00  0.00    +0.000 C 
ATOM     17  C   UNL     1       3.511   2.366  19.601  0.00  0.00    +0.000 C 
ATOM     18  C   UNL     1       3.378   3.662  18.675  0.00  0.00    +0.000 C 
ATOM     19  C   UNL     1       2.302   3.583  17.550  0.00  0.00    +0.000 C 
ENDROOT
BRANCH   3  20
ATOM     20  C   UNL     1       7.546   5.487  14.824  0.00  0.00    +0.000 C 
BRANCH  20  21
ATOM     21  C   UNL     1       7.286   4.867  13.443  0.00  0.00    +0.000 C 
BRANCH  21  22
ATOM     22  O   UNL     1       7.917   5.605  12.410  0.00  0.00    +0.000 OA
ATOM     23  H   UNL     1       8.768   5.920  12.760  0.00  0.00    +0.000 HD
ENDBRANCH  21  22
ENDBRANCH  20  21
ENDBRANCH   3  20
TORSDOF 3
ENDMDL
