MODEL 1
REMARK VINA RESULT:      -6.6      0.000      0.000
REMARK  Name = 
REMARK  11 active torsions:
REMARK  status: ('A' for Active; 'I' for Inactive)
REMARK    1  A    between atoms: C_1  and  C_2
REMARK    2  A    between atoms: C_2  and  C_3
REMARK    3  A    between atoms: C_3  and  C_4
REMARK    4  A    between atoms: C_4  and  N_5
REMARK    5  A    between atoms: N_5  and  C_6
REMARK    6  A    between atoms: C_7  and  N_8
REMARK    7  A    between atoms: N_8  and  C_9
REMARK    8  A    between atoms: C_9  and  C_10
REMARK    9  A    between atoms: C_10  and  C_11
REMARK   10  A    between atoms: C_11  and  C_12
REMARK   11  A    between atoms: C_12  and  O_14
REMARK                            x       y       z     vdW  Elec       q    Type
REMARK                         _______ _______ _______ _____ _____    ______ ____
ROOT
ATOM      1  C   UNL     1       6.041   5.304  16.343  0.00  0.00    +0.000 C 
ATOM      2  C   UNL     1       5.032   5.240  17.261  0.00  0.00    +0.000 C 
ATOM      3  C   UNL     1       5.897   4.555  18.265  0.00  0.00    +0.000 C 
ATOM      4  O   UNL     1       5.806   4.090  19.369  0.00  0.00    +0.000 OA
ATOM      5  C   UNL     1       6.981   4.585  17.243  0.00  0.00    +0.000 C 
ATOM      6  O   UNL     1       8.142   4.254  17.265  0.00  0.00    +0.000 OA
ENDROOT
BRANCH   1   7
ATOM      7  N   UNL     1       6.237   5.776  15.125  0.00  0.00    +0.000 N 
ATOM      8  H   UNL     1       5.513   6.359  14.704  0.00  0.00    +0.000 HD
BRANCH   7   9
ATOM      9  C   UNL     1       6.880   4.917  14.119  0.00  0.00    +0.000 C 
BRANCH   9  10
ATOM     10  C   UNL     1       5.985   3.727  13.773  0.00  0.00    +0.000 C 
BRANCH  10  12
ATOM     11  C   UNL     1       4.631   3.280  11.688  0.00  0.00    +0.000 C 
ATOM     12  C   UNL     1       6.023   3.427  12.274  0.00  0.00    +0.000 C 
ENDBRANCH  10  12
ENDBRANCH   9  10
ENDBRANCH   7   9
ENDBRANCH   1   7
BRANCH   2  13
ATOM     13  N   UNL     1       3.752   5.562  17.355  0.00  0.00    +0.000 N 
ATOM     14  H   UNL     1       3.089   5.278  16.640  0.00  0.00    +0.000 HD
BRANCH  13  15
ATOM     15  C   UNL     1       3.135   5.948  18.626  0.00  0.00    +0.000 C 
BRANCH  15  16
ATOM     16  C   UNL     1       2.079   4.903  19.018  0.00  0.00    +0.000 C 
BRANCH  16  17
ATOM     17  C   UNL     1       1.806   3.901  17.891  0.00  0.00    +0.000 C 
BRANCH  17  18
ATOM     18  C   UNL     1       1.388   2.560  18.432  0.00  0.00    +0.000 C 
ATOM     19  O   UNL     1       0.268   2.301  18.853  0.00  0.00    +0.000 OA
BRANCH  18  20
ATOM     20  O   UNL     1       2.378   1.640  18.406  0.00  0.00    +0.000 OA
ATOM     21  H   UNL     1       2.936   1.683  17.605  0.00  0.00    +0.000 HD
ENDBRANCH  18  20
ENDBRANCH  17  18
ENDBRANCH  16  17
ENDBRANCH  15  16
ENDBRANCH  13  15
ENDBRANCH   2  13
TORSDOF 10
ENDMDL
MODEL 2
REMARK VINA RESULT:      -6.5      2.581      5.804
REMARK  Name = 
REMARK  11 active torsions:
REMARK  status: ('A' for Active; 'I' for Inactive)
REMARK    1  A    between atoms: C_1  and  C_2
REMARK    2  A    between atoms: C_2  and  C_3
REMARK    3  A    between atoms: C_3  and  C_4
REMARK    4  A    between atoms: C_4  and  N_5
REMARK    5  A    between atoms: N_5  and  C_6
REMARK    6  A    between atoms: C_7  and  N_8
REMARK    7  A    between atoms: N_8  and  C_9
REMARK    8  A    between atoms: C_9  and  C_10
REMARK    9  A    between atoms: C_10  and  C_11
REMARK   10  A    between atoms: C_11  and  C_12
REMARK   11  A    between atoms: C_12  and  O_14
REMARK                            x       y       z     vdW  Elec       q    Type
REMARK                         _______ _______ _______ _____ _____    ______ ____
ROOT
ATOM      1  C   UNL     1       3.563   2.618  18.576  0.00  0.00    +0.000 C 
ATOM      2  C   UNL     1       4.121   3.755  18.066  0.00  0.00    +0.000 C 
ATOM      3  C   UNL     1       5.171   3.795  19.126  0.00  0.00    +0.000 C 
ATOM      4  O   UNL     1       6.086   4.497  19.465  0.00  0.00    +0.000 OA
ATOM      5  C   UNL     1       4.531   2.581  19.704  0.00  0.00    +0.000 C 
ATOM      6  O   UNL     1       4.817   1.862  20.630  0.00  0.00    +0.000 OA
ENDROOT
BRANCH   1   7
ATOM      7  N   UNL     1       2.573   1.792  18.289  0.00  0.00    +0.000 N 
ATOM      8  H   UNL     1       2.403   1.553  17.311  0.00  0.00    +0.000 HD
BRANCH   7   9
ATOM      9  C   UNL     1       1.312   1.898  19.038  0.00  0.00    +0.000 C 
BRANCH   9  10
ATOM     10  C   UNL     1       0.868   3.357  19.146  0.00  0.00    +0.000 C 
BRANCH  10  12
ATOM     11  C   UNL     1       1.760   5.218  20.602  0.00  0.00    +0.000 C 
ATOM     12  C   UNL     1       1.044   3.880  20.571  0.00  0.00    +0.000 C 
ENDBRANCH  10  12
ENDBRANCH   9  10
ENDBRANCH   7   9
ENDBRANCH   1   7
BRANCH   2  13
ATOM     13  N   UNL     1       3.908   4.612  17.081  0.00  0.00    +0.000 N 
ATOM     14  H   UNL     1       3.230   4.410  16.353  0.00  0.00    +0.000 HD
BRANCH  13  15
ATOM     15  C   UNL     1       4.280   6.025  17.179  0.00  0.00    +0.000 C 
BRANCH  15  16
ATOM     16  C   UNL     1       5.266   6.372  16.053  0.00  0.00    +0.000 C 
BRANCH  16  17
ATOM     17  C   UNL     1       6.719   6.080  16.443  0.00  0.00    +0.000 C 
BRANCH  17  18
ATOM     18  C   UNL     1       7.084   4.643  16.179  0.00  0.00    +0.000 C 
ATOM     19  O   UNL     1       6.604   3.959  15.285  0.00  0.00    +0.000 OA
BRANCH  18  20
ATOM     20  O   UNL     1       8.016   4.162  17.033  0.00  0.00    +0.000 OA
ATOM     21  H   UNL     1       8.705   4.813  17.272  0.00  0.00    +0.000 HD
ENDBRANCH  18  20
ENDBRANCH  17  18
ENDBRANCH  16  17
ENDBRANCH  15  16
ENDBRANCH  13  15
ENDBRANCH   2  13
TORSDOF 10
ENDMDL
MODEL 3
REMARK VINA RESULT:      -6.5      1.406      1.480
REMARK  Name = 
REMARK  11 active torsions:
REMARK  status: ('A' for Active; 'I' for Inactive)
REMARK    1  A    between atoms: C_1  and  C_2
REMARK    2  A    between atoms: C_2  and  C_3
REMARK    3  A    between atoms: C_3  and  C_4
REMARK    4  A    between atoms: C_4  and  N_5
REMARK    5  A    between atoms: N_5  and  C_6
REMARK    6  A    between atoms: C_7  and  N_8
REMARK    7  A    between atoms: N_8  and  C_9
REMARK    8  A    between atoms: C_9  and  C_10
REMARK    9  A    between atoms: C_10  and  C_11
REMARK   10  A    between atoms: C_11  and  C_12
REMARK   11  A    between atoms: C_12  and  O_14
REMARK                            x       y       z     vdW  Elec       q    Type
REMARK                         _______ _______ _______ _____ _____    ______ ____
ROOT
ATOM      1  C   UNL     1       6.093   5.216  16.480  0.00  0.00    +0.000 C 
ATOM      2  C   UNL     1       5.053   5.152  17.362  0.00  0.00    +0.000 C 
ATOM      3  C   UNL     1       5.888   4.481  18.401  0.00  0.00    +0.000 C 
ATOM      4  O   UNL     1       5.763   4.025  19.506  0.00  0.00    +0.000 OA
ATOM      5  C   UNL     1       7.006   4.512  17.417  0.00  0.00    +0.000 C 
ATOM      6  O   UNL     1       8.168   4.190  17.482  0.00  0.00    +0.000 OA
ENDROOT
BRANCH   1   7
ATOM      7  N   UNL     1       6.327   5.680  15.265  0.00  0.00    +0.000 N 
ATOM      8  H   UNL     1       5.628   6.283  14.828  0.00  0.00    +0.000 HD
BRANCH   7   9
ATOM      9  C   UNL     1       6.965   4.800  14.274  0.00  0.00    +0.000 C 
BRANCH   9  10
ATOM     10  C   UNL     1       5.939   3.852  13.652  0.00  0.00    +0.000 C 
BRANCH  10  12
ATOM     11  C   UNL     1       5.473   2.362  11.667  0.00  0.00    +0.000 C 
ATOM     12  C   UNL     1       6.321   3.494  12.216  0.00  0.00    +0.000 C 
ENDBRANCH  10  12
ENDBRANCH   9  10
ENDBRANCH   7   9
ENDBRANCH   1   7
BRANCH   2  13
ATOM     13  N   UNL     1       3.768   5.464  17.410  0.00  0.00    +0.000 N 
ATOM     14  H   UNL     1       3.415   6.291  16.938  0.00  0.00    +0.000 HD
BRANCH  13  15
ATOM     15  C   UNL     1       2.736   4.483  17.752  0.00  0.00    +0.000 C 
BRANCH  15  16
ATOM     16  C   UNL     1       2.165   4.805  19.141  0.00  0.00    +0.000 C 
BRANCH  16  17
ATOM     17  C   UNL     1       1.598   3.563  19.838  0.00  0.00    +0.000 C 
BRANCH  17  18
ATOM     18  C   UNL     1       2.486   3.107  20.965  0.00  0.00    +0.000 C 
ATOM     19  O   UNL     1       2.223   3.243  22.152  0.00  0.00    +0.000 OA
BRANCH  18  20
ATOM     20  O   UNL     1       3.624   2.512  20.542  0.00  0.00    +0.000 OA
ATOM     21  H   UNL     1       4.077   1.991  21.233  0.00  0.00    +0.000 HD
ENDBRANCH  18  20
ENDBRANCH  17  18
ENDBRANCH  16  17
ENDBRANCH  15  16
ENDBRANCH  13  15
ENDBRANCH   2  13
TORSDOF 10
ENDMDL
MODEL 4
REMARK VINA RESULT:      -6.4      2.225      2.952
REMARK  Name = 
REMARK  11 active torsions:
REMARK  status: ('A' for Active; 'I' for Inactive)
REMARK    1  A    between atoms: C_1  and  C_2
REMARK    2  A    between atoms: C_2  and  C_3
REMARK    3  A    between atoms: C_3  and  C_4
REMARK    4  A    between atoms: C_4  and  N_5
REMARK    5  A    between atoms: N_5  and  C_6
REMARK    6  A    between atoms: C_7  and  N_8
REMARK    7  A    between atoms: N_8  and  C_9
REMARK    8  A    between atoms: C_9  and  C_10
REMARK    9  A    between atoms: C_10  and  C_11
REMARK   10  A    between atoms: C_11  and  C_12
REMARK   11  A    between atoms: C_12  and  O_14
REMARK                            x       y       z     vdW  Elec       q    Type
REMARK                         _______ _______ _______ _____ _____    ______ ____
ROOT
ATOM      1  C   UNL     1       4.612   5.422  18.223  0.00  0.00    +0.000 C 
ATOM      2  C   UNL     1       3.935   4.236  18.210  0.00  0.00    +0.000 C 
ATOM      3  C   UNL     1       4.842   3.630  19.228  0.00  0.00    +0.000 C 
ATOM      4  O   UNL     1       4.996   2.579  19.790  0.00  0.00    +0.000 OA
ATOM      5  C   UNL     1       5.605   4.909  19.204  0.00  0.00    +0.000 C 
ATOM      6  O   UNL     1       6.548   5.317  19.838  0.00  0.00    +0.000 OA
ENDROOT
BRANCH   1   7
ATOM      7  N   UNL     1       4.531   6.609  17.650  0.00  0.00    +0.000 N 
ATOM      8  H   UNL     1       3.739   7.211  17.882  0.00  0.00    +0.000 HD
BRANCH   7   9
ATOM      9  C   UNL     1       4.910   6.750  16.236  0.00  0.00    +0.000 C 
BRANCH   9  10
ATOM     10  C   UNL     1       6.211   6.000  15.948  0.00  0.00    +0.000 C 
BRANCH  10  12
ATOM     11  C   UNL     1       6.006   3.594  15.209  0.00  0.00    +0.000 C 
ATOM     12  C   UNL     1       6.045   5.045  14.766  0.00  0.00    +0.000 C 
ENDBRANCH  10  12
ENDBRANCH   9  10
ENDBRANCH   7   9
ENDBRANCH   1   7
BRANCH   2  13
ATOM     13  N   UNL     1       2.913   3.681  17.580  0.00  0.00    +0.000 N 
ATOM     14  H   UNL     1       3.055   2.908  16.937  0.00  0.00    +0.000 HD
BRANCH  13  15
ATOM     15  C   UNL     1       1.533   3.825  18.049  0.00  0.00    +0.000 C 
BRANCH  15  16
ATOM     16  C   UNL     1       1.270   2.816  19.177  0.00  0.00    +0.000 C 
BRANCH  16  17
ATOM     17  C   UNL     1       0.833   3.499  20.477  0.00  0.00    +0.000 C 
BRANCH  17  18
ATOM     18  C   UNL     1       2.002   3.736  21.397  0.00  0.00    +0.000 C 
ATOM     19  O   UNL     1       2.509   2.879  22.107  0.00  0.00    +0.000 OA
BRANCH  18  20
ATOM     20  O   UNL     1       2.458   5.008  21.365  0.00  0.00    +0.000 OA
ATOM     21  H   UNL     1       1.787   5.675  21.613  0.00  0.00    +0.000 HD
ENDBRANCH  18  20
ENDBRANCH  17  18
ENDBRANCH  16  17
ENDBRANCH  15  16
ENDBRANCH  13  15
ENDBRANCH   2  13
TORSDOF 10
ENDMDL
MODEL 5
REMARK VINA RESULT:      -6.3      0.968      1.257
REMARK  Name = 
REMARK  11 active torsions:
REMARK  status: ('A' for Active; 'I' for Inactive)
REMARK    1  A    between atoms: C_1  and  C_2
REMARK    2  A    between atoms: C_2  and  C_3
REMARK    3  A    between atoms: C_3  and  C_4
REMARK    4  A    between atoms: C_4  and  N_5
REMARK    5  A    between atoms: N_5  and  C_6
REMARK    6  A    between atoms: C_7  and  N_8
REMARK    7  A    between atoms: N_8  and  C_9
REMARK    8  A    between atoms: C_9  and  C_10
REMARK    9  A    between atoms: C_10  and  C_11
REMARK   10  A    between atoms: C_11  and  C_12
REMARK   11  A    between atoms: C_12  and  O_14
REMARK                            x       y       z     vdW  Elec       q    Type
REMARK                         _______ _______ _______ _____ _____    ______ ____
ROOT
ATOM      1  C   UNL     1       5.918   5.115  16.643  0.00  0.00    +0.000 C 
ATOM      2  C   UNL     1       5.241   5.493  17.767  0.00  0.00    +0.000 C 
ATOM      3  C   UNL     1       6.383   5.135  18.657  0.00  0.00    +0.000 C 
ATOM      4  O   UNL     1       6.643   5.116  19.831  0.00  0.00    +0.000 OA
ATOM      5  C   UNL     1       7.100   4.680  17.433  0.00  0.00    +0.000 C 
ATOM      6  O   UNL     1       8.216   4.262  17.241  0.00  0.00    +0.000 OA
ENDROOT
BRANCH   1   7
ATOM      7  N   UNL     1       5.723   5.089  15.337  0.00  0.00    +0.000 N 
ATOM      8  H   UNL     1       4.853   5.470  14.964  0.00  0.00    +0.000 HD
BRANCH   7   9
ATOM      9  C   UNL     1       6.159   3.911  14.571  0.00  0.00    +0.000 C 
BRANCH   9  10
ATOM     10  C   UNL     1       5.414   3.826  13.239  0.00  0.00    +0.000 C 
BRANCH  10  12
ATOM     11  C   UNL     1       5.760   2.037  11.490  0.00  0.00    +0.000 C 
ATOM     12  C   UNL     1       6.323   3.291  12.133  0.00  0.00    +0.000 C 
ENDBRANCH  10  12
ENDBRANCH   9  10
ENDBRANCH   7   9
ENDBRANCH   1   7
BRANCH   2  13
ATOM     13  N   UNL     1       4.048   5.958  18.099  0.00  0.00    +0.000 N 
ATOM     14  H   UNL     1       3.632   6.735  17.595  0.00  0.00    +0.000 HD
BRANCH  13  15
ATOM     15  C   UNL     1       3.092   5.171  18.881  0.00  0.00    +0.000 C 
BRANCH  15  16
ATOM     16  C   UNL     1       2.044   4.558  17.939  0.00  0.00    +0.000 C 
BRANCH  16  17
ATOM     17  C   UNL     1       2.586   3.342  17.179  0.00  0.00    +0.000 C 
BRANCH  17  18
ATOM     18  C   UNL     1       2.584   2.107  18.040  0.00  0.00    +0.000 C 
ATOM     19  O   UNL     1       3.571   1.421  18.268  0.00  0.00    +0.000 OA
BRANCH  18  20
ATOM     20  O   UNL     1       1.369   1.817  18.557  0.00  0.00    +0.000 OA
ATOM     21  H   UNL     1       1.030   0.938  18.297  0.00  0.00    +0.000 HD
ENDBRANCH  18  20
ENDBRANCH  17  18
ENDBRANCH  16  17
ENDBRANCH  15  16
ENDBRANCH  13  15
ENDBRANCH   2  13
TORSDOF 10
ENDMDL
MODEL 6
REMARK VINA RESULT:      -6.3      1.612      1.884
REMARK  Name = 
REMARK  11 active torsions:
REMARK  status: ('A' for Active; 'I' for Inactive)
REMARK    1  A    between atoms: C_1  and  C_2
REMARK    2  A    between atoms: C_2  and  C_3
REMARK    3  A    between atoms: C_3  and  C_4
REMARK    4  A    between atoms: C_4  and  N_5
REMARK    5  A    between atoms: N_5  and  C_6
REMARK    6  A    between atoms: C_7  and  N_8
REMARK    7  A    between atoms: N_8  and  C_9
REMARK    8  A    between atoms: C_9  and  C_10
REMARK    9  A    between atoms: C_10  and  C_11
REMARK   10  A    between atoms: C_11  and  C_12
REMARK   11  A    between atoms: C_12  and  O_14
REMARK                            x       y       z     vdW  Elec       q    Type
REMARK                         _______ _______ _______ _____ _____    ______ ____
ROOT
ATOM      1  C   UNL     1       6.572   5.604  17.111  0.00  0.00    +0.000 C 
ATOM      2  C   UNL     1       6.319   4.754  18.149  0.00  0.00    +0.000 C 
ATOM      3  C   UNL     1       7.107   5.581  19.108  0.00  0.00    +0.000 C 
ATOM      4  O   UNL     1       7.445   5.553  20.261  0.00  0.00    +0.000 OA
ATOM      5  C   UNL     1       7.418   6.481  17.963  0.00  0.00    +0.000 C 
ATOM      6  O   UNL     1       8.014   7.528  17.877  0.00  0.00    +0.000 OA
ENDROOT
BRANCH   1   7
ATOM      7  N   UNL     1       6.261   5.719  15.833  0.00  0.00    +0.000 N 
ATOM      8  H   UNL     1       5.288   5.895  15.579  0.00  0.00    +0.000 HD
BRANCH   7   9
ATOM      9  C   UNL     1       6.914   4.835  14.855  0.00  0.00    +0.000 C 
BRANCH   9  10
ATOM     10  C   UNL     1       5.872   4.107  14.005  0.00  0.00    +0.000 C 
BRANCH  10  12
ATOM     11  C   UNL     1       5.554   2.772  11.884  0.00  0.00    +0.000 C 
ATOM     12  C   UNL     1       6.431   3.765  12.623  0.00  0.00    +0.000 C 
ENDBRANCH  10  12
ENDBRANCH   9  10
ENDBRANCH   7   9
ENDBRANCH   1   7
BRANCH   2  13
ATOM     13  N   UNL     1       5.694   3.608  18.366  0.00  0.00    +0.000 N 
ATOM     14  H   UNL     1       6.104   2.727  18.069  0.00  0.00    +0.000 HD
BRANCH  13  15
ATOM     15  C   UNL     1       4.640   3.469  19.372  0.00  0.00    +0.000 C 
BRANCH  15  16
ATOM     16  C   UNL     1       3.475   4.407  19.023  0.00  0.00    +0.000 C 
BRANCH  16  17
ATOM     17  C   UNL     1       2.120   3.836  19.455  0.00  0.00    +0.000 C 
BRANCH  17  18
ATOM     18  C   UNL     1       1.524   2.958  18.386  0.00  0.00    +0.000 C 
ATOM     19  O   UNL     1       2.046   2.735  17.302  0.00  0.00    +0.000 OA
BRANCH  18  20
ATOM     20  O   UNL     1       0.335   2.418  18.739  0.00  0.00    +0.000 OA
ATOM     21  H   UNL     1       0.027   2.688  19.626  0.00  0.00    +0.000 HD
ENDBRANCH  18  20
ENDBRANCH  17  18
ENDBRANCH  16  17
ENDBRANCH  15  16
ENDBRANCH  13  15
ENDBRANCH   2  13
TORSDOF 10
ENDMDL
MODEL 7
REMARK VINA RESULT:      -6.3      1.532      1.772
REMARK  Name = 
REMARK  11 active torsions:
REMARK  status: ('A' for Active; 'I' for Inactive)
REMARK    1  A    between atoms: C_1  and  C_2
REMARK    2  A    between atoms: C_2  and  C_3
REMARK    3  A    between atoms: C_3  and  C_4
REMARK    4  A    between atoms: C_4  and  N_5
REMARK    5  A    between atoms: N_5  and  C_6
REMARK    6  A    between atoms: C_7  and  N_8
REMARK    7  A    between atoms: N_8  and  C_9
REMARK    8  A    between atoms: C_9  and  C_10
REMARK    9  A    between atoms: C_10  and  C_11
REMARK   10  A    between atoms: C_11  and  C_12
REMARK   11  A    between atoms: C_12  and  O_14
REMARK                            x       y       z     vdW  Elec       q    Type
REMARK                         _______ _______ _______ _____ _____    ______ ____
ROOT
ATOM      1  C   UNL     1       5.577   4.463  17.189  0.00  0.00    +0.000 C 
ATOM      2  C   UNL     1       5.145   4.851  18.425  0.00  0.00    +0.000 C 
ATOM      3  C   UNL     1       6.536   5.062  18.919  0.00  0.00    +0.000 C 
ATOM      4  O   UNL     1       7.097   5.379  19.934  0.00  0.00    +0.000 OA
ATOM      5  C   UNL     1       7.004   4.593  17.585  0.00  0.00    +0.000 C 
ATOM      6  O   UNL     1       8.097   4.505  17.080  0.00  0.00    +0.000 OA
ENDROOT
BRANCH   1   7
ATOM      7  N   UNL     1       5.054   4.094  16.033  0.00  0.00    +0.000 N 
ATOM      8  H   UNL     1       4.903   3.100  15.859  0.00  0.00    +0.000 HD
BRANCH   7   9
ATOM      9  C   UNL     1       5.466   4.792  14.805  0.00  0.00    +0.000 C 
BRANCH   9  10
ATOM     10  C   UNL     1       6.174   3.831  13.849  0.00  0.00    +0.000 C 
BRANCH  10  12
ATOM     11  C   UNL     1       5.898   2.478  11.734  0.00  0.00    +0.000 C 
ATOM     12  C   UNL     1       5.348   3.610  12.582  0.00  0.00    +0.000 C 
ENDBRANCH  10  12
ENDBRANCH   9  10
ENDBRANCH   7   9
ENDBRANCH   1   7
BRANCH   2  13
ATOM     13  N   UNL     1       4.005   4.989  19.081  0.00  0.00    +0.000 N 
ATOM     14  H   UNL     1       3.384   5.769  18.889  0.00  0.00    +0.000 HD
BRANCH  13  15
ATOM     15  C   UNL     1       3.366   3.873  19.783  0.00  0.00    +0.000 C 
BRANCH  15  16
ATOM     16  C   UNL     1       4.171   2.588  19.537  0.00  0.00    +0.000 C 
BRANCH  16  17
ATOM     17  C   UNL     1       3.471   1.643  18.554  0.00  0.00    +0.000 C 
BRANCH  17  18
ATOM     18  C   UNL     1       2.243   2.278  17.956  0.00  0.00    +0.000 C 
ATOM     19  O   UNL     1       2.261   3.105  17.054  0.00  0.00    +0.000 OA
BRANCH  18  20
ATOM     20  O   UNL     1       1.091   1.840  18.510  0.00  0.00    +0.000 OA
ATOM     21  H   UNL     1       0.334   1.829  17.891  0.00  0.00    +0.000 HD
ENDBRANCH  18  20
ENDBRANCH  17  18
ENDBRANCH  16  17
ENDBRANCH  15  16
ENDBRANCH  13  15
ENDBRANCH   2  13
TORSDOF 10
ENDMDL
MODEL 8
REMARK VINA RESULT:      -6.3      1.221      1.525
REMARK  Name = 
REMARK  11 active torsions:
REMARK  status: ('A' for Active; 'I' for Inactive)
REMARK    1  A    between atoms: C_1  and  C_2
REMARK    2  A    between atoms: C_2  and  C_3
REMARK    3  A    between atoms: C_3  and  C_4
REMARK    4  A    between atoms: C_4  and  N_5
REMARK    5  A    between atoms: N_5  and  C_6
REMARK    6  A    between atoms: C_7  and  N_8
REMARK    7  A    between atoms: N_8  and  C_9
REMARK    8  A    between atoms: C_9  and  C_10
REMARK    9  A    between atoms: C_10  and  C_11
REMARK   10  A    between atoms: C_11  and  C_12
REMARK   11  A    between atoms: C_12  and  O_14
REMARK                            x       y       z     vdW  Elec       q    Type
REMARK                         _______ _______ _______ _____ _____    ______ ____
ROOT
ATOM      1  C   UNL     1       6.158   5.486  16.632  0.00  0.00    +0.000 C 
ATOM      2  C   UNL     1       5.433   5.753  17.758  0.00  0.00    +0.000 C 
ATOM      3  C   UNL     1       6.440   5.098  18.643  0.00  0.00    +0.000 C 
ATOM      4  O   UNL     1       6.591   4.844  19.808  0.00  0.00    +0.000 OA
ATOM      5  C   UNL     1       7.204   4.768  17.408  0.00  0.00    +0.000 C 
ATOM      6  O   UNL     1       8.274   4.243  17.217  0.00  0.00    +0.000 OA
ENDROOT
BRANCH   1   7
ATOM      7  N   UNL     1       6.078   5.709  15.333  0.00  0.00    +0.000 N 
ATOM      8  H   UNL     1       5.221   6.119  14.959  0.00  0.00    +0.000 HD
BRANCH   7   9
ATOM      9  C   UNL     1       6.649   4.725  14.400  0.00  0.00    +0.000 C 
BRANCH   9  10
ATOM     10  C   UNL     1       5.552   3.832  13.819  0.00  0.00    +0.000 C 
BRANCH  10  12
ATOM     11  C   UNL     1       4.641   3.162  11.561  0.00  0.00    +0.000 C 
ATOM     12  C   UNL     1       5.888   3.409  12.389  0.00  0.00    +0.000 C 
ENDBRANCH  10  12
ENDBRANCH   9  10
ENDBRANCH   7   9
ENDBRANCH   1   7
BRANCH   2  13
ATOM     13  N   UNL     1       4.279   6.309  18.090  0.00  0.00    +0.000 N 
ATOM     14  H   UNL     1       4.215   7.305  18.274  0.00  0.00    +0.000 HD
BRANCH  13  15
ATOM     15  C   UNL     1       2.993   5.667  17.812  0.00  0.00    +0.000 C 
BRANCH  15  16
ATOM     16  C   UNL     1       3.180   4.142  17.782  0.00  0.00    +0.000 C 
BRANCH  16  17
ATOM     17  C   UNL     1       3.019   3.509  19.168  0.00  0.00    +0.000 C 
BRANCH  17  18
ATOM     18  C   UNL     1       3.819   2.240  19.294  0.00  0.00    +0.000 C 
ATOM     19  O   UNL     1       4.755   2.085  20.068  0.00  0.00    +0.000 OA
BRANCH  18  20
ATOM     20  O   UNL     1       3.402   1.260  18.462  0.00  0.00    +0.000 OA
ATOM     21  H   UNL     1       3.969   0.464  18.475  0.00  0.00    +0.000 HD
ENDBRANCH  18  20
ENDBRANCH  17  18
ENDBRANCH  16  17
ENDBRANCH  15  16
ENDBRANCH  13  15
ENDBRANCH   2  13
TORSDOF 10
ENDMDL
MODEL 9
REMARK VINA RESULT:      -6.2      1.843      2.187
REMARK  Name = 
REMARK  11 active torsions:
REMARK  status: ('A' for Active; 'I' for Inactive)
REMARK    1  A    between atoms: C_1  and  C_2
REMARK    2  A    between atoms: C_2  and  C_3
REMARK    3  A    between atoms: C_3  and  C_4
REMARK    4  A    between atoms: C_4  and  N_5
REMARK    5  A    between atoms: N_5  and  C_6
REMARK    6  A    between atoms: C_7  and  N_8
REMARK    7  A    between atoms: N_8  and  C_9
REMARK    8  A    between atoms: C_9  and  C_10
REMARK    9  A    between atoms: C_10  and  C_11
REMARK   10  A    between atoms: C_11  and  C_12
REMARK   11  A    between atoms: C_12  and  O_14
REMARK                            x       y       z     vdW  Elec       q    Type
REMARK                         _______ _______ _______ _____ _____    ______ ____
ROOT
ATOM      1  C   UNL     1       6.580   6.024  17.463  0.00  0.00    +0.000 C 
ATOM      2  C   UNL     1       6.383   5.020  18.368  0.00  0.00    +0.000 C 
ATOM      3  C   UNL     1       7.365   5.603  19.329  0.00  0.00    +0.000 C 
ATOM      4  O   UNL     1       7.846   5.343  20.399  0.00  0.00    +0.000 OA
ATOM      5  C   UNL     1       7.610   6.669  18.318  0.00  0.00    +0.000 C 
ATOM      6  O   UNL     1       8.288   7.668  18.324  0.00  0.00    +0.000 OA
ENDROOT
BRANCH   1   7
ATOM      7  N   UNL     1       6.118   6.389  16.280  0.00  0.00    +0.000 N 
ATOM      8  H   UNL     1       5.602   7.266  16.206  0.00  0.00    +0.000 HD
BRANCH   7   9
ATOM      9  C   UNL     1       5.560   5.366  15.382  0.00  0.00    +0.000 C 
BRANCH   9  10
ATOM     10  C   UNL     1       6.675   4.657  14.612  0.00  0.00    +0.000 C 
BRANCH  10  12
ATOM     11  C   UNL     1       6.893   3.904  12.211  0.00  0.00    +0.000 C 
ATOM     12  C   UNL     1       6.102   3.779  13.500  0.00  0.00    +0.000 C 
ENDBRANCH  10  12
ENDBRANCH   9  10
ENDBRANCH   7   9
ENDBRANCH   1   7
BRANCH   2  13
ATOM     13  N   UNL     1       5.684   3.902  18.477  0.00  0.00    +0.000 N 
ATOM     14  H   UNL     1       6.113   3.053  18.832  0.00  0.00    +0.000 HD
BRANCH  13  15
ATOM     15  C   UNL     1       4.221   3.894  18.511  0.00  0.00    +0.000 C 
BRANCH  15  16
ATOM     16  C   UNL     1       3.737   2.713  19.366  0.00  0.00    +0.000 C 
BRANCH  16  17
ATOM     17  C   UNL     1       2.515   2.016  18.756  0.00  0.00    +0.000 C 
BRANCH  17  18
ATOM     18  C   UNL     1       1.326   2.938  18.695  0.00  0.00    +0.000 C 
ATOM     19  O   UNL     1       1.023   3.613  17.721  0.00  0.00    +0.000 OA
BRANCH  18  20
ATOM     20  O   UNL     1       0.600   2.951  19.835  0.00  0.00    +0.000 OA
ATOM     21  H   UNL     1       0.219   3.825  20.051  0.00  0.00    +0.000 HD
ENDBRANCH  18  20
ENDBRANCH  17  18
ENDBRANCH  16  17
ENDBRANCH  15  16
ENDBRANCH  13  15
ENDBRANCH   2  13
TORSDOF 10
ENDMDL
