MODEL 1
REMARK VINA RESULT:      -9.3      0.000      0.000
REMARK  Name = 
REMARK  2 active torsions:
REMARK  status: ('A' for Active; 'I' for Inactive)
REMARK    1  A    between atoms: C_4  and  C_5
REMARK    2  A    between atoms: C_14  and  N_15
REMARK                            x       y       z     vdW  Elec       q    Type
REMARK                         _______ _______ _______ _____ _____    ______ ____
ROOT
ATOM      1  O   UNL     1       3.239   2.172  18.958  0.00  0.00    +0.000 OA
ATOM      2  C   UNL     1       3.523   3.227  18.414  0.00  0.00    +0.000 A 
ATOM      3  C   UNL     1       4.319   3.262  17.184  0.00  0.00    +0.000 A 
ATOM      4  C   UNL     1       4.659   4.432  16.637  0.00  0.00    +0.000 A 
ATOM      5  O   UNL     1       4.270   5.670  17.156  0.00  0.00    +0.000 OA
ATOM      6  C   UNL     1       3.461   5.683  18.268  0.00  0.00    +0.000 A 
ATOM      7  C   UNL     1       3.009   6.922  18.749  0.00  0.00    +0.000 A 
ATOM      8  C   UNL     1       2.126   7.012  19.848  0.00  0.00    +0.000 A 
ATOM      9  C   UNL     1       1.760   5.815  20.483  0.00  0.00    +0.000 A 
ATOM     10  C   UNL     1       2.237   4.579  20.044  0.00  0.00    +0.000 A 
ATOM     11  C   UNL     1       3.072   4.521  18.929  0.00  0.00    +0.000 A 
ENDROOT
BRANCH   8  12
ATOM     12  N   UNL     1       1.621   8.218  20.290  0.00  0.00    +0.000 N 
ATOM     13  C   UNL     1       1.010   9.191  19.396  0.00  0.00    +0.000 C 
ATOM     14  O   UNL     1       1.276  10.544  19.842  0.00  0.00    +0.000 OA
ATOM     15  C   UNL     1       0.626  10.721  21.041  0.00  0.00    +0.000 A 
ATOM     16  C   UNL     1      -0.088  11.890  21.259  0.00  0.00    +0.000 A 
ATOM     17  C   UNL     1      -1.005  11.919  22.307  0.00  0.00    +0.000 A 
ATOM     18  C   UNL     1      -1.177  10.792  23.119  0.00  0.00    +0.000 A 
ATOM     19  C   UNL     1      -0.351   9.673  22.967  0.00  0.00    +0.000 A 
ATOM     20  C   UNL     1       0.595   9.656  21.945  0.00  0.00    +0.000 A 
ATOM     21  C   UNL     1       1.594   8.552  21.713  0.00  0.00    +0.000 C 
ENDBRANCH   8  12
BRANCH   4  22
ATOM     22  C   UNL     1       5.454   4.476  15.383  0.00  0.00    +0.000 A 
ATOM     23  C   UNL     1       5.054   3.760  14.244  0.00  0.00    +0.000 A 
ATOM     24  C   UNL     1       5.843   3.755  13.085  0.00  0.00    +0.000 A 
ATOM     25  C   UNL     1       7.037   4.471  13.039  0.00  0.00    +0.000 A 
ATOM     26  C   UNL     1       7.440   5.208  14.147  0.00  0.00    +0.000 A 
ATOM     27  C   UNL     1       6.649   5.218  15.302  0.00  0.00    +0.000 A 
ENDBRANCH   4  22
TORSDOF 2
ENDMDL
MODEL 2
REMARK VINA RESULT:      -9.3      0.590      1.092
REMARK  Name = 
REMARK  2 active torsions:
REMARK  status: ('A' for Active; 'I' for Inactive)
REMARK    1  A    between atoms: C_4  and  C_5
REMARK    2  A    between atoms: C_14  and  N_15
REMARK                            x       y       z     vdW  Elec       q    Type
REMARK                         _______ _______ _______ _____ _____    ______ ____
ROOT
ATOM      1  O   UNL     1       2.856   2.375  19.513  0.00  0.00    +0.000 OA
ATOM      2  C   UNL     1       3.214   3.405  18.966  0.00  0.00    +0.000 A 
ATOM      3  C   UNL     1       4.093   3.382  17.793  0.00  0.00    +0.000 A 
ATOM      4  C   UNL     1       4.511   4.525  17.244  0.00  0.00    +0.000 A 
ATOM      5  O   UNL     1       4.131   5.789  17.705  0.00  0.00    +0.000 OA
ATOM      6  C   UNL     1       3.249   5.857  18.758  0.00  0.00    +0.000 A 
ATOM      7  C   UNL     1       2.809   7.123  19.177  0.00  0.00    +0.000 A 
ATOM      8  C   UNL     1       1.857   7.271  20.210  0.00  0.00    +0.000 A 
ATOM      9  C   UNL     1       1.406   6.103  20.847  0.00  0.00    +0.000 A 
ATOM     10  C   UNL     1       1.869   4.841  20.470  0.00  0.00    +0.000 A 
ATOM     11  C   UNL     1       2.775   4.726  19.417  0.00  0.00    +0.000 A 
ENDROOT
BRANCH   8  12
ATOM     12  N   UNL     1       1.366   8.503  20.588  0.00  0.00    +0.000 N 
ATOM     13  C   UNL     1       0.847   9.471  19.632  0.00  0.00    +0.000 C 
ATOM     14  O   UNL     1       1.130  10.827  20.061  0.00  0.00    +0.000 OA
ATOM     15  C   UNL     1       0.411  11.057  21.210  0.00  0.00    +0.000 A 
ATOM     16  C   UNL     1      -0.276  12.254  21.351  0.00  0.00    +0.000 A 
ATOM     17  C   UNL     1      -1.257  12.341  22.336  0.00  0.00    +0.000 A 
ATOM     18  C   UNL     1      -1.519  11.243  23.164  0.00  0.00    +0.000 A 
ATOM     19  C   UNL     1      -0.724  10.094  23.093  0.00  0.00    +0.000 A 
ATOM     20  C   UNL     1       0.285  10.019  22.136  0.00  0.00    +0.000 A 
ATOM     21  C   UNL     1       1.258   8.877  21.998  0.00  0.00    +0.000 C 
ENDBRANCH   8  12
BRANCH   4  22
ATOM     22  C   UNL     1       5.390   4.510  16.046  0.00  0.00    +0.000 A 
ATOM     23  C   UNL     1       6.674   5.076  16.080  0.00  0.00    +0.000 A 
ATOM     24  C   UNL     1       7.473   5.116  14.929  0.00  0.00    +0.000 A 
ATOM     25  C   UNL     1       7.009   4.582  13.728  0.00  0.00    +0.000 A 
ATOM     26  C   UNL     1       5.750   3.993  13.678  0.00  0.00    +0.000 A 
ATOM     27  C   UNL     1       4.955   3.950  14.829  0.00  0.00    +0.000 A 
ENDBRANCH   4  22
TORSDOF 2
ENDMDL
MODEL 3
REMARK VINA RESULT:      -9.1      1.487      2.218
REMARK  Name = 
REMARK  2 active torsions:
REMARK  status: ('A' for Active; 'I' for Inactive)
REMARK    1  A    between atoms: C_4  and  C_5
REMARK    2  A    between atoms: C_14  and  N_15
REMARK                            x       y       z     vdW  Elec       q    Type
REMARK                         _______ _______ _______ _____ _____    ______ ____
ROOT
ATOM      1  O   UNL     1       4.458   2.905  18.928  0.00  0.00    +0.000 OA
ATOM      2  C   UNL     1       4.485   3.816  18.116  0.00  0.00    +0.000 A 
ATOM      3  C   UNL     1       5.153   3.664  16.820  0.00  0.00    +0.000 A 
ATOM      4  C   UNL     1       5.212   4.693  15.970  0.00  0.00    +0.000 A 
ATOM      5  O   UNL     1       4.635   5.940  16.225  0.00  0.00    +0.000 OA
ATOM      6  C   UNL     1       3.935   6.104  17.397  0.00  0.00    +0.000 A 
ATOM      7  C   UNL     1       3.293   7.333  17.623  0.00  0.00    +0.000 A 
ATOM      8  C   UNL     1       2.505   7.555  18.774  0.00  0.00    +0.000 A 
ATOM      9  C   UNL     1       2.433   6.519  19.719  0.00  0.00    +0.000 A 
ATOM     10  C   UNL     1       3.103   5.309  19.529  0.00  0.00    +0.000 A 
ATOM     11  C   UNL     1       3.836   5.105  18.361  0.00  0.00    +0.000 A 
ENDROOT
BRANCH   8  12
ATOM     12  N   UNL     1       1.814   8.732  18.977  0.00  0.00    +0.000 N 
ATOM     13  C   UNL     1       1.105   9.025  20.215  0.00  0.00    +0.000 C 
ATOM     14  O   UNL     1      -0.085   9.810  19.957  0.00  0.00    +0.000 OA
ATOM     15  C   UNL     1       0.321  11.039  19.493  0.00  0.00    +0.000 A 
ATOM     16  C   UNL     1      -0.281  12.185  19.992  0.00  0.00    +0.000 A 
ATOM     17  C   UNL     1       0.350  13.408  19.784  0.00  0.00    +0.000 A 
ATOM     18  C   UNL     1       1.555  13.464  19.073  0.00  0.00    +0.000 A 
ATOM     19  C   UNL     1       2.074  12.316  18.464  0.00  0.00    +0.000 A 
ATOM     20  C   UNL     1       1.423  11.097  18.637  0.00  0.00    +0.000 A 
ATOM     21  C   UNL     1       1.829   9.802  17.981  0.00  0.00    +0.000 C 
ENDBRANCH   8  12
BRANCH   4  22
ATOM     22  C   UNL     1       5.875   4.543  14.649  0.00  0.00    +0.000 A 
ATOM     23  C   UNL     1       5.335   3.712  13.655  0.00  0.00    +0.000 A 
ATOM     24  C   UNL     1       6.000   3.525  12.435  0.00  0.00    +0.000 A 
ATOM     25  C   UNL     1       7.207   4.172  12.182  0.00  0.00    +0.000 A 
ATOM     26  C   UNL     1       7.748   5.021  13.142  0.00  0.00    +0.000 A 
ATOM     27  C   UNL     1       7.080   5.211  14.358  0.00  0.00    +0.000 A 
ENDBRANCH   4  22
TORSDOF 2
ENDMDL
MODEL 4
REMARK VINA RESULT:      -8.9      1.556      2.029
REMARK  Name = 
REMARK  2 active torsions:
REMARK  status: ('A' for Active; 'I' for Inactive)
REMARK    1  A    between atoms: C_4  and  C_5
REMARK    2  A    between atoms: C_14  and  N_15
REMARK                            x       y       z     vdW  Elec       q    Type
REMARK                         _______ _______ _______ _____ _____    ______ ____
ROOT
ATOM      1  O   UNL     1       4.057   2.891  18.658  0.00  0.00    +0.000 OA
ATOM      2  C   UNL     1       4.238   3.820  17.887  0.00  0.00    +0.000 A 
ATOM      3  C   UNL     1       4.987   3.641  16.640  0.00  0.00    +0.000 A 
ATOM      4  C   UNL     1       5.214   4.685  15.838  0.00  0.00    +0.000 A 
ATOM      5  O   UNL     1       4.745   5.975  16.097  0.00  0.00    +0.000 OA
ATOM      6  C   UNL     1       3.975   6.173  17.219  0.00  0.00    +0.000 A 
ATOM      7  C   UNL     1       3.443   7.453  17.444  0.00  0.00    +0.000 A 
ATOM      8  C   UNL     1       2.593   7.718  18.540  0.00  0.00    +0.000 A 
ATOM      9  C   UNL     1       2.345   6.666  19.436  0.00  0.00    +0.000 A 
ATOM     10  C   UNL     1       2.904   5.401  19.250  0.00  0.00    +0.000 A 
ATOM     11  C   UNL     1       3.703   5.160  18.133  0.00  0.00    +0.000 A 
ENDROOT
BRANCH   8  12
ATOM     12  N   UNL     1       2.009   8.953  18.738  0.00  0.00    +0.000 N 
ATOM     13  C   UNL     1       2.098  10.031  17.763  0.00  0.00    +0.000 C 
ATOM     14  O   UNL     1       2.147  11.321  18.420  0.00  0.00    +0.000 OA
ATOM     15  C   UNL     1       0.937  11.517  19.042  0.00  0.00    +0.000 A 
ATOM     16  C   UNL     1       0.310  12.750  18.933  0.00  0.00    +0.000 A 
ATOM     17  C   UNL     1      -1.040  12.837  19.264  0.00  0.00    +0.000 A 
ATOM     18  C   UNL     1      -1.728  11.702  19.707  0.00  0.00    +0.000 A 
ATOM     19  C   UNL     1      -1.046  10.503  19.939  0.00  0.00    +0.000 A 
ATOM     20  C   UNL     1       0.314  10.423  19.647  0.00  0.00    +0.000 A 
ATOM     21  C   UNL     1       1.184   9.221  19.914  0.00  0.00    +0.000 C 
ENDBRANCH   8  12
BRANCH   4  22
ATOM     22  C   UNL     1       5.960   4.509  14.565  0.00  0.00    +0.000 A 
ATOM     23  C   UNL     1       7.128   5.241  14.300  0.00  0.00    +0.000 A 
ATOM     24  C   UNL     1       7.791   5.118  13.071  0.00  0.00    +0.000 A 
ATOM     25  C   UNL     1       7.305   4.256  12.090  0.00  0.00    +0.000 A 
ATOM     26  C   UNL     1       6.164   3.502  12.340  0.00  0.00    +0.000 A 
ATOM     27  C   UNL     1       5.506   3.622  13.570  0.00  0.00    +0.000 A 
ENDBRANCH   4  22
TORSDOF 2
ENDMDL
MODEL 5
REMARK VINA RESULT:      -8.8      3.439      5.307
REMARK  Name = 
REMARK  2 active torsions:
REMARK  status: ('A' for Active; 'I' for Inactive)
REMARK    1  A    between atoms: C_4  and  C_5
REMARK    2  A    between atoms: C_14  and  N_15
REMARK                            x       y       z     vdW  Elec       q    Type
REMARK                         _______ _______ _______ _____ _____    ______ ____
ROOT
ATOM      1  O   UNL     1       2.875   8.484  16.812  0.00  0.00    +0.000 OA
ATOM      2  C   UNL     1       2.520   8.123  17.922  0.00  0.00    +0.000 A 
ATOM      3  C   UNL     1       2.811   6.774  18.416  0.00  0.00    +0.000 A 
ATOM      4  C   UNL     1       2.368   6.388  19.615  0.00  0.00    +0.000 A 
ATOM      5  O   UNL     1       1.647   7.218  20.477  0.00  0.00    +0.000 OA
ATOM      6  C   UNL     1       1.415   8.516  20.085  0.00  0.00    +0.000 A 
ATOM      7  C   UNL     1       0.754   9.373  20.980  0.00  0.00    +0.000 A 
ATOM      8  C   UNL     1       0.534  10.734  20.674  0.00  0.00    +0.000 A 
ATOM      9  C   UNL     1       0.950  11.189  19.413  0.00  0.00    +0.000 A 
ATOM     10  C   UNL     1       1.568  10.337  18.496  0.00  0.00    +0.000 A 
ATOM     11  C   UNL     1       1.810   9.010  18.846  0.00  0.00    +0.000 A 
ENDROOT
BRANCH   8  12
ATOM     12  N   UNL     1      -0.054  11.605  21.569  0.00  0.00    +0.000 N 
ATOM     13  C   UNL     1      -0.006  13.051  21.408  0.00  0.00    +0.000 C 
ATOM     14  O   UNL     1       0.054  13.714  22.695  0.00  0.00    +0.000 OA
ATOM     15  C   UNL     1      -1.138  13.479  23.339  0.00  0.00    +0.000 A 
ATOM     16  C   UNL     1      -1.779  14.526  23.984  0.00  0.00    +0.000 A 
ATOM     17  C   UNL     1      -3.118  14.369  24.332  0.00  0.00    +0.000 A 
ATOM     18  C   UNL     1      -3.782  13.171  24.041  0.00  0.00    +0.000 A 
ATOM     19  C   UNL     1      -3.082  12.081  23.513  0.00  0.00    +0.000 A 
ATOM     20  C   UNL     1      -1.732  12.221  23.201  0.00  0.00    +0.000 A 
ATOM     21  C   UNL     1      -0.844  11.114  22.697  0.00  0.00    +0.000 C 
ENDBRANCH   8  12
BRANCH   4  22
ATOM     22  C   UNL     1       2.670   5.026  20.129  0.00  0.00    +0.000 A 
ATOM     23  C   UNL     1       3.682   4.241  19.555  0.00  0.00    +0.000 A 
ATOM     24  C   UNL     1       3.919   2.934  20.002  0.00  0.00    +0.000 A 
ATOM     25  C   UNL     1       3.158   2.392  21.035  0.00  0.00    +0.000 A 
ATOM     26  C   UNL     1       2.167   3.161  21.636  0.00  0.00    +0.000 A 
ATOM     27  C   UNL     1       1.935   4.469  21.192  0.00  0.00    +0.000 A 
ENDBRANCH   4  22
TORSDOF 2
ENDMDL
MODEL 6
REMARK VINA RESULT:      -8.6      1.029      2.042
REMARK  Name = 
REMARK  2 active torsions:
REMARK  status: ('A' for Active; 'I' for Inactive)
REMARK    1  A    between atoms: C_4  and  C_5
REMARK    2  A    between atoms: C_14  and  N_15
REMARK                            x       y       z     vdW  Elec       q    Type
REMARK                         _______ _______ _______ _____ _____    ______ ____
ROOT
ATOM      1  O   UNL     1       3.607   2.428  19.132  0.00  0.00    +0.000 OA
ATOM      2  C   UNL     1       3.803   3.420  18.448  0.00  0.00    +0.000 A 
ATOM      3  C   UNL     1       4.572   3.348  17.202  0.00  0.00    +0.000 A 
ATOM      4  C   UNL     1       4.814   4.457  16.498  0.00  0.00    +0.000 A 
ATOM      5  O   UNL     1       4.345   5.722  16.861  0.00  0.00    +0.000 OA
ATOM      6  C   UNL     1       3.557   5.824  17.984  0.00  0.00    +0.000 A 
ATOM      7  C   UNL     1       3.024   7.081  18.311  0.00  0.00    +0.000 A 
ATOM      8  C   UNL     1       2.157   7.253  19.413  0.00  0.00    +0.000 A 
ATOM      9  C   UNL     1       1.892   6.127  20.209  0.00  0.00    +0.000 A 
ATOM     10  C   UNL     1       2.450   4.881  19.922  0.00  0.00    +0.000 A 
ATOM     11  C   UNL     1       3.267   4.735  18.801  0.00  0.00    +0.000 A 
ENDROOT
BRANCH   8  12
ATOM     12  N   UNL     1       1.573   8.467  19.708  0.00  0.00    +0.000 N 
ATOM     13  C   UNL     1       1.343   8.920  21.073  0.00  0.00    +0.000 C 
ATOM     14  O   UNL     1       0.131   9.710  21.161  0.00  0.00    +0.000 OA
ATOM     15  C   UNL     1       0.337  10.866  20.444  0.00  0.00    +0.000 A 
ATOM     16  C   UNL     1      -0.060  12.079  20.986  0.00  0.00    +0.000 A 
ATOM     17  C   UNL     1       0.446  13.250  20.428  0.00  0.00    +0.000 A 
ATOM     18  C   UNL     1       1.322  13.186  19.338  0.00  0.00    +0.000 A 
ATOM     19  C   UNL     1       1.603  11.960  18.723  0.00  0.00    +0.000 A 
ATOM     20  C   UNL     1       1.066  10.790  19.254  0.00  0.00    +0.000 A 
ATOM     21  C   UNL     1       1.225   9.418  18.653  0.00  0.00    +0.000 C 
ENDBRANCH   8  12
BRANCH   4  22
ATOM     22  C   UNL     1       5.581   4.390  15.226  0.00  0.00    +0.000 A 
ATOM     23  C   UNL     1       6.786   5.092  15.067  0.00  0.00    +0.000 A 
ATOM     24  C   UNL     1       7.470   5.076  13.844  0.00  0.00    +0.000 A 
ATOM     25  C   UNL     1       6.969   4.353  12.763  0.00  0.00    +0.000 A 
ATOM     26  C   UNL     1       5.790   3.630  12.906  0.00  0.00    +0.000 A 
ATOM     27  C   UNL     1       5.111   3.642  14.130  0.00  0.00    +0.000 A 
ENDBRANCH   4  22
TORSDOF 2
ENDMDL
MODEL 7
REMARK VINA RESULT:      -8.4      2.941      9.803
REMARK  Name = 
REMARK  2 active torsions:
REMARK  status: ('A' for Active; 'I' for Inactive)
REMARK    1  A    between atoms: C_4  and  C_5
REMARK    2  A    between atoms: C_14  and  N_15
REMARK                            x       y       z     vdW  Elec       q    Type
REMARK                         _______ _______ _______ _____ _____    ______ ____
ROOT
ATOM      1  O   UNL     1       0.975  12.967  18.118  0.00  0.00    +0.000 OA
ATOM      2  C   UNL     1       0.676  12.288  19.088  0.00  0.00    +0.000 A 
ATOM      3  C   UNL     1      -0.150  12.827  20.172  0.00  0.00    +0.000 A 
ATOM      4  C   UNL     1      -0.420  12.080  21.245  0.00  0.00    +0.000 A 
ATOM      5  O   UNL     1       0.018  10.762  21.400  0.00  0.00    +0.000 OA
ATOM      6  C   UNL     1       0.734  10.191  20.373  0.00  0.00    +0.000 A 
ATOM      7  C   UNL     1       1.112   8.844  20.495  0.00  0.00    +0.000 A 
ATOM      8  C   UNL     1       1.795   8.172  19.457  0.00  0.00    +0.000 A 
ATOM      9  C   UNL     1       2.135   8.917  18.317  0.00  0.00    +0.000 A 
ATOM     10  C   UNL     1       1.804  10.268  18.202  0.00  0.00    +0.000 A 
ATOM     11  C   UNL     1       1.091  10.891  19.225  0.00  0.00    +0.000 A 
ENDROOT
BRANCH   8  12
ATOM     12  N   UNL     1       2.116   6.832  19.534  0.00  0.00    +0.000 N 
ATOM     13  C   UNL     1       1.611   5.960  20.585  0.00  0.00    +0.000 C 
ATOM     14  O   UNL     1       2.589   4.951  20.936  0.00  0.00    +0.000 OA
ATOM     15  C   UNL     1       2.742   4.125  19.847  0.00  0.00    +0.000 A 
ATOM     16  C   UNL     1       2.777   2.751  20.038  0.00  0.00    +0.000 A 
ATOM     17  C   UNL     1       2.590   1.925  18.932  0.00  0.00    +0.000 A 
ATOM     18  C   UNL     1       2.387   2.485  17.665  0.00  0.00    +0.000 A 
ATOM     19  C   UNL     1       2.491   3.867  17.474  0.00  0.00    +0.000 A 
ATOM     20  C   UNL     1       2.718   4.694  18.572  0.00  0.00    +0.000 A 
ATOM     21  C   UNL     1       2.922   6.185  18.500  0.00  0.00    +0.000 C 
ENDBRANCH   8  12
BRANCH   4  22
ATOM     22  C   UNL     1      -1.268  12.614  22.343  0.00  0.00    +0.000 A 
ATOM     23  C   UNL     1      -2.432  11.946  22.753  0.00  0.00    +0.000 A 
ATOM     24  C   UNL     1      -3.261  12.489  23.744  0.00  0.00    +0.000 A 
ATOM     25  C   UNL     1      -2.938  13.702  24.349  0.00  0.00    +0.000 A 
ATOM     26  C   UNL     1      -1.776  14.368  23.977  0.00  0.00    +0.000 A 
ATOM     27  C   UNL     1      -0.945  13.822  22.990  0.00  0.00    +0.000 A 
ENDBRANCH   4  22
TORSDOF 2
ENDMDL
MODEL 8
REMARK VINA RESULT:      -8.4      1.070      1.691
REMARK  Name = 
REMARK  2 active torsions:
REMARK  status: ('A' for Active; 'I' for Inactive)
REMARK    1  A    between atoms: C_4  and  C_5
REMARK    2  A    between atoms: C_14  and  N_15
REMARK                            x       y       z     vdW  Elec       q    Type
REMARK                         _______ _______ _______ _____ _____    ______ ____
ROOT
ATOM      1  O   UNL     1       3.215   2.560  19.819  0.00  0.00    +0.000 OA
ATOM      2  C   UNL     1       3.446   3.582  19.195  0.00  0.00    +0.000 A 
ATOM      3  C   UNL     1       4.271   3.567  17.983  0.00  0.00    +0.000 A 
ATOM      4  C   UNL     1       4.551   4.708  17.347  0.00  0.00    +0.000 A 
ATOM      5  O   UNL     1       4.070   5.957  17.751  0.00  0.00    +0.000 OA
ATOM      6  C   UNL     1       3.232   6.008  18.841  0.00  0.00    +0.000 A 
ATOM      7  C   UNL     1       2.690   7.251  19.205  0.00  0.00    +0.000 A 
ATOM      8  C   UNL     1       1.775   7.374  20.273  0.00  0.00    +0.000 A 
ATOM      9  C   UNL     1       1.468   6.212  21.000  0.00  0.00    +0.000 A 
ATOM     10  C   UNL     1       2.034   4.978  20.677  0.00  0.00    +0.000 A 
ATOM     11  C   UNL     1       2.901   4.882  19.588  0.00  0.00    +0.000 A 
ENDROOT
BRANCH   8  12
ATOM     12  N   UNL     1       1.183   8.576  20.602  0.00  0.00    +0.000 N 
ATOM     13  C   UNL     1       0.841   8.938  21.970  0.00  0.00    +0.000 C 
ATOM     14  O   UNL     1      -0.363   9.743  22.008  0.00  0.00    +0.000 OA
ATOM     15  C   UNL     1      -0.081  10.942  21.395  0.00  0.00    +0.000 A 
ATOM     16  C   UNL     1      -0.508  12.122  21.985  0.00  0.00    +0.000 A 
ATOM     17  C   UNL     1       0.061  13.319  21.556  0.00  0.00    +0.000 A 
ATOM     18  C   UNL     1       1.028  13.313  20.544  0.00  0.00    +0.000 A 
ATOM     19  C   UNL     1       1.345  12.128  19.871  0.00  0.00    +0.000 A 
ATOM     20  C   UNL     1       0.748  10.935  20.270  0.00  0.00    +0.000 A 
ATOM     21  C   UNL     1       0.942   9.604  19.590  0.00  0.00    +0.000 C 
ENDBRANCH   8  12
BRANCH   4  22
ATOM     22  C   UNL     1       5.374   4.700  16.110  0.00  0.00    +0.000 A 
ATOM     23  C   UNL     1       4.899   4.120  14.924  0.00  0.00    +0.000 A 
ATOM     24  C   UNL     1       5.706   4.058  13.780  0.00  0.00    +0.000 A 
ATOM     25  C   UNL     1       6.997   4.583  13.797  0.00  0.00    +0.000 A 
ATOM     26  C   UNL     1       7.479   5.185  14.953  0.00  0.00    +0.000 A 
ATOM     27  C   UNL     1       6.670   5.251  16.094  0.00  0.00    +0.000 A 
ENDBRANCH   4  22
TORSDOF 2
ENDMDL
MODEL 9
REMARK VINA RESULT:      -8.2      1.906      8.994
REMARK  Name = 
REMARK  2 active torsions:
REMARK  status: ('A' for Active; 'I' for Inactive)
REMARK    1  A    between atoms: C_4  and  C_5
REMARK    2  A    between atoms: C_14  and  N_15
REMARK                            x       y       z     vdW  Elec       q    Type
REMARK                         _______ _______ _______ _____ _____    ______ ____
ROOT
ATOM      1  O   UNL     1       2.203   3.969  21.626  0.00  0.00    +0.000 OA
ATOM      2  C   UNL     1       2.282   4.941  20.891  0.00  0.00    +0.000 A 
ATOM      3  C   UNL     1       1.653   6.217  21.241  0.00  0.00    +0.000 A 
ATOM      4  C   UNL     1       1.711   7.249  20.396  0.00  0.00    +0.000 A 
ATOM      5  O   UNL     1       2.381   7.208  19.170  0.00  0.00    +0.000 OA
ATOM      6  C   UNL     1       3.049   6.053  18.834  0.00  0.00    +0.000 A 
ATOM      7  C   UNL     1       3.783   6.033  17.637  0.00  0.00    +0.000 A 
ATOM      8  C   UNL     1       4.544   4.906  17.255  0.00  0.00    +0.000 A 
ATOM      9  C   UNL     1       4.493   3.778  18.090  0.00  0.00    +0.000 A 
ATOM     10  C   UNL     1       3.732   3.769  19.259  0.00  0.00    +0.000 A 
ATOM     11  C   UNL     1       3.028   4.913  19.631  0.00  0.00    +0.000 A 
ENDROOT
BRANCH   8  12
ATOM     12  N   UNL     1       5.322   4.895  16.116  0.00  0.00    +0.000 N 
ATOM     13  C   UNL     1       6.774   4.797  16.156  0.00  0.00    +0.000 C 
ATOM     14  O   UNL     1       7.375   5.548  15.072  0.00  0.00    +0.000 OA
ATOM     15  C   UNL     1       7.020   4.934  13.894  0.00  0.00    +0.000 A 
ATOM     16  C   UNL     1       7.983   4.734  12.917  0.00  0.00    +0.000 A 
ATOM     17  C   UNL     1       7.710   3.829  11.894  0.00  0.00    +0.000 A 
ATOM     18  C   UNL     1       6.483   3.157  11.862  0.00  0.00    +0.000 A 
ATOM     19  C   UNL     1       5.475   3.474  12.780  0.00  0.00    +0.000 A 
ATOM     20  C   UNL     1       5.731   4.409  13.780  0.00  0.00    +0.000 A 
ATOM     21  C   UNL     1       4.718   4.895  14.784  0.00  0.00    +0.000 C 
ENDBRANCH   8  12
BRANCH   4  22
ATOM     22  C   UNL     1       1.087   8.551  20.750  0.00  0.00    +0.000 A 
ATOM     23  C   UNL     1       0.654   8.817  22.058  0.00  0.00    +0.000 A 
ATOM     24  C   UNL     1       0.009  10.021  22.371  0.00  0.00    +0.000 A 
ATOM     25  C   UNL     1      -0.207  10.983  21.386  0.00  0.00    +0.000 A 
ATOM     26  C   UNL     1       0.237  10.752  20.089  0.00  0.00    +0.000 A 
ATOM     27  C   UNL     1       0.887   9.551  19.779  0.00  0.00    +0.000 A 
ENDBRANCH   4  22
TORSDOF 2
ENDMDL
