MODEL 1
REMARK VINA RESULT:      -6.5      0.000      0.000
REMARK  Name = 
REMARK  10 active torsions:
REMARK  status: ('A' for Active; 'I' for Inactive)
REMARK    1  A    between atoms: C_1  and  C_2
REMARK    2  A    between atoms: C_2  and  C_3
REMARK    3  A    between atoms: C_2  and  N_4
REMARK    4  A    between atoms: C_8  and  C_9
REMARK    5  A    between atoms: C_9  and  N_10
REMARK    6  A    between atoms: N_10  and  C_11
REMARK    7  A    between atoms: N_10  and  C_12
REMARK    8  A    between atoms: C_12  and  C_13
REMARK    9  A    between atoms: C_13  and  C_14
REMARK   10  A    between atoms: C_14  and  N_15
REMARK                            x       y       z     vdW  Elec       q    Type
REMARK                         _______ _______ _______ _____ _____    ______ ____
ROOT
ATOM      1  N   UNL     1       6.770   6.332  18.430  0.00  0.00    +0.000 NA
ATOM      2  C   UNL     1       7.855   5.660  19.155  0.00  0.00    +0.000 C 
ENDROOT
BRANCH   1   3
ATOM      3  C   UNL     1       5.887   5.356  17.747  0.00  0.00    +0.000 C 
BRANCH   3   8
ATOM      4  N   UNL     1       3.511   4.451  18.171  0.00  0.00    +0.000 N 
ATOM      5  C   UNL     1       2.255   5.002  18.268  0.00  0.00    +0.000 A 
ATOM      6  C   UNL     1       2.430   6.354  18.146  0.00  0.00    +0.000 A 
ATOM      7  N   UNL     1       3.742   6.647  17.945  0.00  0.00    +0.000 NA
ATOM      8  C   UNL     1       4.400   5.499  17.976  0.00  0.00    +0.000 A 
BRANCH   4  10
ATOM      9  C   UNL     1       4.243   2.519  19.618  0.00  0.00    +0.000 C 
ATOM     10  C   UNL     1       3.817   3.022  18.229  0.00  0.00    +0.000 C 
ATOM     11  C   UNL     1       2.634   2.183  17.744  0.00  0.00    +0.000 C 
ENDBRANCH   4  10
ENDBRANCH   3   8
ENDBRANCH   1   3
BRANCH   1  12
ATOM     12  C   UNL     1       7.325   7.359  17.526  0.00  0.00    +0.000 C 
BRANCH  12  13
ATOM     13  C   UNL     1       8.391   8.212  18.224  0.00  0.00    +0.000 C 
BRANCH  13  14
ATOM     14  C   UNL     1       8.209   9.723  18.012  0.00  0.00    +0.000 C 
BRANCH  14  15
ATOM     15  N   UNL     1       9.334  10.580  18.428  0.00  0.00    +0.000 NA
ATOM     16  C   UNL     1       9.307  11.920  17.845  0.00  0.00    +0.000 C 
ATOM     17  C   UNL     1      10.732  12.438  17.620  0.00  0.00    +0.000 C 
ATOM     18  C   UNL     1      11.412  13.026  18.844  0.00  0.00    +0.000 C 
ATOM     19  C   UNL     1      11.556  12.042  19.995  0.00  0.00    +0.000 C 
ATOM     20  C   UNL     1      10.210  11.678  20.607  0.00  0.00    +0.000 C 
ATOM     21  C   UNL     1       9.451  10.552  19.893  0.00  0.00    +0.000 C 
ENDBRANCH  14  15
ENDBRANCH  13  14
ENDBRANCH  12  13
ENDBRANCH   1  12
TORSDOF 7
ENDMDL
MODEL 2
REMARK VINA RESULT:      -6.3      5.261      8.167
REMARK  Name = 
REMARK  10 active torsions:
REMARK  status: ('A' for Active; 'I' for Inactive)
REMARK    1  A    between atoms: C_1  and  C_2
REMARK    2  A    between atoms: C_2  and  C_3
REMARK    3  A    between atoms: C_2  and  N_4
REMARK    4  A    between atoms: C_8  and  C_9
REMARK    5  A    between atoms: C_9  and  N_10
REMARK    6  A    between atoms: N_10  and  C_11
REMARK    7  A    between atoms: N_10  and  C_12
REMARK    8  A    between atoms: C_12  and  C_13
REMARK    9  A    between atoms: C_13  and  C_14
REMARK   10  A    between atoms: C_14  and  N_15
REMARK                            x       y       z     vdW  Elec       q    Type
REMARK                         _______ _______ _______ _____ _____    ______ ____
ROOT
ATOM      1  N   UNL     1       4.779   4.405  15.771  0.00  0.00    +0.000 NA
ATOM      2  C   UNL     1       3.816   3.442  16.319  0.00  0.00    +0.000 C 
ENDROOT
BRANCH   1   3
ATOM      3  C   UNL     1       6.010   3.730  15.293  0.00  0.00    +0.000 C 
BRANCH   3   8
ATOM      4  N   UNL     1       6.503   3.907  12.769  0.00  0.00    +0.000 N 
ATOM      5  C   UNL     1       7.354   4.650  11.986  0.00  0.00    +0.000 A 
ATOM      6  C   UNL     1       8.009   5.493  12.843  0.00  0.00    +0.000 A 
ATOM      7  N   UNL     1       7.613   5.270  14.125  0.00  0.00    +0.000 NA
ATOM      8  C   UNL     1       6.690   4.322  14.080  0.00  0.00    +0.000 A 
BRANCH   4  10
ATOM      9  C   UNL     1       4.371   3.374  11.532  0.00  0.00    +0.000 C 
ATOM     10  C   UNL     1       5.606   2.857  12.287  0.00  0.00    +0.000 C 
ATOM     11  C   UNL     1       6.348   1.864  11.392  0.00  0.00    +0.000 C 
ENDBRANCH   4  10
ENDBRANCH   3   8
ENDBRANCH   1   3
BRANCH   1  12
ATOM     12  C   UNL     1       5.037   5.478  16.752  0.00  0.00    +0.000 C 
BRANCH  12  13
ATOM     13  C   UNL     1       5.933   4.994  17.899  0.00  0.00    +0.000 C 
BRANCH  13  14
ATOM     14  C   UNL     1       5.287   5.130  19.286  0.00  0.00    +0.000 C 
BRANCH  14  15
ATOM     15  N   UNL     1       3.957   4.513  19.449  0.00  0.00    +0.000 NA
ATOM     16  C   UNL     1       3.981   3.222  20.133  0.00  0.00    +0.000 C 
ATOM     17  C   UNL     1       2.870   2.310  19.601  0.00  0.00    +0.000 C 
ATOM     18  C   UNL     1       1.492   2.554  20.190  0.00  0.00    +0.000 C 
ATOM     19  C   UNL     1       0.961   3.959  19.947  0.00  0.00    +0.000 C 
ATOM     20  C   UNL     1       1.751   5.008  20.718  0.00  0.00    +0.000 C 
ATOM     21  C   UNL     1       3.033   5.497  20.030  0.00  0.00    +0.000 C 
ENDBRANCH  14  15
ENDBRANCH  13  14
ENDBRANCH  12  13
ENDBRANCH   1  12
TORSDOF 7
ENDMDL
MODEL 3
REMARK VINA RESULT:      -6.3      4.791      8.402
REMARK  Name = 
REMARK  10 active torsions:
REMARK  status: ('A' for Active; 'I' for Inactive)
REMARK    1  A    between atoms: C_1  and  C_2
REMARK    2  A    between atoms: C_2  and  C_3
REMARK    3  A    between atoms: C_2  and  N_4
REMARK    4  A    between atoms: C_8  and  C_9
REMARK    5  A    between atoms: C_9  and  N_10
REMARK    6  A    between atoms: N_10  and  C_11
REMARK    7  A    between atoms: N_10  and  C_12
REMARK    8  A    between atoms: C_12  and  C_13
REMARK    9  A    between atoms: C_13  and  C_14
REMARK   10  A    between atoms: C_14  and  N_15
REMARK                            x       y       z     vdW  Elec       q    Type
REMARK                         _______ _______ _______ _____ _____    ______ ____
ROOT
ATOM      1  N   UNL     1       6.103   4.739  16.471  0.00  0.00    +0.000 NA
ATOM      2  C   UNL     1       7.322   5.492  16.791  0.00  0.00    +0.000 C 
ENDROOT
BRANCH   1   3
ATOM      3  C   UNL     1       6.323   3.803  15.343  0.00  0.00    +0.000 C 
BRANCH   3   8
ATOM      4  N   UNL     1       6.535   4.001  12.782  0.00  0.00    +0.000 N 
ATOM      5  C   UNL     1       7.326   4.720  11.916  0.00  0.00    +0.000 A 
ATOM      6  C   UNL     1       8.111   5.518  12.703  0.00  0.00    +0.000 A 
ATOM      7  N   UNL     1       7.853   5.291  14.019  0.00  0.00    +0.000 NA
ATOM      8  C   UNL     1       6.888   4.385  14.068  0.00  0.00    +0.000 A 
BRANCH   4  10
ATOM      9  C   UNL     1       4.337   3.565  11.624  0.00  0.00    +0.000 C 
ATOM     10  C   UNL     1       5.543   3.000  12.392  0.00  0.00    +0.000 C 
ATOM     11  C   UNL     1       6.179   1.887  11.557  0.00  0.00    +0.000 C 
ENDBRANCH   4  10
ENDBRANCH   3   8
ENDBRANCH   1   3
BRANCH   1  12
ATOM     12  C   UNL     1       4.976   5.668  16.257  0.00  0.00    +0.000 C 
BRANCH  12  13
ATOM     13  C   UNL     1       3.896   5.507  17.334  0.00  0.00    +0.000 C 
BRANCH  13  14
ATOM     14  C   UNL     1       3.187   4.144  17.298  0.00  0.00    +0.000 C 
BRANCH  14  15
ATOM     15  N   UNL     1       2.743   3.605  18.597  0.00  0.00    +0.000 NA
ATOM     16  C   UNL     1       3.729   3.747  19.667  0.00  0.00    +0.000 C 
ATOM     17  C   UNL     1       3.627   2.576  20.650  0.00  0.00    +0.000 C 
ATOM     18  C   UNL     1       2.532   2.698  21.695  0.00  0.00    +0.000 C 
ATOM     19  C   UNL     1       1.133   2.806  21.107  0.00  0.00    +0.000 C 
ATOM     20  C   UNL     1       0.924   4.122  20.370  0.00  0.00    +0.000 C 
ATOM     21  C   UNL     1       1.412   4.142  18.916  0.00  0.00    +0.000 C 
ENDBRANCH  14  15
ENDBRANCH  13  14
ENDBRANCH  12  13
ENDBRANCH   1  12
TORSDOF 7
ENDMDL
MODEL 4
REMARK VINA RESULT:      -6.3      3.638      7.182
REMARK  Name = 
REMARK  10 active torsions:
REMARK  status: ('A' for Active; 'I' for Inactive)
REMARK    1  A    between atoms: C_1  and  C_2
REMARK    2  A    between atoms: C_2  and  C_3
REMARK    3  A    between atoms: C_2  and  N_4
REMARK    4  A    between atoms: C_8  and  C_9
REMARK    5  A    between atoms: C_9  and  N_10
REMARK    6  A    between atoms: N_10  and  C_11
REMARK    7  A    between atoms: N_10  and  C_12
REMARK    8  A    between atoms: C_12  and  C_13
REMARK    9  A    between atoms: C_13  and  C_14
REMARK   10  A    between atoms: C_14  and  N_15
REMARK                            x       y       z     vdW  Elec       q    Type
REMARK                         _______ _______ _______ _____ _____    ______ ____
ROOT
ATOM      1  N   UNL     1       3.070   3.758  17.746  0.00  0.00    +0.000 NA
ATOM      2  C   UNL     1       2.676   2.460  18.306  0.00  0.00    +0.000 C 
ENDROOT
BRANCH   1   3
ATOM      3  C   UNL     1       4.450   4.125  18.145  0.00  0.00    +0.000 C 
BRANCH   3   8
ATOM      4  N   UNL     1       6.497   5.221  17.027  0.00  0.00    +0.000 N 
ATOM      5  C   UNL     1       7.137   5.095  15.816  0.00  0.00    +0.000 A 
ATOM      6  C   UNL     1       6.483   4.095  15.150  0.00  0.00    +0.000 A 
ATOM      7  N   UNL     1       5.447   3.626  15.895  0.00  0.00    +0.000 NA
ATOM      8  C   UNL     1       5.463   4.295  17.037  0.00  0.00    +0.000 A 
BRANCH   4  10
ATOM      9  C   UNL     1       7.775   5.634  19.161  0.00  0.00    +0.000 C 
ATOM     10  C   UNL     1       6.841   6.184  18.072  0.00  0.00    +0.000 C 
ATOM     11  C   UNL     1       7.469   7.445  17.477  0.00  0.00    +0.000 C 
ENDBRANCH   4  10
ENDBRANCH   3   8
ENDBRANCH   1   3
BRANCH   1  12
ATOM     12  C   UNL     1       2.064   4.783  18.085  0.00  0.00    +0.000 C 
BRANCH  12  13
ATOM     13  C   UNL     1       2.121   5.164  19.570  0.00  0.00    +0.000 C 
BRANCH  13  14
ATOM     14  C   UNL     1       2.665   6.578  19.823  0.00  0.00    +0.000 C 
BRANCH  14  15
ATOM     15  N   UNL     1       1.719   7.689  19.609  0.00  0.00    +0.000 NA
ATOM     16  C   UNL     1       1.511   8.527  20.788  0.00  0.00    +0.000 C 
ATOM     17  C   UNL     1       0.079   9.070  20.817  0.00  0.00    +0.000 C 
ATOM     18  C   UNL     1      -0.171  10.293  19.952  0.00  0.00    +0.000 C 
ATOM     19  C   UNL     1       0.105  10.064  18.473  0.00  0.00    +0.000 C 
ATOM     20  C   UNL     1       1.588   9.858  18.195  0.00  0.00    +0.000 C 
ATOM     21  C   UNL     1       2.098   8.425  18.395  0.00  0.00    +0.000 C 
ENDBRANCH  14  15
ENDBRANCH  13  14
ENDBRANCH  12  13
ENDBRANCH   1  12
TORSDOF 7
ENDMDL
MODEL 5
REMARK VINA RESULT:      -6.3      3.548      6.905
REMARK  Name = 
REMARK  10 active torsions:
REMARK  status: ('A' for Active; 'I' for Inactive)
REMARK    1  A    between atoms: C_1  and  C_2
REMARK    2  A    between atoms: C_2  and  C_3
REMARK    3  A    between atoms: C_2  and  N_4
REMARK    4  A    between atoms: C_8  and  C_9
REMARK    5  A    between atoms: C_9  and  N_10
REMARK    6  A    between atoms: N_10  and  C_11
REMARK    7  A    between atoms: N_10  and  C_12
REMARK    8  A    between atoms: C_12  and  C_13
REMARK    9  A    between atoms: C_13  and  C_14
REMARK   10  A    between atoms: C_14  and  N_15
REMARK                            x       y       z     vdW  Elec       q    Type
REMARK                         _______ _______ _______ _____ _____    ______ ____
ROOT
ATOM      1  N   UNL     1       3.097   4.088  17.666  0.00  0.00    +0.000 NA
ATOM      2  C   UNL     1       2.561   2.753  17.956  0.00  0.00    +0.000 C 
ENDROOT
BRANCH   1   3
ATOM      3  C   UNL     1       4.517   4.205  18.076  0.00  0.00    +0.000 C 
BRANCH   3   8
ATOM      4  N   UNL     1       6.561   5.338  16.990  0.00  0.00    +0.000 N 
ATOM      5  C   UNL     1       7.209   5.242  15.780  0.00  0.00    +0.000 A 
ATOM      6  C   UNL     1       6.565   4.250  15.091  0.00  0.00    +0.000 A 
ATOM      7  N   UNL     1       5.528   3.758  15.821  0.00  0.00    +0.000 NA
ATOM      8  C   UNL     1       5.535   4.404  16.977  0.00  0.00    +0.000 A 
BRANCH   4  10
ATOM      9  C   UNL     1       7.772   5.697  19.173  0.00  0.00    +0.000 C 
ATOM     10  C   UNL     1       6.893   6.282  18.057  0.00  0.00    +0.000 C 
ATOM     11  C   UNL     1       7.577   7.531  17.496  0.00  0.00    +0.000 C 
ENDBRANCH   4  10
ENDBRANCH   3   8
ENDBRANCH   1   3
BRANCH   1  12
ATOM     12  C   UNL     1       2.225   5.123  18.256  0.00  0.00    +0.000 C 
BRANCH  12  13
ATOM     13  C   UNL     1       3.026   6.349  18.709  0.00  0.00    +0.000 C 
BRANCH  13  14
ATOM     14  C   UNL     1       2.582   7.658  18.037  0.00  0.00    +0.000 C 
BRANCH  14  15
ATOM     15  N   UNL     1       2.000   8.681  18.925  0.00  0.00    +0.000 NA
ATOM     16  C   UNL     1       0.938   9.472  18.304  0.00  0.00    +0.000 C 
ATOM     17  C   UNL     1       0.938  10.901  18.857  0.00  0.00    +0.000 C 
ATOM     18  C   UNL     1       0.239  11.082  20.193  0.00  0.00    +0.000 C 
ATOM     19  C   UNL     1       0.842  10.253  21.317  0.00  0.00    +0.000 C 
ATOM     20  C   UNL     1       0.612   8.762  21.114  0.00  0.00    +0.000 C 
ATOM     21  C   UNL     1       1.631   8.061  20.206  0.00  0.00    +0.000 C 
ENDBRANCH  14  15
ENDBRANCH  13  14
ENDBRANCH  12  13
ENDBRANCH   1  12
TORSDOF 7
ENDMDL
MODEL 6
REMARK VINA RESULT:      -6.2      3.985      6.928
REMARK  Name = 
REMARK  10 active torsions:
REMARK  status: ('A' for Active; 'I' for Inactive)
REMARK    1  A    between atoms: C_1  and  C_2
REMARK    2  A    between atoms: C_2  and  C_3
REMARK    3  A    between atoms: C_2  and  N_4
REMARK    4  A    between atoms: C_8  and  C_9
REMARK    5  A    between atoms: C_9  and  N_10
REMARK    6  A    between atoms: N_10  and  C_11
REMARK    7  A    between atoms: N_10  and  C_12
REMARK    8  A    between atoms: C_12  and  C_13
REMARK    9  A    between atoms: C_13  and  C_14
REMARK   10  A    between atoms: C_14  and  N_15
REMARK                            x       y       z     vdW  Elec       q    Type
REMARK                         _______ _______ _______ _____ _____    ______ ____
ROOT
ATOM      1  N   UNL     1       3.760   3.805  18.604  0.00  0.00    +0.000 NA
ATOM      2  C   UNL     1       3.095   2.498  18.561  0.00  0.00    +0.000 C 
ENDROOT
BRANCH   1   3
ATOM      3  C   UNL     1       5.115   3.706  19.200  0.00  0.00    +0.000 C 
BRANCH   3   8
ATOM      4  N   UNL     1       6.260   5.342  17.571  0.00  0.00    +0.000 N 
ATOM      5  C   UNL     1       7.308   6.230  17.648  0.00  0.00    +0.000 A 
ATOM      6  C   UNL     1       7.736   6.191  18.948  0.00  0.00    +0.000 A 
ATOM      7  N   UNL     1       7.010   5.289  19.661  0.00  0.00    +0.000 NA
ATOM      8  C   UNL     1       6.106   4.786  18.834  0.00  0.00    +0.000 A 
BRANCH   4  10
ATOM      9  C   UNL     1       5.169   6.258  15.490  0.00  0.00    +0.000 C 
ATOM     10  C   UNL     1       5.494   5.036  16.363  0.00  0.00    +0.000 C 
ATOM     11  C   UNL     1       6.212   3.994  15.503  0.00  0.00    +0.000 C 
ENDBRANCH   4  10
ENDBRANCH   3   8
ENDBRANCH   1   3
BRANCH   1  12
ATOM     12  C   UNL     1       2.891   4.794  19.273  0.00  0.00    +0.000 C 
BRANCH  12  13
ATOM     13  C   UNL     1       2.257   5.763  18.268  0.00  0.00    +0.000 C 
BRANCH  13  14
ATOM     14  C   UNL     1       2.758   7.209  18.405  0.00  0.00    +0.000 C 
BRANCH  14  15
ATOM     15  N   UNL     1       1.764   8.203  18.851  0.00  0.00    +0.000 NA
ATOM     16  C   UNL     1       1.729   8.400  20.299  0.00  0.00    +0.000 C 
ATOM     17  C   UNL     1       0.307   8.736  20.762  0.00  0.00    +0.000 C 
ATOM     18  C   UNL     1      -0.106  10.187  20.593  0.00  0.00    +0.000 C 
ATOM     19  C   UNL     1      -0.066  10.672  19.152  0.00  0.00    +0.000 C 
ATOM     20  C   UNL     1       1.358  10.753  18.617  0.00  0.00    +0.000 C 
ATOM     21  C   UNL     1       1.926   9.438  18.069  0.00  0.00    +0.000 C 
ENDBRANCH  14  15
ENDBRANCH  13  14
ENDBRANCH  12  13
ENDBRANCH   1  12
TORSDOF 7
ENDMDL
MODEL 7
REMARK VINA RESULT:      -6.2      5.179      6.695
REMARK  Name = 
REMARK  10 active torsions:
REMARK  status: ('A' for Active; 'I' for Inactive)
REMARK    1  A    between atoms: C_1  and  C_2
REMARK    2  A    between atoms: C_2  and  C_3
REMARK    3  A    between atoms: C_2  and  N_4
REMARK    4  A    between atoms: C_8  and  C_9
REMARK    5  A    between atoms: C_9  and  N_10
REMARK    6  A    between atoms: N_10  and  C_11
REMARK    7  A    between atoms: N_10  and  C_12
REMARK    8  A    between atoms: C_12  and  C_13
REMARK    9  A    between atoms: C_13  and  C_14
REMARK   10  A    between atoms: C_14  and  N_15
REMARK                            x       y       z     vdW  Elec       q    Type
REMARK                         _______ _______ _______ _____ _____    ______ ____
ROOT
ATOM      1  N   UNL     1       4.457   6.243  17.908  0.00  0.00    +0.000 NA
ATOM      2  C   UNL     1       4.977   6.089  16.544  0.00  0.00    +0.000 C 
ENDROOT
BRANCH   1   3
ATOM      3  C   UNL     1       4.655   5.010  18.707  0.00  0.00    +0.000 C 
BRANCH   3   8
ATOM      4  N   UNL     1       2.730   3.439  19.391  0.00  0.00    +0.000 N 
ATOM      5  C   UNL     1       2.099   2.356  18.824  0.00  0.00    +0.000 A 
ATOM      6  C   UNL     1       2.673   2.193  17.592  0.00  0.00    +0.000 A 
ATOM      7  N   UNL     1       3.653   3.115  17.398  0.00  0.00    +0.000 NA
ATOM      8  C   UNL     1       3.678   3.880  18.478  0.00  0.00    +0.000 A 
BRANCH   4  10
ATOM      9  C   UNL     1       1.464   5.153  20.741  0.00  0.00    +0.000 C 
ATOM     10  C   UNL     1       2.456   3.979  20.723  0.00  0.00    +0.000 C 
ATOM     11  C   UNL     1       1.944   2.889  21.666  0.00  0.00    +0.000 C 
ENDBRANCH   4  10
ENDBRANCH   3   8
ENDBRANCH   1   3
BRANCH   1  12
ATOM     12  C   UNL     1       3.055   6.702  17.866  0.00  0.00    +0.000 C 
BRANCH  12  13
ATOM     13  C   UNL     1       2.947   8.217  18.080  0.00  0.00    +0.000 C 
BRANCH  13  14
ATOM     14  C   UNL     1       1.522   8.764  17.909  0.00  0.00    +0.000 C 
BRANCH  14  15
ATOM     15  N   UNL     1       0.908   9.370  19.106  0.00  0.00    +0.000 NA
ATOM     16  C   UNL     1       1.326   8.753  20.364  0.00  0.00    +0.000 C 
ATOM     17  C   UNL     1       0.188   8.800  21.389  0.00  0.00    +0.000 C 
ATOM     18  C   UNL     1       0.034  10.116  22.131  0.00  0.00    +0.000 C 
ATOM     19  C   UNL     1      -0.244  11.303  21.220  0.00  0.00    +0.000 C 
ATOM     20  C   UNL     1       0.956  11.645  20.348  0.00  0.00    +0.000 C 
ATOM     21  C   UNL     1       1.078  10.829  19.054  0.00  0.00    +0.000 C 
ENDBRANCH  14  15
ENDBRANCH  13  14
ENDBRANCH  12  13
ENDBRANCH   1  12
TORSDOF 7
ENDMDL
MODEL 8
REMARK VINA RESULT:      -6.2      4.185      6.945
REMARK  Name = 
REMARK  10 active torsions:
REMARK  status: ('A' for Active; 'I' for Inactive)
REMARK    1  A    between atoms: C_1  and  C_2
REMARK    2  A    between atoms: C_2  and  C_3
REMARK    3  A    between atoms: C_2  and  N_4
REMARK    4  A    between atoms: C_8  and  C_9
REMARK    5  A    between atoms: C_9  and  N_10
REMARK    6  A    between atoms: N_10  and  C_11
REMARK    7  A    between atoms: N_10  and  C_12
REMARK    8  A    between atoms: C_12  and  C_13
REMARK    9  A    between atoms: C_13  and  C_14
REMARK   10  A    between atoms: C_14  and  N_15
REMARK                            x       y       z     vdW  Elec       q    Type
REMARK                         _______ _______ _______ _____ _____    ______ ____
ROOT
ATOM      1  N   UNL     1       3.356   4.567  19.176  0.00  0.00    +0.000 NA
ATOM      2  C   UNL     1       2.762   4.125  20.443  0.00  0.00    +0.000 C 
ENDROOT
BRANCH   1   3
ATOM      3  C   UNL     1       4.647   3.885  18.915  0.00  0.00    +0.000 C 
BRANCH   3   8
ATOM      4  N   UNL     1       6.335   5.323  17.601  0.00  0.00    +0.000 N 
ATOM      5  C   UNL     1       7.503   5.984  17.901  0.00  0.00    +0.000 A 
ATOM      6  C   UNL     1       7.694   5.812  19.245  0.00  0.00    +0.000 A 
ATOM      7  N   UNL     1       6.703   5.045  19.773  0.00  0.00    +0.000 NA
ATOM      8  C   UNL     1       5.871   4.762  18.782  0.00  0.00    +0.000 A 
BRANCH   4  10
ATOM      9  C   UNL     1       5.099   6.521  15.756  0.00  0.00    +0.000 C 
ATOM     10  C   UNL     1       5.736   5.220  16.270  0.00  0.00    +0.000 C 
ATOM     11  C   UNL     1       6.758   4.733  15.241  0.00  0.00    +0.000 C 
ENDBRANCH   4  10
ENDBRANCH   3   8
ENDBRANCH   1   3
BRANCH   1  12
ATOM     12  C   UNL     1       3.449   6.040  19.147  0.00  0.00    +0.000 C 
BRANCH  12  13
ATOM     13  C   UNL     1       2.207   6.673  18.509  0.00  0.00    +0.000 C 
BRANCH  13  14
ATOM     14  C   UNL     1       2.390   8.154  18.142  0.00  0.00    +0.000 C 
BRANCH  14  15
ATOM     15  N   UNL     1       1.660   9.127  18.975  0.00  0.00    +0.000 NA
ATOM     16  C   UNL     1       0.543   9.776  18.291  0.00  0.00    +0.000 C 
ATOM     17  C   UNL     1       0.360  11.209  18.799  0.00  0.00    +0.000 C 
ATOM     18  C   UNL     1      -0.410  11.344  20.101  0.00  0.00    +0.000 C 
ATOM     19  C   UNL     1       0.235  10.619  21.273  0.00  0.00    +0.000 C 
ATOM     20  C   UNL     1       0.183   9.107  21.106  0.00  0.00    +0.000 C 
ATOM     21  C   UNL     1       1.311   8.503  20.259  0.00  0.00    +0.000 C 
ENDBRANCH  14  15
ENDBRANCH  13  14
ENDBRANCH  12  13
ENDBRANCH   1  12
TORSDOF 7
ENDMDL
MODEL 9
REMARK VINA RESULT:      -6.1      4.489      6.592
REMARK  Name = 
REMARK  10 active torsions:
REMARK  status: ('A' for Active; 'I' for Inactive)
REMARK    1  A    between atoms: C_1  and  C_2
REMARK    2  A    between atoms: C_2  and  C_3
REMARK    3  A    between atoms: C_2  and  N_4
REMARK    4  A    between atoms: C_8  and  C_9
REMARK    5  A    between atoms: C_9  and  N_10
REMARK    6  A    between atoms: N_10  and  C_11
REMARK    7  A    between atoms: N_10  and  C_12
REMARK    8  A    between atoms: C_12  and  C_13
REMARK    9  A    between atoms: C_13  and  C_14
REMARK   10  A    between atoms: C_14  and  N_15
REMARK                            x       y       z     vdW  Elec       q    Type
REMARK                         _______ _______ _______ _____ _____    ______ ____
ROOT
ATOM      1  N   UNL     1       4.926   5.890  18.545  0.00  0.00    +0.000 NA
ATOM      2  C   UNL     1       6.069   6.343  17.745  0.00  0.00    +0.000 C 
ENDROOT
BRANCH   1   3
ATOM      3  C   UNL     1       5.093   4.483  18.984  0.00  0.00    +0.000 C 
BRANCH   3   8
ATOM      4  N   UNL     1       2.874   3.237  19.393  0.00  0.00    +0.000 N 
ATOM      5  C   UNL     1       2.165   2.258  18.739  0.00  0.00    +0.000 A 
ATOM      6  C   UNL     1       2.864   1.992  17.593  0.00  0.00    +0.000 A 
ATOM      7  N   UNL     1       3.992   2.749  17.538  0.00  0.00    +0.000 NA
ATOM      8  C   UNL     1       3.992   3.515  18.618  0.00  0.00    +0.000 A 
BRANCH   4  10
ATOM      9  C   UNL     1       1.280   4.745  20.636  0.00  0.00    +0.000 C 
ATOM     10  C   UNL     1       2.513   3.830  20.681  0.00  0.00    +0.000 C 
ATOM     11  C   UNL     1       2.286   2.752  21.741  0.00  0.00    +0.000 C 
ENDBRANCH   4  10
ENDBRANCH   3   8
ENDBRANCH   1   3
BRANCH   1  12
ATOM     12  C   UNL     1       3.667   6.135  17.815  0.00  0.00    +0.000 C 
BRANCH  12  13
ATOM     13  C   UNL     1       2.681   6.964  18.648  0.00  0.00    +0.000 C 
BRANCH  13  14
ATOM     14  C   UNL     1       2.347   8.330  18.028  0.00  0.00    +0.000 C 
BRANCH  14  15
ATOM     15  N   UNL     1       1.564   9.254  18.870  0.00  0.00    +0.000 NA
ATOM     16  C   UNL     1       0.341   9.743  18.236  0.00  0.00    +0.000 C 
ATOM     17  C   UNL     1       0.028  11.169  18.700  0.00  0.00    +0.000 C 
ATOM     18  C   UNL     1      -0.671  11.277  20.044  0.00  0.00    +0.000 C 
ATOM     19  C   UNL     1       0.123  10.682  21.197  0.00  0.00    +0.000 C 
ATOM     20  C   UNL     1       0.232   9.167  21.092  0.00  0.00    +0.000 C 
ATOM     21  C   UNL     1       1.367   8.654  20.197  0.00  0.00    +0.000 C 
ENDBRANCH  14  15
ENDBRANCH  13  14
ENDBRANCH  12  13
ENDBRANCH   1  12
TORSDOF 7
ENDMDL
