MODEL 1
REMARK VINA RESULT:      -6.9      0.000      0.000
REMARK  Name = 
REMARK  7 active torsions:
REMARK  status: ('A' for Active; 'I' for Inactive)
REMARK    1  A    between atoms: C_2  and  C_3
REMARK    2  A    between atoms: C_8  and  O_9
REMARK    3  A    between atoms: O_9  and  C_10
REMARK    4  A    between atoms: C_10  and  N_11
REMARK    5  A    between atoms: N_14  and  C_15
REMARK    6  A    between atoms: C_16  and  C_17
REMARK    7  A    between atoms: N_18  and  O_19
REMARK                            x       y       z     vdW  Elec       q    Type
REMARK                         _______ _______ _______ _____ _____    ______ ____
ROOT
ATOM      1  C   UNL     1       4.919   3.340  18.310  0.00  0.00    +0.000 C 
ENDROOT
BRANCH   1   2
ATOM      2  N   UNL     1       5.455   4.498  17.601  0.00  0.00    +0.000 N 
ATOM      3  C   UNL     1       5.189   4.789  16.272  0.00  0.00    +0.000 A 
ATOM      4  C   UNL     1       5.815   5.958  15.992  0.00  0.00    +0.000 A 
ATOM      5  N   UNL     1       6.473   6.349  17.142  0.00  0.00    +0.000 N 
ATOM      6  C   UNL     1       7.279   7.560  17.272  0.00  0.00    +0.000 C 
ATOM      7  C   UNL     1       6.299   5.421  18.130  0.00  0.00    +0.000 A 
BRANCH   7   8
ATOM      8  C   UNL     1       6.849   5.447  19.430  0.00  0.00    +0.000 C 
ATOM      9  N   UNL     1       8.088   5.179  19.731  0.00  0.00    +0.000 NA
BRANCH   9  10
ATOM     10  O   UNL     1       8.261   5.318  21.109  0.00  0.00    +0.000 OA
ATOM     11  H   UNL     1       8.370   6.282  21.228  0.00  0.00    +0.000 HD
ENDBRANCH   9  10
ENDBRANCH   7   8
ENDBRANCH   1   2
BRANCH   1  12
ATOM     12  O   UNL     1       3.578   3.173  17.891  0.00  0.00    +0.000 OA
BRANCH  12  18
ATOM     13  C   UNL     1       2.966   4.486  19.846  0.00  0.00    +0.000 C 
ATOM     14  C   UNL     1       2.533   3.252  20.667  0.00  0.00    +0.000 C 
ATOM     15  C   UNL     1       1.079   2.842  20.398  0.00  0.00    +0.000 C 
ATOM     16  C   UNL     1       0.793   2.664  18.910  0.00  0.00    +0.000 C 
ATOM     17  C   UNL     1       1.215   3.889  18.104  0.00  0.00    +0.000 C 
ATOM     18  C   UNL     1       2.698   4.240  18.336  0.00  0.00    +0.000 C 
BRANCH  13  20
ATOM     19  C   UNL     1       1.509   6.722  20.769  0.00  0.00    +0.000 C 
ATOM     20  C   UNL     1       2.182   5.690  20.343  0.00  0.00    +0.000 C 
ENDBRANCH  13  20
ENDBRANCH  12  18
ENDBRANCH   1  12
TORSDOF 6
ENDMDL
MODEL 2
REMARK VINA RESULT:      -6.9      1.223      1.733
REMARK  Name = 
REMARK  7 active torsions:
REMARK  status: ('A' for Active; 'I' for Inactive)
REMARK    1  A    between atoms: C_2  and  C_3
REMARK    2  A    between atoms: C_8  and  O_9
REMARK    3  A    between atoms: O_9  and  C_10
REMARK    4  A    between atoms: C_10  and  N_11
REMARK    5  A    between atoms: N_14  and  C_15
REMARK    6  A    between atoms: C_16  and  C_17
REMARK    7  A    between atoms: N_18  and  O_19
REMARK                            x       y       z     vdW  Elec       q    Type
REMARK                         _______ _______ _______ _____ _____    ______ ____
ROOT
ATOM      1  C   UNL     1       5.742   3.893  17.716  0.00  0.00    +0.000 C 
ENDROOT
BRANCH   1   2
ATOM      2  N   UNL     1       6.097   5.261  17.349  0.00  0.00    +0.000 N 
ATOM      3  C   UNL     1       5.531   5.955  16.291  0.00  0.00    +0.000 A 
ATOM      4  C   UNL     1       6.072   7.197  16.301  0.00  0.00    +0.000 A 
ATOM      5  N   UNL     1       6.977   7.235  17.344  0.00  0.00    +0.000 N 
ATOM      6  C   UNL     1       7.788   8.396  17.705  0.00  0.00    +0.000 C 
ATOM      7  C   UNL     1       7.038   6.020  17.967  0.00  0.00    +0.000 A 
BRANCH   7   8
ATOM      8  C   UNL     1       7.873   5.657  19.046  0.00  0.00    +0.000 C 
ATOM      9  N   UNL     1       7.470   5.400  20.258  0.00  0.00    +0.000 NA
BRANCH   9  10
ATOM     10  O   UNL     1       8.575   5.069  21.044  0.00  0.00    +0.000 OA
ATOM     11  H   UNL     1       8.278   4.276  21.532  0.00  0.00    +0.000 HD
ENDBRANCH   9  10
ENDBRANCH   7   8
ENDBRANCH   1   2
BRANCH   1  12
ATOM     12  O   UNL     1       4.336   3.778  17.607  0.00  0.00    +0.000 OA
BRANCH  12  18
ATOM     13  C   UNL     1       3.258   2.690  19.497  0.00  0.00    +0.000 C 
ATOM     14  C   UNL     1       2.222   1.959  18.618  0.00  0.00    +0.000 C 
ATOM     15  C   UNL     1       0.988   2.820  18.316  0.00  0.00    +0.000 C 
ATOM     16  C   UNL     1       1.358   4.184  17.743  0.00  0.00    +0.000 C 
ATOM     17  C   UNL     1       2.377   4.907  18.620  0.00  0.00    +0.000 C 
ATOM     18  C   UNL     1       3.638   4.051  18.851  0.00  0.00    +0.000 C 
BRANCH  13  20
ATOM     19  C   UNL     1       2.133   3.080  22.058  0.00  0.00    +0.000 C 
ATOM     20  C   UNL     1       2.652   2.900  20.876  0.00  0.00    +0.000 C 
ENDBRANCH  13  20
ENDBRANCH  12  18
ENDBRANCH   1  12
TORSDOF 6
ENDMDL
MODEL 3
REMARK VINA RESULT:      -6.8      2.463      5.891
REMARK  Name = 
REMARK  7 active torsions:
REMARK  status: ('A' for Active; 'I' for Inactive)
REMARK    1  A    between atoms: C_2  and  C_3
REMARK    2  A    between atoms: C_8  and  O_9
REMARK    3  A    between atoms: O_9  and  C_10
REMARK    4  A    between atoms: C_10  and  N_11
REMARK    5  A    between atoms: N_14  and  C_15
REMARK    6  A    between atoms: C_16  and  C_17
REMARK    7  A    between atoms: N_18  and  O_19
REMARK                            x       y       z     vdW  Elec       q    Type
REMARK                         _______ _______ _______ _____ _____    ______ ____
ROOT
ATOM      1  C   UNL     1       3.523   5.322  17.679  0.00  0.00    +0.000 C 
ENDROOT
BRANCH   1   2
ATOM      2  N   UNL     1       2.927   5.046  18.982  0.00  0.00    +0.000 N 
ATOM      3  C   UNL     1       2.251   5.986  19.744  0.00  0.00    +0.000 A 
ATOM      4  C   UNL     1       1.803   5.346  20.852  0.00  0.00    +0.000 A 
ATOM      5  N   UNL     1       2.234   4.037  20.764  0.00  0.00    +0.000 N 
ATOM      6  C   UNL     1       1.969   3.002  21.760  0.00  0.00    +0.000 C 
ATOM      7  C   UNL     1       2.978   3.855  19.632  0.00  0.00    +0.000 A 
BRANCH   7   8
ATOM      8  C   UNL     1       3.621   2.669  19.217  0.00  0.00    +0.000 C 
ATOM      9  N   UNL     1       3.108   1.769  18.426  0.00  0.00    +0.000 NA
BRANCH   9  10
ATOM     10  O   UNL     1       4.040   0.747  18.236  0.00  0.00    +0.000 OA
ATOM     11  H   UNL     1       4.260   0.467  19.147  0.00  0.00    +0.000 HD
ENDBRANCH   9  10
ENDBRANCH   7   8
ENDBRANCH   1   2
BRANCH   1  12
ATOM     12  O   UNL     1       4.511   6.317  17.868  0.00  0.00    +0.000 OA
BRANCH  12  18
ATOM     13  C   UNL     1       5.676   4.966  16.214  0.00  0.00    +0.000 C 
ATOM     14  C   UNL     1       6.370   4.084  17.273  0.00  0.00    +0.000 C 
ATOM     15  C   UNL     1       7.675   4.699  17.795  0.00  0.00    +0.000 C 
ATOM     16  C   UNL     1       7.485   6.131  18.285  0.00  0.00    +0.000 C 
ATOM     17  C   UNL     1       6.805   7.003  17.232  0.00  0.00    +0.000 C 
ATOM     18  C   UNL     1       5.463   6.400  16.774  0.00  0.00    +0.000 C 
BRANCH  13  20
ATOM     19  C   UNL     1       7.301   5.027  13.905  0.00  0.00    +0.000 C 
ATOM     20  C   UNL     1       6.551   4.999  14.971  0.00  0.00    +0.000 C 
ENDBRANCH  13  20
ENDBRANCH  12  18
ENDBRANCH   1  12
TORSDOF 6
ENDMDL
MODEL 4
REMARK VINA RESULT:      -6.8      2.576      5.977
REMARK  Name = 
REMARK  7 active torsions:
REMARK  status: ('A' for Active; 'I' for Inactive)
REMARK    1  A    between atoms: C_2  and  C_3
REMARK    2  A    between atoms: C_8  and  O_9
REMARK    3  A    between atoms: O_9  and  C_10
REMARK    4  A    between atoms: C_10  and  N_11
REMARK    5  A    between atoms: N_14  and  C_15
REMARK    6  A    between atoms: C_16  and  C_17
REMARK    7  A    between atoms: N_18  and  O_19
REMARK                            x       y       z     vdW  Elec       q    Type
REMARK                         _______ _______ _______ _____ _____    ______ ____
ROOT
ATOM      1  C   UNL     1       2.937   4.928  17.599  0.00  0.00    +0.000 C 
ENDROOT
BRANCH   1   2
ATOM      2  N   UNL     1       2.547   4.679  18.983  0.00  0.00    +0.000 N 
ATOM      3  C   UNL     1       2.170   5.671  19.876  0.00  0.00    +0.000 A 
ATOM      4  C   UNL     1       1.833   5.051  21.033  0.00  0.00    +0.000 A 
ATOM      5  N   UNL     1       2.033   3.698  20.840  0.00  0.00    +0.000 N 
ATOM      6  C   UNL     1       1.792   2.667  21.845  0.00  0.00    +0.000 C 
ATOM      7  C   UNL     1       2.527   3.463  19.587  0.00  0.00    +0.000 A 
BRANCH   7   8
ATOM      8  C   UNL     1       2.894   2.217  19.036  0.00  0.00    +0.000 C 
ATOM      9  N   UNL     1       4.090   1.700  19.071  0.00  0.00    +0.000 NA
BRANCH   9  10
ATOM     10  O   UNL     1       4.066   0.457  18.435  0.00  0.00    +0.000 OA
ATOM     11  H   UNL     1       3.456  -0.070  18.988  0.00  0.00    +0.000 HD
ENDBRANCH   9  10
ENDBRANCH   7   8
ENDBRANCH   1   2
BRANCH   1  12
ATOM     12  O   UNL     1       4.307   4.593  17.480  0.00  0.00    +0.000 OA
BRANCH  12  18
ATOM     13  C   UNL     1       6.267   4.313  16.066  0.00  0.00    +0.000 C 
ATOM     14  C   UNL     1       7.249   4.789  17.156  0.00  0.00    +0.000 C 
ATOM     15  C   UNL     1       7.402   6.316  17.189  0.00  0.00    +0.000 C 
ATOM     16  C   UNL     1       6.059   7.032  17.283  0.00  0.00    +0.000 C 
ATOM     17  C   UNL     1       5.093   6.562  16.198  0.00  0.00    +0.000 C 
ATOM     18  C   UNL     1       4.901   5.034  16.229  0.00  0.00    +0.000 C 
BRANCH  13  20
ATOM     19  C   UNL     1       7.399   4.877  13.541  0.00  0.00    +0.000 C 
ATOM     20  C   UNL     1       6.876   4.617  14.707  0.00  0.00    +0.000 C 
ENDBRANCH  13  20
ENDBRANCH  12  18
ENDBRANCH   1  12
TORSDOF 6
ENDMDL
MODEL 5
REMARK VINA RESULT:      -6.7      2.595      5.513
REMARK  Name = 
REMARK  7 active torsions:
REMARK  status: ('A' for Active; 'I' for Inactive)
REMARK    1  A    between atoms: C_2  and  C_3
REMARK    2  A    between atoms: C_8  and  O_9
REMARK    3  A    between atoms: O_9  and  C_10
REMARK    4  A    between atoms: C_10  and  N_11
REMARK    5  A    between atoms: N_14  and  C_15
REMARK    6  A    between atoms: C_16  and  C_17
REMARK    7  A    between atoms: N_18  and  O_19
REMARK                            x       y       z     vdW  Elec       q    Type
REMARK                         _______ _______ _______ _____ _____    ______ ____
ROOT
ATOM      1  C   UNL     1       3.150   3.546  17.383  0.00  0.00    +0.000 C 
ENDROOT
BRANCH   1   2
ATOM      2  N   UNL     1       2.441   3.589  18.658  0.00  0.00    +0.000 N 
ATOM      3  C   UNL     1       1.403   4.463  18.943  0.00  0.00    +0.000 A 
ATOM      4  C   UNL     1       0.972   4.167  20.193  0.00  0.00    +0.000 A 
ATOM      5  N   UNL     1       1.767   3.139  20.662  0.00  0.00    +0.000 N 
ATOM      6  C   UNL     1       1.640   2.520  21.979  0.00  0.00    +0.000 C 
ATOM      7  C   UNL     1       2.716   2.810  19.736  0.00  0.00    +0.000 A 
BRANCH   7   8
ATOM      8  C   UNL     1       3.733   1.840  19.866  0.00  0.00    +0.000 C 
ATOM      9  N   UNL     1       4.879   2.022  20.458  0.00  0.00    +0.000 NA
BRANCH   9  10
ATOM     10  O   UNL     1       5.616   0.838  20.396  0.00  0.00    +0.000 OA
ATOM     11  H   UNL     1       5.514   0.459  21.291  0.00  0.00    +0.000 HD
ENDBRANCH   9  10
ENDBRANCH   7   8
ENDBRANCH   1   2
BRANCH   1  12
ATOM     12  O   UNL     1       3.499   4.876  17.049  0.00  0.00    +0.000 OA
BRANCH  12  18
ATOM     13  C   UNL     1       5.235   6.554  16.743  0.00  0.00    +0.000 C 
ATOM     14  C   UNL     1       5.374   6.282  15.231  0.00  0.00    +0.000 C 
ATOM     15  C   UNL     1       6.336   5.126  14.922  0.00  0.00    +0.000 C 
ATOM     16  C   UNL     1       5.987   3.860  15.698  0.00  0.00    +0.000 C 
ATOM     17  C   UNL     1       5.857   4.132  17.194  0.00  0.00    +0.000 C 
ATOM     18  C   UNL     1       4.834   5.247  17.483  0.00  0.00    +0.000 C 
BRANCH  13  20
ATOM     19  C   UNL     1       7.705   7.529  17.703  0.00  0.00    +0.000 C 
ATOM     20  C   UNL     1       6.564   7.079  17.260  0.00  0.00    +0.000 C 
ENDBRANCH  13  20
ENDBRANCH  12  18
ENDBRANCH   1  12
TORSDOF 6
ENDMDL
MODEL 6
REMARK VINA RESULT:      -6.7      2.546      5.852
REMARK  Name = 
REMARK  7 active torsions:
REMARK  status: ('A' for Active; 'I' for Inactive)
REMARK    1  A    between atoms: C_2  and  C_3
REMARK    2  A    between atoms: C_8  and  O_9
REMARK    3  A    between atoms: O_9  and  C_10
REMARK    4  A    between atoms: C_10  and  N_11
REMARK    5  A    between atoms: N_14  and  C_15
REMARK    6  A    between atoms: C_16  and  C_17
REMARK    7  A    between atoms: N_18  and  O_19
REMARK                            x       y       z     vdW  Elec       q    Type
REMARK                         _______ _______ _______ _____ _____    ______ ____
ROOT
ATOM      1  C   UNL     1       3.400   3.715  17.504  0.00  0.00    +0.000 C 
ENDROOT
BRANCH   1   2
ATOM      2  N   UNL     1       2.570   3.687  18.704  0.00  0.00    +0.000 N 
ATOM      3  C   UNL     1       1.507   4.547  18.935  0.00  0.00    +0.000 A 
ATOM      4  C   UNL     1       0.955   4.182  20.118  0.00  0.00    +0.000 A 
ATOM      5  N   UNL     1       1.703   3.126  20.604  0.00  0.00    +0.000 N 
ATOM      6  C   UNL     1       1.449   2.434  21.864  0.00  0.00    +0.000 C 
ATOM      7  C   UNL     1       2.740   2.848  19.758  0.00  0.00    +0.000 A 
BRANCH   7   8
ATOM      8  C   UNL     1       3.741   1.868  19.932  0.00  0.00    +0.000 C 
ATOM      9  N   UNL     1       4.902   2.066  20.487  0.00  0.00    +0.000 NA
BRANCH   9  10
ATOM     10  O   UNL     1       5.616   0.866  20.489  0.00  0.00    +0.000 OA
ATOM     11  H   UNL     1       6.263   0.986  19.766  0.00  0.00    +0.000 HD
ENDBRANCH   9  10
ENDBRANCH   7   8
ENDBRANCH   1   2
BRANCH   1  12
ATOM     12  O   UNL     1       4.125   4.930  17.520  0.00  0.00    +0.000 OA
BRANCH  12  18
ATOM     13  C   UNL     1       5.978   4.316  16.068  0.00  0.00    +0.000 C 
ATOM     14  C   UNL     1       7.052   4.655  17.124  0.00  0.00    +0.000 C 
ATOM     15  C   UNL     1       7.442   6.139  17.116  0.00  0.00    +0.000 C 
ATOM     16  C   UNL     1       6.230   7.059  17.223  0.00  0.00    +0.000 C 
ATOM     17  C   UNL     1       5.174   6.724  16.172  0.00  0.00    +0.000 C 
ATOM     18  C   UNL     1       4.746   5.246  16.245  0.00  0.00    +0.000 C 
BRANCH  13  20
ATOM     19  C   UNL     1       7.117   4.644  13.505  0.00  0.00    +0.000 C 
ATOM     20  C   UNL     1       6.591   4.493  14.688  0.00  0.00    +0.000 C 
ENDBRANCH  13  20
ENDBRANCH  12  18
ENDBRANCH   1  12
TORSDOF 6
ENDMDL
MODEL 7
REMARK VINA RESULT:      -6.6      2.673      6.022
REMARK  Name = 
REMARK  7 active torsions:
REMARK  status: ('A' for Active; 'I' for Inactive)
REMARK    1  A    between atoms: C_2  and  C_3
REMARK    2  A    between atoms: C_8  and  O_9
REMARK    3  A    between atoms: O_9  and  C_10
REMARK    4  A    between atoms: C_10  and  N_11
REMARK    5  A    between atoms: N_14  and  C_15
REMARK    6  A    between atoms: C_16  and  C_17
REMARK    7  A    between atoms: N_18  and  O_19
REMARK                            x       y       z     vdW  Elec       q    Type
REMARK                         _______ _______ _______ _____ _____    ______ ____
ROOT
ATOM      1  C   UNL     1       3.012   4.441  17.303  0.00  0.00    +0.000 C 
ENDROOT
BRANCH   1   2
ATOM      2  N   UNL     1       2.511   3.580  18.370  0.00  0.00    +0.000 N 
ATOM      3  C   UNL     1       2.165   2.249  18.198  0.00  0.00    +0.000 A 
ATOM      4  C   UNL     1       1.799   1.777  19.415  0.00  0.00    +0.000 A 
ATOM      5  N   UNL     1       1.900   2.830  20.303  0.00  0.00    +0.000 N 
ATOM      6  C   UNL     1       1.593   2.751  21.729  0.00  0.00    +0.000 C 
ATOM      7  C   UNL     1       2.291   3.967  19.653  0.00  0.00    +0.000 A 
BRANCH   7   8
ATOM      8  C   UNL     1       2.465   5.251  20.212  0.00  0.00    +0.000 C 
ATOM      9  N   UNL     1       1.509   6.102  20.459  0.00  0.00    +0.000 NA
BRANCH   9  10
ATOM     10  O   UNL     1       2.062   7.256  21.018  0.00  0.00    +0.000 OA
ATOM     11  H   UNL     1       1.339   7.608  21.574  0.00  0.00    +0.000 HD
ENDBRANCH   9  10
ENDBRANCH   7   8
ENDBRANCH   1   2
BRANCH   1  12
ATOM     12  O   UNL     1       4.409   4.233  17.214  0.00  0.00    +0.000 OA
BRANCH  12  18
ATOM     13  C   UNL     1       6.452   4.269  15.893  0.00  0.00    +0.000 C 
ATOM     14  C   UNL     1       7.316   4.800  17.055  0.00  0.00    +0.000 C 
ATOM     15  C   UNL     1       7.279   6.330  17.171  0.00  0.00    +0.000 C 
ATOM     16  C   UNL     1       5.854   6.872  17.228  0.00  0.00    +0.000 C 
ATOM     17  C   UNL     1       5.005   6.350  16.072  0.00  0.00    +0.000 C 
ATOM     18  C   UNL     1       5.001   4.810  16.019  0.00  0.00    +0.000 C 
BRANCH  13  20
ATOM     19  C   UNL     1       7.622   5.103  13.462  0.00  0.00    +0.000 C 
ATOM     20  C   UNL     1       7.082   4.718  14.584  0.00  0.00    +0.000 C 
ENDBRANCH  13  20
ENDBRANCH  12  18
ENDBRANCH   1  12
TORSDOF 6
ENDMDL
MODEL 8
REMARK VINA RESULT:      -6.6      2.264      5.525
REMARK  Name = 
REMARK  7 active torsions:
REMARK  status: ('A' for Active; 'I' for Inactive)
REMARK    1  A    between atoms: C_2  and  C_3
REMARK    2  A    between atoms: C_8  and  O_9
REMARK    3  A    between atoms: O_9  and  C_10
REMARK    4  A    between atoms: C_10  and  N_11
REMARK    5  A    between atoms: N_14  and  C_15
REMARK    6  A    between atoms: C_16  and  C_17
REMARK    7  A    between atoms: N_18  and  O_19
REMARK                            x       y       z     vdW  Elec       q    Type
REMARK                         _______ _______ _______ _____ _____    ______ ____
ROOT
ATOM      1  C   UNL     1       5.279   3.839  19.032  0.00  0.00    +0.000 C 
ENDROOT
BRANCH   1   2
ATOM      2  N   UNL     1       3.936   3.269  19.094  0.00  0.00    +0.000 N 
ATOM      3  C   UNL     1       3.597   2.020  18.598  0.00  0.00    +0.000 A 
ATOM      4  C   UNL     1       2.287   1.825  18.886  0.00  0.00    +0.000 A 
ATOM      5  N   UNL     1       1.840   2.964  19.528  0.00  0.00    +0.000 N 
ATOM      6  C   UNL     1       0.477   3.171  20.008  0.00  0.00    +0.000 C 
ATOM      7  C   UNL     1       2.844   3.887  19.614  0.00  0.00    +0.000 A 
BRANCH   7   8
ATOM      8  C   UNL     1       2.764   5.184  20.163  0.00  0.00    +0.000 C 
ATOM      9  N   UNL     1       2.320   6.241  19.543  0.00  0.00    +0.000 NA
BRANCH   9  10
ATOM     10  O   UNL     1       2.382   7.335  20.407  0.00  0.00    +0.000 OA
ATOM     11  H   UNL     1       1.502   7.340  20.832  0.00  0.00    +0.000 HD
ENDBRANCH   9  10
ENDBRANCH   7   8
ENDBRANCH   1   2
BRANCH   1  12
ATOM     12  O   UNL     1       5.661   3.871  17.670  0.00  0.00    +0.000 OA
BRANCH  12  18
ATOM     13  C   UNL     1       6.074   6.264  17.824  0.00  0.00    +0.000 C 
ATOM     14  C   UNL     1       4.854   6.635  16.956  0.00  0.00    +0.000 C 
ATOM     15  C   UNL     1       5.164   6.605  15.454  0.00  0.00    +0.000 C 
ATOM     16  C   UNL     1       5.791   5.285  15.017  0.00  0.00    +0.000 C 
ATOM     17  C   UNL     1       7.003   4.926  15.874  0.00  0.00    +0.000 C 
ATOM     18  C   UNL     1       6.650   4.893  17.373  0.00  0.00    +0.000 C 
BRANCH  13  20
ATOM     19  C   UNL     1       8.012   8.300  17.550  0.00  0.00    +0.000 C 
ATOM     20  C   UNL     1       7.117   7.360  17.677  0.00  0.00    +0.000 C 
ENDBRANCH  13  20
ENDBRANCH  12  18
ENDBRANCH   1  12
TORSDOF 6
ENDMDL
MODEL 9
REMARK VINA RESULT:      -6.6      2.559      5.161
REMARK  Name = 
REMARK  7 active torsions:
REMARK  status: ('A' for Active; 'I' for Inactive)
REMARK    1  A    between atoms: C_2  and  C_3
REMARK    2  A    between atoms: C_8  and  O_9
REMARK    3  A    between atoms: O_9  and  C_10
REMARK    4  A    between atoms: C_10  and  N_11
REMARK    5  A    between atoms: N_14  and  C_15
REMARK    6  A    between atoms: C_16  and  C_17
REMARK    7  A    between atoms: N_18  and  O_19
REMARK                            x       y       z     vdW  Elec       q    Type
REMARK                         _______ _______ _______ _____ _____    ______ ____
ROOT
ATOM      1  C   UNL     1       3.688   2.526  17.315  0.00  0.00    +0.000 C 
ENDROOT
BRANCH   1   2
ATOM      2  N   UNL     1       2.757   2.851  18.391  0.00  0.00    +0.000 N 
ATOM      3  C   UNL     1       1.619   3.626  18.229  0.00  0.00    +0.000 A 
ATOM      4  C   UNL     1       0.991   3.659  19.429  0.00  0.00    +0.000 A 
ATOM      5  N   UNL     1       1.765   2.929  20.311  0.00  0.00    +0.000 N 
ATOM      6  C   UNL     1       1.448   2.715  21.720  0.00  0.00    +0.000 C 
ATOM      7  C   UNL     1       2.891   2.468  19.688  0.00  0.00    +0.000 A 
BRANCH   7   8
ATOM      8  C   UNL     1       3.939   1.721  20.266  0.00  0.00    +0.000 C 
ATOM      9  N   UNL     1       4.853   2.196  21.064  0.00  0.00    +0.000 NA
BRANCH   9  10
ATOM     10  O   UNL     1       5.711   1.161  21.440  0.00  0.00    +0.000 OA
ATOM     11  H   UNL     1       5.276   0.779  22.227  0.00  0.00    +0.000 HD
ENDBRANCH   9  10
ENDBRANCH   7   8
ENDBRANCH   1   2
BRANCH   1  12
ATOM     12  O   UNL     1       4.031   3.740  16.674  0.00  0.00    +0.000 OA
BRANCH  12  18
ATOM     13  C   UNL     1       5.274   5.022  18.326  0.00  0.00    +0.000 C 
ATOM     14  C   UNL     1       4.450   6.307  18.099  0.00  0.00    +0.000 C 
ATOM     15  C   UNL     1       4.982   7.154  16.936  0.00  0.00    +0.000 C 
ATOM     16  C   UNL     1       5.138   6.345  15.653  0.00  0.00    +0.000 C 
ATOM     17  C   UNL     1       5.959   5.078  15.880  0.00  0.00    +0.000 C 
ATOM     18  C   UNL     1       5.365   4.209  17.006  0.00  0.00    +0.000 C 
BRANCH  13  20
ATOM     19  C   UNL     1       7.847   5.762  19.225  0.00  0.00    +0.000 C 
ATOM     20  C   UNL     1       6.659   5.421  18.810  0.00  0.00    +0.000 C 
ENDBRANCH  13  20
ENDBRANCH  12  18
ENDBRANCH   1  12
TORSDOF 6
ENDMDL
