MODEL 1
REMARK VINA RESULT:      -7.8      0.000      0.000
REMARK  Name = 
REMARK  4 active torsions:
REMARK  status: ('A' for Active; 'I' for Inactive)
REMARK    1  A    between atoms: C_1  and  C_2
REMARK    2  A    between atoms: C_5  and  C_6
REMARK    3  A    between atoms: N_8  and  N_9
REMARK    4  A    between atoms: N_22  and  C_23
REMARK                            x       y       z     vdW  Elec       q    Type
REMARK                         _______ _______ _______ _____ _____    ______ ____
ROOT
ATOM      1  N   UNL     1      -1.481  13.216  19.371  0.00  0.00    +0.000 N 
ATOM      2  C   UNL     1      -0.133  13.455  19.858  0.00  0.00    +0.000 A 
ATOM      3  C   UNL     1       0.138  14.305  20.961  0.00  0.00    +0.000 A 
ATOM      4  C   UNL     1       1.431  14.437  21.505  0.00  0.00    +0.000 A 
ATOM      5  C   UNL     1       2.505  13.785  20.920  0.00  0.00    +0.000 A 
ATOM      6 CL   UNL     1       4.074  13.869  21.619  0.00  0.00    +0.000 Cl
ATOM      7  C   UNL     1       2.295  13.018  19.789  0.00  0.00    +0.000 A 
ATOM      8  C   UNL     1       0.996  12.834  19.276  0.00  0.00    +0.000 A 
ATOM      9  N   UNL     1       0.926  11.880  18.260  0.00  0.00    +0.000 NA
ATOM     10  C   UNL     1       0.233  10.840  18.606  0.00  0.00    +0.000 C 
ATOM     11  N   UNL     1       0.853   9.624  18.837  0.00  0.00    +0.000 N 
ATOM     12  C   UNL     1       1.896   9.233  17.882  0.00  0.00    +0.000 C 
ATOM     13  C   UNL     1       2.196   7.739  18.056  0.00  0.00    +0.000 C 
ATOM     14  N   UNL     1       2.660   7.460  19.432  0.00  0.00    +0.000 NA
ATOM     15  C   UNL     1       3.025   6.061  19.579  0.00  0.00    +0.000 C 
ATOM     16  C   UNL     1       1.601   7.848  20.388  0.00  0.00    +0.000 C 
ATOM     17  C   UNL     1       1.208   9.330  20.236  0.00  0.00    +0.000 C 
ATOM     18  C   UNL     1      -1.238  10.867  18.528  0.00  0.00    +0.000 A 
ATOM     19  C   UNL     1      -1.845   9.661  18.116  0.00  0.00    +0.000 A 
ATOM     20  C   UNL     1      -3.165   9.637  17.699  0.00  0.00    +0.000 A 
ATOM     21  C   UNL     1      -3.861  10.830  17.651  0.00  0.00    +0.000 A 
ATOM     22  C   UNL     1      -3.268  12.008  18.129  0.00  0.00    +0.000 A 
ATOM     23  C   UNL     1      -1.963  12.051  18.668  0.00  0.00    +0.000 A 
ENDROOT
BRANCH   1  26
ATOM     24  C   UNL     1      -2.792  12.913  21.406  0.00  0.00    +0.000 C 
ATOM     25  O   UNL     1      -2.181  11.914  21.777  0.00  0.00    +0.000 OA
ATOM     26  N   UNL     1      -2.477  13.667  20.290  0.00  0.00    +0.000 N 
ATOM     27  H   UNL     1      -3.024  14.451  19.965  0.00  0.00    +0.000 HD
BRANCH  24  32
ATOM     28  C   UNL     1      -7.744  13.506  24.274  0.00  0.00    +0.000 C 
ATOM     29  C   UNL     1      -6.412  13.580  23.591  0.00  0.00    +0.000 A 
ATOM     30  C   UNL     1      -6.260  14.200  22.344  0.00  0.00    +0.000 A 
ATOM     31  C   UNL     1      -5.057  14.085  21.635  0.00  0.00    +0.000 A 
ATOM     32  C   UNL     1      -4.006  13.328  22.169  0.00  0.00    +0.000 A 
ATOM     33  C   UNL     1      -4.121  12.818  23.468  0.00  0.00    +0.000 A 
ATOM     34  C   UNL     1      -5.318  12.929  24.166  0.00  0.00    +0.000 A 
ENDBRANCH  24  32
ENDBRANCH   1  26
TORSDOF 2
ENDMDL
MODEL 2
REMARK VINA RESULT:      -7.6      2.624      8.166
REMARK  Name = 
REMARK  4 active torsions:
REMARK  status: ('A' for Active; 'I' for Inactive)
REMARK    1  A    between atoms: C_1  and  C_2
REMARK    2  A    between atoms: C_5  and  C_6
REMARK    3  A    between atoms: N_8  and  N_9
REMARK    4  A    between atoms: N_22  and  C_23
REMARK                            x       y       z     vdW  Elec       q    Type
REMARK                         _______ _______ _______ _____ _____    ______ ____
ROOT
ATOM      1  N   UNL     1       0.063  11.392  18.118  0.00  0.00    +0.000 N 
ATOM      2  C   UNL     1      -1.370  11.150  18.094  0.00  0.00    +0.000 A 
ATOM      3  C   UNL     1      -1.925   9.908  17.695  0.00  0.00    +0.000 A 
ATOM      4  C   UNL     1      -3.305   9.638  17.791  0.00  0.00    +0.000 A 
ATOM      5  C   UNL     1      -4.181  10.624  18.215  0.00  0.00    +0.000 A 
ATOM      6 CL   UNL     1      -5.856  10.288  18.415  0.00  0.00    +0.000 Cl
ATOM      7  C   UNL     1      -3.688  11.877  18.527  0.00  0.00    +0.000 A 
ATOM      8  C   UNL     1      -2.303  12.134  18.491  0.00  0.00    +0.000 A 
ATOM      9  N   UNL     1      -1.952  13.376  19.022  0.00  0.00    +0.000 NA
ATOM     10  C   UNL     1      -1.244  13.268  20.103  0.00  0.00    +0.000 C 
ATOM     11  N   UNL     1      -1.780  13.604  21.335  0.00  0.00    +0.000 N 
ATOM     12  C   UNL     1      -2.580  14.833  21.383  0.00  0.00    +0.000 C 
ATOM     13  C   UNL     1      -2.767  15.248  22.848  0.00  0.00    +0.000 C 
ATOM     14  N   UNL     1      -3.457  14.182  23.606  0.00  0.00    +0.000 NA
ATOM     15  C   UNL     1      -3.711  14.603  24.974  0.00  0.00    +0.000 C 
ATOM     16  C   UNL     1      -2.641  12.950  23.560  0.00  0.00    +0.000 C 
ATOM     17  C   UNL     1      -2.367  12.499  22.113  0.00  0.00    +0.000 C 
ATOM     18  C   UNL     1       0.206  13.019  20.021  0.00  0.00    +0.000 A 
ATOM     19  C   UNL     1       0.991  13.680  20.990  0.00  0.00    +0.000 A 
ATOM     20  C   UNL     1       2.362  13.791  20.838  0.00  0.00    +0.000 A 
ATOM     21  C   UNL     1       2.940  13.279  19.692  0.00  0.00    +0.000 A 
ATOM     22  C   UNL     1       2.159  12.565  18.772  0.00  0.00    +0.000 A 
ATOM     23  C   UNL     1       0.777  12.332  18.949  0.00  0.00    +0.000 A 
ENDROOT
BRANCH   1  26
ATOM     24  C   UNL     1       1.043   9.391  19.111  0.00  0.00    +0.000 C 
ATOM     25  O   UNL     1       0.523   9.555  20.212  0.00  0.00    +0.000 OA
ATOM     26  N   UNL     1       0.818  10.187  18.002  0.00  0.00    +0.000 N 
ATOM     27  H   UNL     1       1.297  10.074  17.120  0.00  0.00    +0.000 HD
BRANCH  24  32
ATOM     28  C   UNL     1       4.293   4.858  17.702  0.00  0.00    +0.000 C 
ATOM     29  C   UNL     1       3.624   6.094  18.222  0.00  0.00    +0.000 A 
ATOM     30  C   UNL     1       2.949   6.103  19.449  0.00  0.00    +0.000 A 
ATOM     31  C   UNL     1       2.166   7.203  19.823  0.00  0.00    +0.000 A 
ATOM     32  C   UNL     1       2.042   8.294  18.952  0.00  0.00    +0.000 A 
ATOM     33  C   UNL     1       2.817   8.332  17.787  0.00  0.00    +0.000 A 
ATOM     34  C   UNL     1       3.588   7.236  17.417  0.00  0.00    +0.000 A 
ENDBRANCH  24  32
ENDBRANCH   1  26
TORSDOF 2
ENDMDL
MODEL 3
REMARK VINA RESULT:      -7.0      2.635      8.337
REMARK  Name = 
REMARK  4 active torsions:
REMARK  status: ('A' for Active; 'I' for Inactive)
REMARK    1  A    between atoms: C_1  and  C_2
REMARK    2  A    between atoms: C_5  and  C_6
REMARK    3  A    between atoms: N_8  and  N_9
REMARK    4  A    between atoms: N_22  and  C_23
REMARK                            x       y       z     vdW  Elec       q    Type
REMARK                         _______ _______ _______ _____ _____    ______ ____
ROOT
ATOM      1  N   UNL     1       0.311  11.480  19.016  0.00  0.00    +0.000 N 
ATOM      2  C   UNL     1      -1.082  11.249  18.676  0.00  0.00    +0.000 A 
ATOM      3  C   UNL     1      -1.592   9.957  18.395  0.00  0.00    +0.000 A 
ATOM      4  C   UNL     1      -2.966   9.722  18.187  0.00  0.00    +0.000 A 
ATOM      5  C   UNL     1      -3.862  10.780  18.178  0.00  0.00    +0.000 A 
ATOM      6 CL   UNL     1      -5.551  10.503  18.008  0.00  0.00    +0.000 Cl
ATOM      7  C   UNL     1      -3.389  12.066  18.360  0.00  0.00    +0.000 A 
ATOM      8  C   UNL     1      -2.026  12.300  18.627  0.00  0.00    +0.000 A 
ATOM      9  N   UNL     1      -1.746  13.621  18.982  0.00  0.00    +0.000 NA
ATOM     10  C   UNL     1      -1.335  13.725  20.207  0.00  0.00    +0.000 C 
ATOM     11  N   UNL     1      -2.137  14.305  21.175  0.00  0.00    +0.000 N 
ATOM     12  C   UNL     1      -2.852  15.525  20.782  0.00  0.00    +0.000 C 
ATOM     13  C   UNL     1      -3.370  16.226  22.044  0.00  0.00    +0.000 C 
ATOM     14  N   UNL     1      -4.287  15.338  22.792  0.00  0.00    +0.000 NA
ATOM     15  C   UNL     1      -4.846  16.026  23.944  0.00  0.00    +0.000 C 
ATOM     16  C   UNL     1      -3.558  14.115  23.191  0.00  0.00    +0.000 C 
ATOM     17  C   UNL     1      -2.961  13.382  21.975  0.00  0.00    +0.000 C 
ATOM     18  C   UNL     1       0.074  13.454  20.545  0.00  0.00    +0.000 A 
ATOM     19  C   UNL     1       0.632  14.289  21.536  0.00  0.00    +0.000 A 
ATOM     20  C   UNL     1       2.003  14.356  21.719  0.00  0.00    +0.000 A 
ATOM     21  C   UNL     1       2.815  13.622  20.877  0.00  0.00    +0.000 A 
ATOM     22  C   UNL     1       2.246  12.744  19.943  0.00  0.00    +0.000 A 
ATOM     23  C   UNL     1       0.852  12.562  19.805  0.00  0.00    +0.000 A 
ENDROOT
BRANCH   1  26
ATOM     24  C   UNL     1       1.797   9.653  18.380  0.00  0.00    +0.000 C 
ATOM     25  O   UNL     1       2.092  10.133  17.288  0.00  0.00    +0.000 OA
ATOM     26  N   UNL     1       1.001  10.270  19.328  0.00  0.00    +0.000 N 
ATOM     27  H   UNL     1       0.720   9.838  20.196  0.00  0.00    +0.000 HD
BRANCH  24  32
ATOM     28  C   UNL     1       2.948   4.041  18.902  0.00  0.00    +0.000 C 
ATOM     29  C   UNL     1       2.836   5.535  18.914  0.00  0.00    +0.000 A 
ATOM     30  C   UNL     1       2.240   6.219  19.982  0.00  0.00    +0.000 A 
ATOM     31  C   UNL     1       1.967   7.589  19.885  0.00  0.00    +0.000 A 
ATOM     32  C   UNL     1       2.274   8.277  18.703  0.00  0.00    +0.000 A 
ATOM     33  C   UNL     1       2.981   7.616  17.691  0.00  0.00    +0.000 A 
ATOM     34  C   UNL     1       3.244   6.255  17.788  0.00  0.00    +0.000 A 
ENDBRANCH  24  32
ENDBRANCH   1  26
TORSDOF 2
ENDMDL
MODEL 4
REMARK VINA RESULT:      -7.0      2.881      5.583
REMARK  Name = 
REMARK  4 active torsions:
REMARK  status: ('A' for Active; 'I' for Inactive)
REMARK    1  A    between atoms: C_1  and  C_2
REMARK    2  A    between atoms: C_5  and  C_6
REMARK    3  A    between atoms: N_8  and  N_9
REMARK    4  A    between atoms: N_22  and  C_23
REMARK                            x       y       z     vdW  Elec       q    Type
REMARK                         _______ _______ _______ _____ _____    ______ ____
ROOT
ATOM      1  N   UNL     1      -1.736  13.319  20.808  0.00  0.00    +0.000 N 
ATOM      2  C   UNL     1      -1.001  12.263  20.133  0.00  0.00    +0.000 A 
ATOM      3  C   UNL     1      -1.569  11.485  19.094  0.00  0.00    +0.000 A 
ATOM      4  C   UNL     1      -0.814  10.547  18.361  0.00  0.00    +0.000 A 
ATOM      5  C   UNL     1       0.509  10.304  18.693  0.00  0.00    +0.000 A 
ATOM      6 CL   UNL     1       1.468   9.224  17.758  0.00  0.00    +0.000 Cl
ATOM      7  C   UNL     1       1.073  10.979  19.759  0.00  0.00    +0.000 A 
ATOM      8  C   UNL     1       0.342  11.960  20.456  0.00  0.00    +0.000 A 
ATOM      9  N   UNL     1       1.109  12.686  21.368  0.00  0.00    +0.000 NA
ATOM     10  C   UNL     1       1.219  13.935  21.036  0.00  0.00    +0.000 C 
ATOM     11  N   UNL     1       2.426  14.442  20.584  0.00  0.00    +0.000 N 
ATOM     12  C   UNL     1       3.626  14.011  21.311  0.00  0.00    +0.000 C 
ATOM     13  C   UNL     1       4.792  14.936  20.940  0.00  0.00    +0.000 C 
ATOM     14  N   UNL     1       5.052  14.884  19.485  0.00  0.00    +0.000 NA
ATOM     15  C   UNL     1       6.208  15.694  19.138  0.00  0.00    +0.000 C 
ATOM     16  C   UNL     1       3.843  15.327  18.759  0.00  0.00    +0.000 C 
ATOM     17  C   UNL     1       2.613  14.473  19.124  0.00  0.00    +0.000 C 
ATOM     18  C   UNL     1       0.142  14.888  21.357  0.00  0.00    +0.000 A 
ATOM     19  C   UNL     1       0.567  16.178  21.739  0.00  0.00    +0.000 A 
ATOM     20  C   UNL     1      -0.303  17.057  22.362  0.00  0.00    +0.000 A 
ATOM     21  C   UNL     1      -1.584  16.624  22.644  0.00  0.00    +0.000 A 
ATOM     22  C   UNL     1      -2.014  15.366  22.198  0.00  0.00    +0.000 A 
ATOM     23  C   UNL     1      -1.191  14.487  21.458  0.00  0.00    +0.000 A 
ENDROOT
BRANCH   1  26
ATOM     24  C   UNL     1      -4.156  13.172  20.530  0.00  0.00    +0.000 C 
ATOM     25  O   UNL     1      -4.341  12.531  21.561  0.00  0.00    +0.000 OA
ATOM     26  N   UNL     1      -2.934  13.672  20.116  0.00  0.00    +0.000 N 
ATOM     27  H   UNL     1      -2.787  14.147  19.237  0.00  0.00    +0.000 HD
BRANCH  24  32
ATOM     28  C   UNL     1      -7.880  14.309  16.295  0.00  0.00    +0.000 C 
ATOM     29  C   UNL     1      -7.100  13.921  17.515  0.00  0.00    +0.000 A 
ATOM     30  C   UNL     1      -7.121  14.701  18.678  0.00  0.00    +0.000 A 
ATOM     31  C   UNL     1      -6.237  14.432  19.731  0.00  0.00    +0.000 A 
ATOM     32  C   UNL     1      -5.310  13.388  19.609  0.00  0.00    +0.000 A 
ATOM     33  C   UNL     1      -5.379  12.537  18.499  0.00  0.00    +0.000 A 
ATOM     34  C   UNL     1      -6.254  12.811  17.454  0.00  0.00    +0.000 A 
ENDBRANCH  24  32
ENDBRANCH   1  26
TORSDOF 2
ENDMDL
MODEL 5
REMARK VINA RESULT:      -6.8      2.914      8.142
REMARK  Name = 
REMARK  4 active torsions:
REMARK  status: ('A' for Active; 'I' for Inactive)
REMARK    1  A    between atoms: C_1  and  C_2
REMARK    2  A    between atoms: C_5  and  C_6
REMARK    3  A    between atoms: N_8  and  N_9
REMARK    4  A    between atoms: N_22  and  C_23
REMARK                            x       y       z     vdW  Elec       q    Type
REMARK                         _______ _______ _______ _____ _____    ______ ____
ROOT
ATOM      1  N   UNL     1      -0.940  13.517  21.194  0.00  0.00    +0.000 N 
ATOM      2  C   UNL     1      -0.735  14.634  20.287  0.00  0.00    +0.000 A 
ATOM      3  C   UNL     1      -0.049  14.496  19.054  0.00  0.00    +0.000 A 
ATOM      4  C   UNL     1       0.040  15.551  18.124  0.00  0.00    +0.000 A 
ATOM      5  C   UNL     1      -0.488  16.796  18.427  0.00  0.00    +0.000 A 
ATOM      6 CL   UNL     1      -0.462  18.070  17.272  0.00  0.00    +0.000 Cl
ATOM      7  C   UNL     1      -1.088  16.993  19.657  0.00  0.00    +0.000 A 
ATOM      8  C   UNL     1      -1.232  15.927  20.566  0.00  0.00    +0.000 A 
ATOM      9  N   UNL     1      -2.029  16.238  21.669  0.00  0.00    +0.000 NA
ATOM     10  C   UNL     1      -3.128  15.550  21.692  0.00  0.00    +0.000 C 
ATOM     11  N   UNL     1      -4.347  16.157  21.441  0.00  0.00    +0.000 N 
ATOM     12  C   UNL     1      -4.564  17.465  22.069  0.00  0.00    +0.000 C 
ATOM     13  C   UNL     1      -6.058  17.806  22.006  0.00  0.00    +0.000 C 
ATOM     14  N   UNL     1      -6.522  17.851  20.602  0.00  0.00    +0.000 NA
ATOM     15  C   UNL     1      -7.917  18.254  20.532  0.00  0.00    +0.000 C 
ATOM     16  C   UNL     1      -6.308  16.527  19.979  0.00  0.00    +0.000 C 
ATOM     17  C   UNL     1      -4.832  16.093  20.051  0.00  0.00    +0.000 C 
ATOM     18  C   UNL     1      -3.133  14.173  22.218  0.00  0.00    +0.000 A 
ATOM     19  C   UNL     1      -4.283  13.808  22.951  0.00  0.00    +0.000 A 
ATOM     20  C   UNL     1      -4.283  12.681  23.756  0.00  0.00    +0.000 A 
ATOM     21  C   UNL     1      -3.118  11.948  23.861  0.00  0.00    +0.000 A 
ATOM     22  C   UNL     1      -2.005  12.282  23.075  0.00  0.00    +0.000 A 
ATOM     23  C   UNL     1      -2.004  13.356  22.157  0.00  0.00    +0.000 A 
ENDROOT
BRANCH   1  26
ATOM     24  C   UNL     1       0.545  11.619  20.816  0.00  0.00    +0.000 C 
ATOM     25  O   UNL     1       1.380  11.973  21.646  0.00  0.00    +0.000 OA
ATOM     26  N   UNL     1      -0.657  12.260  20.579  0.00  0.00    +0.000 N 
ATOM     27  H   UNL     1      -1.306  11.992  19.853  0.00  0.00    +0.000 HD
BRANCH  24  32
ATOM     28  C   UNL     1       2.700   7.147  17.909  0.00  0.00    +0.000 C 
ATOM     29  C   UNL     1       1.928   8.251  18.566  0.00  0.00    +0.000 A 
ATOM     30  C   UNL     1       1.591   9.423  17.877  0.00  0.00    +0.000 A 
ATOM     31  C   UNL     1       1.048  10.518  18.560  0.00  0.00    +0.000 A 
ATOM     32  C   UNL     1       0.859  10.448  19.946  0.00  0.00    +0.000 A 
ATOM     33  C   UNL     1       1.081   9.233  20.606  0.00  0.00    +0.000 A 
ATOM     34  C   UNL     1       1.625   8.150  19.927  0.00  0.00    +0.000 A 
ENDBRANCH  24  32
ENDBRANCH   1  26
TORSDOF 2
ENDMDL
MODEL 6
REMARK VINA RESULT:      -6.7      3.083      7.974
REMARK  Name = 
REMARK  4 active torsions:
REMARK  status: ('A' for Active; 'I' for Inactive)
REMARK    1  A    between atoms: C_1  and  C_2
REMARK    2  A    between atoms: C_5  and  C_6
REMARK    3  A    between atoms: N_8  and  N_9
REMARK    4  A    between atoms: N_22  and  C_23
REMARK                            x       y       z     vdW  Elec       q    Type
REMARK                         _______ _______ _______ _____ _____    ______ ____
ROOT
ATOM      1  N   UNL     1       0.410  13.870  19.660  0.00  0.00    +0.000 N 
ATOM      2  C   UNL     1       0.238  12.473  20.022  0.00  0.00    +0.000 A 
ATOM      3  C   UNL     1       1.312  11.667  20.477  0.00  0.00    +0.000 A 
ATOM      4  C   UNL     1       1.117  10.351  20.943  0.00  0.00    +0.000 A 
ATOM      5  C   UNL     1      -0.143   9.774  20.898  0.00  0.00    +0.000 A 
ATOM      6 CL   UNL     1      -0.414   8.201  21.537  0.00  0.00    +0.000 Cl
ATOM      7  C   UNL     1      -1.199  10.498  20.377  0.00  0.00    +0.000 A 
ATOM      8  C   UNL     1      -1.022  11.834  19.966  0.00  0.00    +0.000 A 
ATOM      9  N   UNL     1      -2.216  12.485  19.655  0.00  0.00    +0.000 NA
ATOM     10  C   UNL     1      -2.477  13.456  20.475  0.00  0.00    +0.000 C 
ATOM     11  N   UNL     1      -3.512  13.350  21.389  0.00  0.00    +0.000 N 
ATOM     12  C   UNL     1      -4.763  12.769  20.890  0.00  0.00    +0.000 C 
ATOM     13  C   UNL     1      -5.886  13.072  21.889  0.00  0.00    +0.000 C 
ATOM     14  N   UNL     1      -5.571  12.497  23.215  0.00  0.00    +0.000 NA
ATOM     15  C   UNL     1      -6.668  12.709  24.144  0.00  0.00    +0.000 C 
ATOM     16  C   UNL     1      -4.314  13.093  23.715  0.00  0.00    +0.000 C 
ATOM     17  C   UNL     1      -3.146  12.873  22.733  0.00  0.00    +0.000 C 
ATOM     18  C   UNL     1      -1.842  14.773  20.294  0.00  0.00    +0.000 A 
ATOM     19  C   UNL     1      -2.660  15.886  20.585  0.00  0.00    +0.000 A 
ATOM     20  C   UNL     1      -2.308  17.156  20.162  0.00  0.00    +0.000 A 
ATOM     21  C   UNL     1      -1.160  17.303  19.408  0.00  0.00    +0.000 A 
ATOM     22  C   UNL     1      -0.321  16.201  19.185  0.00  0.00    +0.000 A 
ATOM     23  C   UNL     1      -0.588  14.913  19.697  0.00  0.00    +0.000 A 
ENDROOT
BRANCH   1  26
ATOM     24  C   UNL     1       2.731  14.479  19.222  0.00  0.00    +0.000 C 
ATOM     25  O   UNL     1       2.668  14.267  18.013  0.00  0.00    +0.000 OA
ATOM     26  N   UNL     1       1.664  14.392  20.098  0.00  0.00    +0.000 N 
ATOM     27  H   UNL     1       1.744  14.512  21.098  0.00  0.00    +0.000 HD
BRANCH  24  32
ATOM     28  C   UNL     1       8.161  14.806  21.094  0.00  0.00    +0.000 C 
ATOM     29  C   UNL     1       6.723  14.945  20.693  0.00  0.00    +0.000 A 
ATOM     30  C   UNL     1       5.684  14.785  21.618  0.00  0.00    +0.000 A 
ATOM     31  C   UNL     1       4.353  14.721  21.188  0.00  0.00    +0.000 A 
ATOM     32  C   UNL     1       4.060  14.798  19.820  0.00  0.00    +0.000 A 
ATOM     33  C   UNL     1       5.090  15.082  18.915  0.00  0.00    +0.000 A 
ATOM     34  C   UNL     1       6.411  15.139  19.345  0.00  0.00    +0.000 A 
ENDBRANCH  24  32
ENDBRANCH   1  26
TORSDOF 2
ENDMDL
MODEL 7
REMARK VINA RESULT:      -6.6      3.814      8.583
REMARK  Name = 
REMARK  4 active torsions:
REMARK  status: ('A' for Active; 'I' for Inactive)
REMARK    1  A    between atoms: C_1  and  C_2
REMARK    2  A    between atoms: C_5  and  C_6
REMARK    3  A    between atoms: N_8  and  N_9
REMARK    4  A    between atoms: N_22  and  C_23
REMARK                            x       y       z     vdW  Elec       q    Type
REMARK                         _______ _______ _______ _____ _____    ______ ____
ROOT
ATOM      1  N   UNL     1       1.579  14.876  18.749  0.00  0.00    +0.000 N 
ATOM      2  C   UNL     1       1.336  13.450  18.612  0.00  0.00    +0.000 A 
ATOM      3  C   UNL     1       2.384  12.515  18.417  0.00  0.00    +0.000 A 
ATOM      4  C   UNL     1       2.156  11.124  18.409  0.00  0.00    +0.000 A 
ATOM      5  C   UNL     1       0.867  10.628  18.517  0.00  0.00    +0.000 A 
ATOM      6 CL   UNL     1       0.579   8.933  18.590  0.00  0.00    +0.000 Cl
ATOM      7  C   UNL     1      -0.191  11.511  18.619  0.00  0.00    +0.000 A 
ATOM      8  C   UNL     1       0.036  12.900  18.688  0.00  0.00    +0.000 A 
ATOM      9  N   UNL     1      -1.109  13.639  18.988  0.00  0.00    +0.000 NA
ATOM     10  C   UNL     1      -1.030  14.225  20.142  0.00  0.00    +0.000 C 
ATOM     11  N   UNL     1      -1.800  13.794  21.209  0.00  0.00    +0.000 N 
ATOM     12  C   UNL     1      -3.199  13.467  20.910  0.00  0.00    +0.000 C 
ATOM     13  C   UNL     1      -3.981  13.381  22.227  0.00  0.00    +0.000 C 
ATOM     14  N   UNL     1      -3.408  12.338  23.104  0.00  0.00    +0.000 NA
ATOM     15  C   UNL     1      -4.195  12.195  24.318  0.00  0.00    +0.000 C 
ATOM     16  C   UNL     1      -2.002  12.678  23.408  0.00  0.00    +0.000 C 
ATOM     17  C   UNL     1      -1.162  12.833  22.125  0.00  0.00    +0.000 C 
ATOM     18  C   UNL     1      -0.307  15.502  20.279  0.00  0.00    +0.000 A 
ATOM     19  C   UNL     1      -0.880  16.431  21.173  0.00  0.00    +0.000 A 
ATOM     20  C   UNL     1      -0.496  17.761  21.160  0.00  0.00    +0.000 A 
ATOM     21  C   UNL     1       0.429  18.168  20.217  0.00  0.00    +0.000 A 
ATOM     22  C   UNL     1       1.041  17.223  19.381  0.00  0.00    +0.000 A 
ATOM     23  C   UNL     1       0.759  15.840  19.444  0.00  0.00    +0.000 A 
ENDROOT
BRANCH   1  26
ATOM     24  C   UNL     1       3.751  15.632  17.934  0.00  0.00    +0.000 C 
ATOM     25  O   UNL     1       3.339  15.954  16.823  0.00  0.00    +0.000 OA
ATOM     26  N   UNL     1       2.958  15.172  18.970  0.00  0.00    +0.000 N 
ATOM     27  H   UNL     1       3.318  14.856  19.860  0.00  0.00    +0.000 HD
BRANCH  24  32
ATOM     28  C   UNL     1       9.428  16.530  18.169  0.00  0.00    +0.000 C 
ATOM     29  C   UNL     1       7.982  16.158  18.302  0.00  0.00    +0.000 A 
ATOM     30  C   UNL     1       7.499  14.921  17.856  0.00  0.00    +0.000 A 
ATOM     31  C   UNL     1       6.121  14.672  17.808  0.00  0.00    +0.000 A 
ATOM     32  C   UNL     1       5.220  15.675  18.189  0.00  0.00    +0.000 A 
ATOM     33  C   UNL     1       5.713  16.860  18.750  0.00  0.00    +0.000 A 
ATOM     34  C   UNL     1       7.080  17.106  18.791  0.00  0.00    +0.000 A 
ENDBRANCH  24  32
ENDBRANCH   1  26
TORSDOF 2
ENDMDL
MODEL 8
REMARK VINA RESULT:      -6.4      3.224      8.024
REMARK  Name = 
REMARK  4 active torsions:
REMARK  status: ('A' for Active; 'I' for Inactive)
REMARK    1  A    between atoms: C_1  and  C_2
REMARK    2  A    between atoms: C_5  and  C_6
REMARK    3  A    between atoms: N_8  and  N_9
REMARK    4  A    between atoms: N_22  and  C_23
REMARK                            x       y       z     vdW  Elec       q    Type
REMARK                         _______ _______ _______ _____ _____    ______ ____
ROOT
ATOM      1  N   UNL     1      -0.630  13.466  19.762  0.00  0.00    +0.000 N 
ATOM      2  C   UNL     1      -1.990  13.640  20.243  0.00  0.00    +0.000 A 
ATOM      3  C   UNL     1      -2.965  12.615  20.153  0.00  0.00    +0.000 A 
ATOM      4  C   UNL     1      -4.244  12.744  20.731  0.00  0.00    +0.000 A 
ATOM      5  C   UNL     1      -4.614  13.927  21.350  0.00  0.00    +0.000 A 
ATOM      6 CL   UNL     1      -6.139  14.074  22.131  0.00  0.00    +0.000 Cl
ATOM      7  C   UNL     1      -3.721  14.982  21.379  0.00  0.00    +0.000 A 
ATOM      8  C   UNL     1      -2.421  14.838  20.856  0.00  0.00    +0.000 A 
ATOM      9  N   UNL     1      -1.582  15.917  21.140  0.00  0.00    +0.000 NA
ATOM     10  C   UNL     1      -0.602  15.588  21.922  0.00  0.00    +0.000 C 
ATOM     11  N   UNL     1      -0.564  16.032  23.233  0.00  0.00    +0.000 N 
ATOM     12  C   UNL     1      -0.929  17.436  23.454  0.00  0.00    +0.000 C 
ATOM     13  C   UNL     1      -0.476  17.853  24.859  0.00  0.00    +0.000 C 
ATOM     14  N   UNL     1      -1.123  17.008  25.885  0.00  0.00    +0.000 NA
ATOM     15  C   UNL     1      -0.762  17.451  27.222  0.00  0.00    +0.000 C 
ATOM     16  C   UNL     1      -0.744  15.596  25.661  0.00  0.00    +0.000 C 
ATOM     17  C   UNL     1      -1.123  15.121  24.246  0.00  0.00    +0.000 C 
ATOM     18  C   UNL     1       0.603  14.941  21.373  0.00  0.00    +0.000 A 
ATOM     19  C   UNL     1       1.824  15.330  21.964  0.00  0.00    +0.000 A 
ATOM     20  C   UNL     1       3.032  15.052  21.349  0.00  0.00    +0.000 A 
ATOM     21  C   UNL     1       3.014  14.425  20.118  0.00  0.00    +0.000 A 
ATOM     22  C   UNL     1       1.799  13.982  19.574  0.00  0.00    +0.000 A 
ATOM     23  C   UNL     1       0.557  14.146  20.227  0.00  0.00    +0.000 A 
ENDROOT
BRANCH   1  26
ATOM     24  C   UNL     1       0.171  11.280  20.489  0.00  0.00    +0.000 C 
ATOM     25  O   UNL     1       0.249  11.586  21.676  0.00  0.00    +0.000 OA
ATOM     26  N   UNL     1      -0.321  12.099  19.489  0.00  0.00    +0.000 N 
ATOM     27  H   UNL     1      -0.325  11.855  18.510  0.00  0.00    +0.000 HD
BRANCH  24  32
ATOM     28  C   UNL     1       3.011   6.383  19.462  0.00  0.00    +0.000 C 
ATOM     29  C   UNL     1       2.091   7.558  19.605  0.00  0.00    +0.000 A 
ATOM     30  C   UNL     1       1.914   8.482  18.567  0.00  0.00    +0.000 A 
ATOM     31  C   UNL     1       1.211   9.673  18.788  0.00  0.00    +0.000 A 
ATOM     32  C   UNL     1       0.697   9.950  20.062  0.00  0.00    +0.000 A 
ATOM     33  C   UNL     1       0.770   8.968  21.057  0.00  0.00    +0.000 A 
ATOM     34  C   UNL     1       1.474   7.790  20.836  0.00  0.00    +0.000 A 
ENDBRANCH  24  32
ENDBRANCH   1  26
TORSDOF 2
ENDMDL
MODEL 9
REMARK VINA RESULT:      -6.3      3.766      8.795
REMARK  Name = 
REMARK  4 active torsions:
REMARK  status: ('A' for Active; 'I' for Inactive)
REMARK    1  A    between atoms: C_1  and  C_2
REMARK    2  A    between atoms: C_5  and  C_6
REMARK    3  A    between atoms: N_8  and  N_9
REMARK    4  A    between atoms: N_22  and  C_23
REMARK                            x       y       z     vdW  Elec       q    Type
REMARK                         _______ _______ _______ _____ _____    ______ ____
ROOT
ATOM      1  N   UNL     1       2.067  15.081  19.176  0.00  0.00    +0.000 N 
ATOM      2  C   UNL     1       1.578  13.752  18.848  0.00  0.00    +0.000 A 
ATOM      3  C   UNL     1       2.446  12.683  18.515  0.00  0.00    +0.000 A 
ATOM      4  C   UNL     1       1.977  11.369  18.319  0.00  0.00    +0.000 A 
ATOM      5  C   UNL     1       0.619  11.097  18.375  0.00  0.00    +0.000 A 
ATOM      6 CL   UNL     1       0.035   9.486  18.220  0.00  0.00    +0.000 Cl
ATOM      7  C   UNL     1      -0.267  12.131  18.610  0.00  0.00    +0.000 A 
ATOM      8  C   UNL     1       0.200  13.435  18.866  0.00  0.00    +0.000 A 
ATOM      9  N   UNL     1      -0.800  14.316  19.279  0.00  0.00    +0.000 NA
ATOM     10  C   UNL     1      -0.631  14.716  20.501  0.00  0.00    +0.000 C 
ATOM     11  N   UNL     1      -1.478  14.286  21.508  0.00  0.00    +0.000 N 
ATOM     12  C   UNL     1      -2.909  14.254  21.187  0.00  0.00    +0.000 C 
ATOM     13  C   UNL     1      -3.709  14.129  22.489  0.00  0.00    +0.000 C 
ATOM     14  N   UNL     1      -3.339  12.891  23.208  0.00  0.00    +0.000 NA
ATOM     15  C   UNL     1      -4.153  12.724  24.401  0.00  0.00    +0.000 C 
ATOM     16  C   UNL     1      -1.898  12.933  23.537  0.00  0.00    +0.000 C 
ATOM     17  C   UNL     1      -1.030  13.111  22.277  0.00  0.00    +0.000 C 
ATOM     18  C   UNL     1       0.304  15.815  20.801  0.00  0.00    +0.000 A 
ATOM     19  C   UNL     1      -0.107  16.699  21.822  0.00  0.00    +0.000 A 
ATOM     20  C   UNL     1       0.506  17.929  21.985  0.00  0.00    +0.000 A 
ATOM     21  C   UNL     1       1.499  18.292  21.095  0.00  0.00    +0.000 A 
ATOM     22  C   UNL     1       1.945  17.377  20.130  0.00  0.00    +0.000 A 
ATOM     23  C   UNL     1       1.422  16.070  20.007  0.00  0.00    +0.000 A 
ENDROOT
BRANCH   1  26
ATOM     24  C   UNL     1       4.360  15.323  18.381  0.00  0.00    +0.000 C 
ATOM     25  O   UNL     1       4.042  15.661  17.243  0.00  0.00    +0.000 OA
ATOM     26  N   UNL     1       3.473  15.096  19.418  0.00  0.00    +0.000 N 
ATOM     27  H   UNL     1       3.746  14.762  20.331  0.00  0.00    +0.000 HD
BRANCH  24  32
ATOM     28  C   UNL     1       9.651  13.356  19.492  0.00  0.00    +0.000 C 
ATOM     29  C   UNL     1       8.378  14.084  19.181  0.00  0.00    +0.000 A 
ATOM     30  C   UNL     1       7.700  14.826  20.157  0.00  0.00    +0.000 A 
ATOM     31  C   UNL     1       6.419  15.332  19.903  0.00  0.00    +0.000 A 
ATOM     32  C   UNL     1       5.803  15.075  18.671  0.00  0.00    +0.000 A 
ATOM     33  C   UNL     1       6.534  14.441  17.659  0.00  0.00    +0.000 A 
ATOM     34  C   UNL     1       7.803  13.935  17.917  0.00  0.00    +0.000 A 
ENDBRANCH  24  32
ENDBRANCH   1  26
TORSDOF 2
ENDMDL
