MODEL 1
REMARK VINA RESULT:      -8.6      0.000      0.000
REMARK  Name = 
REMARK  9 active torsions:
REMARK  status: ('A' for Active; 'I' for Inactive)
REMARK    1  A    between atoms: C_1  and  C_2
REMARK    2  A    between atoms: C_2  and  C_3
REMARK    3  A    between atoms: C_2  and  N_4
REMARK    4  A    between atoms: N_4  and  C_5
REMARK    5  A    between atoms: C_11  and  N_12
REMARK    6  A    between atoms: C_13  and  C_15
REMARK    7  A    between atoms: C_15  and  C_16
REMARK    8  A    between atoms: C_16  and  C_17
REMARK    9  A    between atoms: C_20  and  C_21
REMARK                            x       y       z     vdW  Elec       q    Type
REMARK                         _______ _______ _______ _____ _____    ______ ____
ROOT
ATOM      1  N   UNL     1       2.745   5.731  20.278  0.00  0.00    +0.000 N 
ATOM      2  C   UNL     1       2.001   4.583  20.484  0.00  0.00    +0.000 C 
ATOM      3  O   UNL     1       0.810   4.418  20.225  0.00  0.00    +0.000 OA
ATOM      4  H   UNL     1       3.728   5.697  20.522  0.00  0.00    +0.000 HD
ENDROOT
BRANCH   1  12
ATOM      5  N   UNL     1      -0.499  12.187  19.990  0.00  0.00    +0.000 N 
ATOM      6  C   UNL     1      -0.697  13.005  18.789  0.00  0.00    +0.000 C 
ATOM      7  C   UNL     1       0.208  11.042  19.763  0.00  0.00    +0.000 A 
ATOM      8  N   UNL     1       0.729  10.655  18.618  0.00  0.00    +0.000 NA
ATOM      9  C   UNL     1       1.300   9.435  18.852  0.00  0.00    +0.000 A 
ATOM     10  C   UNL     1       1.987   8.594  17.972  0.00  0.00    +0.000 A 
ATOM     11  C   UNL     1       2.465   7.366  18.449  0.00  0.00    +0.000 A 
ATOM     12  C   UNL     1       2.279   6.971  19.779  0.00  0.00    +0.000 A 
ATOM     13  C   UNL     1       1.594   7.820  20.672  0.00  0.00    +0.000 A 
ATOM     14  C   UNL     1       1.119   9.039  20.168  0.00  0.00    +0.000 A 
ATOM     15  N   UNL     1       0.415  10.080  20.723  0.00  0.00    +0.000 N 
ATOM     16  H   UNL     1       0.061  10.114  21.666  0.00  0.00    +0.000 HD
BRANCH   5  18
ATOM     17  C   UNL     1      -0.078  14.332  21.182  0.00  0.00    +0.000 C 
ATOM     18  C   UNL     1      -0.469  12.859  21.305  0.00  0.00    +0.000 C 
ATOM     19  C   UNL     1      -1.800  12.704  22.046  0.00  0.00    +0.000 C 
ENDBRANCH   5  18
ENDBRANCH   1  12
BRANCH   2  20
ATOM     20  C   UNL     1       2.787   3.441  21.102  0.00  0.00    +0.000 C 
BRANCH  20  21
ATOM     21  C   UNL     1       3.333   2.519  20.021  0.00  0.00    +0.000 C 
BRANCH  21  22
ATOM     22  C   UNL     1       4.087   3.260  18.952  0.00  0.00    +0.000 A 
ATOM     23  C   UNL     1       3.637   3.265  17.637  0.00  0.00    +0.000 A 
ATOM     24  C   UNL     1       4.400   3.917  16.668  0.00  0.00    +0.000 A 
ATOM     25  C   UNL     1       5.588   4.553  17.035  0.00  0.00    +0.000 A 
ATOM     26  C   UNL     1       5.951   4.506  18.372  0.00  0.00    +0.000 A 
ATOM     27  N   UNL     1       5.228   3.884  19.334  0.00  0.00    +0.000 NA
BRANCH  25  28
ATOM     28  C   UNL     1       6.461   5.266  16.051  0.00  0.00    +0.000 C 
ATOM     29  F   UNL     1       5.770   5.833  15.023  0.00  0.00    +0.000 F 
ATOM     30  F   UNL     1       7.174   6.275  16.622  0.00  0.00    +0.000 F 
ATOM     31  F   UNL     1       7.378   4.442  15.472  0.00  0.00    +0.000 F 
ENDBRANCH  25  28
ENDBRANCH  21  22
ENDBRANCH  20  21
ENDBRANCH   2  20
TORSDOF 6
ENDMDL
MODEL 2
REMARK VINA RESULT:      -8.2      1.085      1.546
REMARK  Name = 
REMARK  9 active torsions:
REMARK  status: ('A' for Active; 'I' for Inactive)
REMARK    1  A    between atoms: C_1  and  C_2
REMARK    2  A    between atoms: C_2  and  C_3
REMARK    3  A    between atoms: C_2  and  N_4
REMARK    4  A    between atoms: N_4  and  C_5
REMARK    5  A    between atoms: C_11  and  N_12
REMARK    6  A    between atoms: C_13  and  C_15
REMARK    7  A    between atoms: C_15  and  C_16
REMARK    8  A    between atoms: C_16  and  C_17
REMARK    9  A    between atoms: C_20  and  C_21
REMARK                            x       y       z     vdW  Elec       q    Type
REMARK                         _______ _______ _______ _____ _____    ______ ____
ROOT
ATOM      1  N   UNL     1       2.470   5.849  20.714  0.00  0.00    +0.000 N 
ATOM      2  C   UNL     1       1.814   4.631  20.673  0.00  0.00    +0.000 C 
ATOM      3  O   UNL     1       0.664   4.423  20.290  0.00  0.00    +0.000 OA
ATOM      4  H   UNL     1       3.431   5.848  21.033  0.00  0.00    +0.000 HD
ENDROOT
BRANCH   1  12
ATOM      5  N   UNL     1      -1.230  12.044  21.197  0.00  0.00    +0.000 N 
ATOM      6  C   UNL     1      -1.433  13.018  20.119  0.00  0.00    +0.000 C 
ATOM      7  C   UNL     1      -0.430  10.996  20.844  0.00  0.00    +0.000 A 
ATOM      8  N   UNL     1       0.170  10.821  19.685  0.00  0.00    +0.000 NA
ATOM      9  C   UNL     1       0.819   9.621  19.769  0.00  0.00    +0.000 A 
ATOM     10  C   UNL     1       1.606   8.969  18.814  0.00  0.00    +0.000 A 
ATOM     11  C   UNL     1       2.152   7.718  19.132  0.00  0.00    +0.000 A 
ATOM     12  C   UNL     1       1.936   7.116  20.377  0.00  0.00    +0.000 A 
ATOM     13  C   UNL     1       1.150   7.773  21.346  0.00  0.00    +0.000 A 
ATOM     14  C   UNL     1       0.609   9.020  21.001  0.00  0.00    +0.000 A 
ATOM     15  N   UNL     1      -0.196   9.916  21.662  0.00  0.00    +0.000 N 
ATOM     16  H   UNL     1      -0.594   9.784  22.578  0.00  0.00    +0.000 HD
BRANCH   5  18
ATOM     17  C   UNL     1      -0.905  13.979  22.728  0.00  0.00    +0.000 C 
ATOM     18  C   UNL     1      -1.309  12.511  22.596  0.00  0.00    +0.000 C 
ATOM     19  C   UNL     1      -2.699  12.267  23.190  0.00  0.00    +0.000 C 
ENDBRANCH   5  18
ENDBRANCH   1  12
BRANCH   2  20
ATOM     20  C   UNL     1       2.650   3.465  21.170  0.00  0.00    +0.000 C 
BRANCH  20  21
ATOM     21  C   UNL     1       3.007   2.533  20.021  0.00  0.00    +0.000 C 
BRANCH  21  22
ATOM     22  C   UNL     1       3.741   3.235  18.912  0.00  0.00    +0.000 A 
ATOM     23  C   UNL     1       4.986   3.814  19.136  0.00  0.00    +0.000 A 
ATOM     24  C   UNL     1       5.603   4.504  18.094  0.00  0.00    +0.000 A 
ATOM     25  C   UNL     1       4.969   4.595  16.852  0.00  0.00    +0.000 A 
ATOM     26  C   UNL     1       3.735   3.977  16.718  0.00  0.00    +0.000 A 
ATOM     27  N   UNL     1       3.115   3.297  17.712  0.00  0.00    +0.000 NA
BRANCH  25  28
ATOM     28  C   UNL     1       5.566   5.325  15.690  0.00  0.00    +0.000 C 
ATOM     29  F   UNL     1       6.902   5.557  15.823  0.00  0.00    +0.000 F 
ATOM     30  F   UNL     1       5.421   4.647  14.519  0.00  0.00    +0.000 F 
ATOM     31  F   UNL     1       4.995   6.545  15.489  0.00  0.00    +0.000 F 
ENDBRANCH  25  28
ENDBRANCH  21  22
ENDBRANCH  20  21
ENDBRANCH   2  20
TORSDOF 6
ENDMDL
MODEL 3
REMARK VINA RESULT:      -7.9      7.224      8.157
REMARK  Name = 
REMARK  9 active torsions:
REMARK  status: ('A' for Active; 'I' for Inactive)
REMARK    1  A    between atoms: C_1  and  C_2
REMARK    2  A    between atoms: C_2  and  C_3
REMARK    3  A    between atoms: C_2  and  N_4
REMARK    4  A    between atoms: N_4  and  C_5
REMARK    5  A    between atoms: C_11  and  N_12
REMARK    6  A    between atoms: C_13  and  C_15
REMARK    7  A    between atoms: C_15  and  C_16
REMARK    8  A    between atoms: C_16  and  C_17
REMARK    9  A    between atoms: C_20  and  C_21
REMARK                            x       y       z     vdW  Elec       q    Type
REMARK                         _______ _______ _______ _____ _____    ______ ____
ROOT
ATOM      1  N   UNL     1       7.934   9.217  17.702  0.00  0.00    +0.000 N 
ATOM      2  C   UNL     1       8.029   7.902  18.123  0.00  0.00    +0.000 C 
ATOM      3  O   UNL     1       8.686   7.475  19.071  0.00  0.00    +0.000 OA
ATOM      4  H   UNL     1       7.326   9.409  16.914  0.00  0.00    +0.000 HD
ENDROOT
BRANCH   1  12
ATOM      5  N   UNL     1      10.549  15.922  18.410  0.00  0.00    +0.000 N 
ATOM      6  C   UNL     1      11.495  16.379  19.434  0.00  0.00    +0.000 C 
ATOM      7  C   UNL     1      10.171  14.618  18.557  0.00  0.00    +0.000 A 
ATOM      8  N   UNL     1      10.544  13.796  19.515  0.00  0.00    +0.000 NA
ATOM      9  C   UNL     1       9.962  12.592  19.232  0.00  0.00    +0.000 A 
ATOM     10  C   UNL     1      10.034  11.385  19.934  0.00  0.00    +0.000 A 
ATOM     11  C   UNL     1       9.360  10.267  19.423  0.00  0.00    +0.000 A 
ATOM     12  C   UNL     1       8.614  10.335  18.240  0.00  0.00    +0.000 A 
ATOM     13  C   UNL     1       8.532  11.553  17.534  0.00  0.00    +0.000 A 
ATOM     14  C   UNL     1       9.222  12.654  18.061  0.00  0.00    +0.000 A 
ATOM     15  N   UNL     1       9.379  13.955  17.650  0.00  0.00    +0.000 N 
ATOM     16  H   UNL     1       9.016  14.351  16.797  0.00  0.00    +0.000 HD
BRANCH   5  18
ATOM     17  C   UNL     1       8.442  17.223  18.666  0.00  0.00    +0.000 C 
ATOM     18  C   UNL     1       9.652  16.914  17.784  0.00  0.00    +0.000 C 
ATOM     19  C   UNL     1      10.404  18.195  17.412  0.00  0.00    +0.000 C 
ENDBRANCH   5  18
ENDBRANCH   1  12
BRANCH   2  20
ATOM     20  C   UNL     1       7.222   6.927  17.285  0.00  0.00    +0.000 C 
BRANCH  20  21
ATOM     21  C   UNL     1       7.137   5.572  17.971  0.00  0.00    +0.000 C 
BRANCH  21  22
ATOM     22  C   UNL     1       5.719   5.126  18.201  0.00  0.00    +0.000 A 
ATOM     23  C   UNL     1       4.655   5.816  17.632  0.00  0.00    +0.000 A 
ATOM     24  C   UNL     1       3.355   5.401  17.920  0.00  0.00    +0.000 A 
ATOM     25  C   UNL     1       3.148   4.306  18.761  0.00  0.00    +0.000 A 
ATOM     26  C   UNL     1       4.270   3.672  19.272  0.00  0.00    +0.000 A 
ATOM     27  N   UNL     1       5.543   4.050  19.007  0.00  0.00    +0.000 NA
BRANCH  25  28
ATOM     28  C   UNL     1       1.783   3.808  19.120  0.00  0.00    +0.000 C 
ATOM     29  F   UNL     1       1.786   2.561  19.668  0.00  0.00    +0.000 F 
ATOM     30  F   UNL     1       1.157   4.610  20.024  0.00  0.00    +0.000 F 
ATOM     31  F   UNL     1       0.952   3.739  18.043  0.00  0.00    +0.000 F 
ENDBRANCH  25  28
ENDBRANCH  21  22
ENDBRANCH  20  21
ENDBRANCH   2  20
TORSDOF 6
ENDMDL
MODEL 4
REMARK VINA RESULT:      -7.9      3.055      4.134
REMARK  Name = 
REMARK  9 active torsions:
REMARK  status: ('A' for Active; 'I' for Inactive)
REMARK    1  A    between atoms: C_1  and  C_2
REMARK    2  A    between atoms: C_2  and  C_3
REMARK    3  A    between atoms: C_2  and  N_4
REMARK    4  A    between atoms: N_4  and  C_5
REMARK    5  A    between atoms: C_11  and  N_12
REMARK    6  A    between atoms: C_13  and  C_15
REMARK    7  A    between atoms: C_15  and  C_16
REMARK    8  A    between atoms: C_16  and  C_17
REMARK    9  A    between atoms: C_20  and  C_21
REMARK                            x       y       z     vdW  Elec       q    Type
REMARK                         _______ _______ _______ _____ _____    ______ ____
ROOT
ATOM      1  N   UNL     1       3.462   6.499  17.273  0.00  0.00    +0.000 N 
ATOM      2  C   UNL     1       4.833   6.431  17.099  0.00  0.00    +0.000 C 
ATOM      3  O   UNL     1       5.692   7.008  17.764  0.00  0.00    +0.000 OA
ATOM      4  H   UNL     1       2.887   5.939  16.655  0.00  0.00    +0.000 HD
ENDROOT
BRANCH   1  12
ATOM      5  N   UNL     1      -0.031  12.094  20.238  0.00  0.00    +0.000 N 
ATOM      6  C   UNL     1      -0.444  12.213  21.640  0.00  0.00    +0.000 C 
ATOM      7  C   UNL     1       0.551  10.897  19.938  0.00  0.00    +0.000 A 
ATOM      8  N   UNL     1       0.727   9.882  20.759  0.00  0.00    +0.000 NA
ATOM      9  C   UNL     1       1.388   8.923  20.042  0.00  0.00    +0.000 A 
ATOM     10  C   UNL     1       1.813   7.653  20.442  0.00  0.00    +0.000 A 
ATOM     11  C   UNL     1       2.500   6.851  19.520  0.00  0.00    +0.000 A 
ATOM     12  C   UNL     1       2.760   7.288  18.217  0.00  0.00    +0.000 A 
ATOM     13  C   UNL     1       2.326   8.565  17.806  0.00  0.00    +0.000 A 
ATOM     14  C   UNL     1       1.647   9.350  18.749  0.00  0.00    +0.000 A 
ATOM     15  N   UNL     1       1.109  10.613  18.714  0.00  0.00    +0.000 N 
ATOM     16  H   UNL     1       1.156  11.252  17.936  0.00  0.00    +0.000 HD
BRANCH   5  18
ATOM     17  C   UNL     1      -2.165  12.295  18.971  0.00  0.00    +0.000 C 
ATOM     18  C   UNL     1      -0.768  12.866  19.216  0.00  0.00    +0.000 C 
ATOM     19  C   UNL     1      -0.837  14.352  19.577  0.00  0.00    +0.000 C 
ENDBRANCH   5  18
ENDBRANCH   1  12
BRANCH   2  20
ATOM     20  C   UNL     1       5.264   5.540  15.948  0.00  0.00    +0.000 C 
BRANCH  20  21
ATOM     21  C   UNL     1       5.324   4.085  16.389  0.00  0.00    +0.000 C 
BRANCH  21  22
ATOM     22  C   UNL     1       4.232   3.727  17.359  0.00  0.00    +0.000 A 
ATOM     23  C   UNL     1       2.954   3.417  16.909  0.00  0.00    +0.000 A 
ATOM     24  C   UNL     1       1.958   3.148  17.847  0.00  0.00    +0.000 A 
ATOM     25  C   UNL     1       2.262   3.187  19.210  0.00  0.00    +0.000 A 
ATOM     26  C   UNL     1       3.567   3.493  19.564  0.00  0.00    +0.000 A 
ATOM     27  N   UNL     1       4.554   3.755  18.675  0.00  0.00    +0.000 NA
BRANCH  25  28
ATOM     28  C   UNL     1       1.245   2.917  20.274  0.00  0.00    +0.000 C 
ATOM     29  F   UNL     1       0.913   4.019  21.001  0.00  0.00    +0.000 F 
ATOM     30  F   UNL     1       0.075   2.438  19.767  0.00  0.00    +0.000 F 
ATOM     31  F   UNL     1       1.667   1.989  21.177  0.00  0.00    +0.000 F 
ENDBRANCH  25  28
ENDBRANCH  21  22
ENDBRANCH  20  21
ENDBRANCH   2  20
TORSDOF 6
ENDMDL
MODEL 5
REMARK VINA RESULT:      -7.8      3.104      4.224
REMARK  Name = 
REMARK  9 active torsions:
REMARK  status: ('A' for Active; 'I' for Inactive)
REMARK    1  A    between atoms: C_1  and  C_2
REMARK    2  A    between atoms: C_2  and  C_3
REMARK    3  A    between atoms: C_2  and  N_4
REMARK    4  A    between atoms: N_4  and  C_5
REMARK    5  A    between atoms: C_11  and  N_12
REMARK    6  A    between atoms: C_13  and  C_15
REMARK    7  A    between atoms: C_15  and  C_16
REMARK    8  A    between atoms: C_16  and  C_17
REMARK    9  A    between atoms: C_20  and  C_21
REMARK                            x       y       z     vdW  Elec       q    Type
REMARK                         _______ _______ _______ _____ _____    ______ ____
ROOT
ATOM      1  N   UNL     1       3.502   6.572  17.212  0.00  0.00    +0.000 N 
ATOM      2  C   UNL     1       4.876   6.493  17.070  0.00  0.00    +0.000 C 
ATOM      3  O   UNL     1       5.725   7.028  17.782  0.00  0.00    +0.000 OA
ATOM      4  H   UNL     1       2.936   6.049  16.554  0.00  0.00    +0.000 HD
ENDROOT
BRANCH   1  12
ATOM      5  N   UNL     1      -0.154  12.011  20.270  0.00  0.00    +0.000 N 
ATOM      6  C   UNL     1      -0.548  12.105  21.680  0.00  0.00    +0.000 C 
ATOM      7  C   UNL     1       0.468  10.838  19.953  0.00  0.00    +0.000 A 
ATOM      8  N   UNL     1       0.697   9.827  20.764  0.00  0.00    +0.000 NA
ATOM      9  C   UNL     1       1.382   8.898  20.031  0.00  0.00    +0.000 A 
ATOM     10  C   UNL     1       1.863   7.643  20.415  0.00  0.00    +0.000 A 
ATOM     11  C   UNL     1       2.565   6.874  19.477  0.00  0.00    +0.000 A 
ATOM     12  C   UNL     1       2.787   7.328  18.172  0.00  0.00    +0.000 A 
ATOM     13  C   UNL     1       2.296   8.590  17.777  0.00  0.00    +0.000 A 
ATOM     14  C   UNL     1       1.603   9.343  18.736  0.00  0.00    +0.000 A 
ATOM     15  N   UNL     1       1.016  10.584  18.718  0.00  0.00    +0.000 N 
ATOM     16  H   UNL     1       1.027  11.229  17.943  0.00  0.00    +0.000 HD
BRANCH   5  18
ATOM     17  C   UNL     1      -2.437  12.695  19.552  0.00  0.00    +0.000 C 
ATOM     18  C   UNL     1      -0.937  12.759  19.266  0.00  0.00    +0.000 C 
ATOM     19  C   UNL     1      -0.461  14.210  19.151  0.00  0.00    +0.000 C 
ENDBRANCH   5  18
ENDBRANCH   1  12
BRANCH   2  20
ATOM     20  C   UNL     1       5.325   5.649  15.891  0.00  0.00    +0.000 C 
BRANCH  20  21
ATOM     21  C   UNL     1       5.288   4.170  16.246  0.00  0.00    +0.000 C 
BRANCH  21  22
ATOM     22  C   UNL     1       4.263   3.850  17.298  0.00  0.00    +0.000 A 
ATOM     23  C   UNL     1       4.640   3.650  18.621  0.00  0.00    +0.000 A 
ATOM     24  C   UNL     1       3.663   3.299  19.552  0.00  0.00    +0.000 A 
ATOM     25  C   UNL     1       2.334   3.162  19.143  0.00  0.00    +0.000 A 
ATOM     26  C   UNL     1       2.051   3.393  17.806  0.00  0.00    +0.000 A 
ATOM     27  N   UNL     1       2.978   3.739  16.882  0.00  0.00    +0.000 NA
BRANCH  25  28
ATOM     28  C   UNL     1       1.234   2.781  20.083  0.00  0.00    +0.000 C 
ATOM     29  F   UNL     1       0.176   2.185  19.468  0.00  0.00    +0.000 F 
ATOM     30  F   UNL     1       1.647   1.908  21.043  0.00  0.00    +0.000 F 
ATOM     31  F   UNL     1       0.722   3.852  20.750  0.00  0.00    +0.000 F 
ENDBRANCH  25  28
ENDBRANCH  21  22
ENDBRANCH  20  21
ENDBRANCH   2  20
TORSDOF 6
ENDMDL
MODEL 6
REMARK VINA RESULT:      -7.8      6.935      8.029
REMARK  Name = 
REMARK  9 active torsions:
REMARK  status: ('A' for Active; 'I' for Inactive)
REMARK    1  A    between atoms: C_1  and  C_2
REMARK    2  A    between atoms: C_2  and  C_3
REMARK    3  A    between atoms: C_2  and  N_4
REMARK    4  A    between atoms: N_4  and  C_5
REMARK    5  A    between atoms: C_11  and  N_12
REMARK    6  A    between atoms: C_13  and  C_15
REMARK    7  A    between atoms: C_15  and  C_16
REMARK    8  A    between atoms: C_16  and  C_17
REMARK    9  A    between atoms: C_20  and  C_21
REMARK                            x       y       z     vdW  Elec       q    Type
REMARK                         _______ _______ _______ _____ _____    ______ ____
ROOT
ATOM      1  N   UNL     1       7.728   8.603  17.449  0.00  0.00    +0.000 N 
ATOM      2  C   UNL     1       7.740   7.298  17.910  0.00  0.00    +0.000 C 
ATOM      3  O   UNL     1       8.265   6.883  18.941  0.00  0.00    +0.000 OA
ATOM      4  H   UNL     1       7.226   8.787  16.589  0.00  0.00    +0.000 HD
ENDROOT
BRANCH   1  12
ATOM      5  N   UNL     1      10.302  15.300  18.359  0.00  0.00    +0.000 N 
ATOM      6  C   UNL     1      11.156  15.758  19.459  0.00  0.00    +0.000 C 
ATOM      7  C   UNL     1       9.907  13.999  18.477  0.00  0.00    +0.000 A 
ATOM      8  N   UNL     1      10.190  13.179  19.468  0.00  0.00    +0.000 NA
ATOM      9  C   UNL     1       9.629  11.976  19.139  0.00  0.00    +0.000 A 
ATOM     10  C   UNL     1       9.633  10.772  19.849  0.00  0.00    +0.000 A 
ATOM     11  C   UNL     1       9.001   9.655  19.285  0.00  0.00    +0.000 A 
ATOM     12  C   UNL     1       8.364   9.721  18.041  0.00  0.00    +0.000 A 
ATOM     13  C   UNL     1       8.349  10.936  17.325  0.00  0.00    +0.000 A 
ATOM     14  C   UNL     1       8.995  12.036  17.907  0.00  0.00    +0.000 A 
ATOM     15  N   UNL     1       9.194  13.334  17.506  0.00  0.00    +0.000 N 
ATOM     16  H   UNL     1       8.911  13.728  16.623  0.00  0.00    +0.000 HD
BRANCH   5  18
ATOM     17  C   UNL     1       8.188  16.613  18.423  0.00  0.00    +0.000 C 
ATOM     18  C   UNL     1       9.468  16.293  17.651  0.00  0.00    +0.000 C 
ATOM     19  C   UNL     1      10.257  17.568  17.340  0.00  0.00    +0.000 C 
ENDBRANCH   5  18
ENDBRANCH   1  12
BRANCH   2  20
ATOM     20  C   UNL     1       7.018   6.319  17.002  0.00  0.00    +0.000 C 
BRANCH  20  21
ATOM     21  C   UNL     1       5.640   6.846  16.631  0.00  0.00    +0.000 C 
BRANCH  21  22
ATOM     22  C   UNL     1       4.570   6.396  17.588  0.00  0.00    +0.000 A 
ATOM     23  C   UNL     1       3.559   7.264  17.985  0.00  0.00    +0.000 A 
ATOM     24  C   UNL     1       2.623   6.822  18.918  0.00  0.00    +0.000 A 
ATOM     25  C   UNL     1       2.712   5.525  19.429  0.00  0.00    +0.000 A 
ATOM     26  C   UNL     1       3.748   4.727  18.966  0.00  0.00    +0.000 A 
ATOM     27  N   UNL     1       4.668   5.128  18.057  0.00  0.00    +0.000 NA
BRANCH  25  28
ATOM     28  C   UNL     1       1.749   4.984  20.438  0.00  0.00    +0.000 C 
ATOM     29  F   UNL     1       0.888   5.920  20.923  0.00  0.00    +0.000 F 
ATOM     30  F   UNL     1       0.970   3.988  19.932  0.00  0.00    +0.000 F 
ATOM     31  F   UNL     1       2.373   4.453  21.526  0.00  0.00    +0.000 F 
ENDBRANCH  25  28
ENDBRANCH  21  22
ENDBRANCH  20  21
ENDBRANCH   2  20
TORSDOF 6
ENDMDL
MODEL 7
REMARK VINA RESULT:      -7.7      6.516      9.541
REMARK  Name = 
REMARK  9 active torsions:
REMARK  status: ('A' for Active; 'I' for Inactive)
REMARK    1  A    between atoms: C_1  and  C_2
REMARK    2  A    between atoms: C_2  and  C_3
REMARK    3  A    between atoms: C_2  and  N_4
REMARK    4  A    between atoms: N_4  and  C_5
REMARK    5  A    between atoms: C_11  and  N_12
REMARK    6  A    between atoms: C_13  and  C_15
REMARK    7  A    between atoms: C_15  and  C_16
REMARK    8  A    between atoms: C_16  and  C_17
REMARK    9  A    between atoms: C_20  and  C_21
REMARK                            x       y       z     vdW  Elec       q    Type
REMARK                         _______ _______ _______ _____ _____    ______ ____
ROOT
ATOM      1  N   UNL     1       7.153   7.994  17.026  0.00  0.00    +0.000 N 
ATOM      2  C   UNL     1       8.102   8.529  17.879  0.00  0.00    +0.000 C 
ATOM      3  O   UNL     1       8.624   7.974  18.844  0.00  0.00    +0.000 OA
ATOM      4  H   UNL     1       6.840   8.576  16.257  0.00  0.00    +0.000 HD
ENDROOT
BRANCH   1  12
ATOM      5  N   UNL     1       2.930   2.594  19.327  0.00  0.00    +0.000 N 
ATOM      6  C   UNL     1       2.981   1.200  18.873  0.00  0.00    +0.000 C 
ATOM      7  C   UNL     1       3.799   3.416  18.670  0.00  0.00    +0.000 A 
ATOM      8  N   UNL     1       4.609   3.079  17.688  0.00  0.00    +0.000 NA
ATOM      9  C   UNL     1       5.319   4.205  17.376  0.00  0.00    +0.000 A 
ATOM     10  C   UNL     1       6.307   4.390  16.404  0.00  0.00    +0.000 A 
ATOM     11  C   UNL     1       6.912   5.649  16.291  0.00  0.00    +0.000 A 
ATOM     12  C   UNL     1       6.547   6.718  17.117  0.00  0.00    +0.000 A 
ATOM     13  C   UNL     1       5.545   6.539  18.093  0.00  0.00    +0.000 A 
ATOM     14  C   UNL     1       4.960   5.268  18.191  0.00  0.00    +0.000 A 
ATOM     15  N   UNL     1       3.995   4.734  19.009  0.00  0.00    +0.000 N 
ATOM     16  H   UNL     1       3.538   5.212  19.770  0.00  0.00    +0.000 HD
BRANCH   5  18
ATOM     17  C   UNL     1       0.456   2.665  19.068  0.00  0.00    +0.000 C 
ATOM     18  C   UNL     1       1.666   3.108  19.891  0.00  0.00    +0.000 C 
ATOM     19  C   UNL     1       1.505   2.712  21.362  0.00  0.00    +0.000 C 
ENDBRANCH   5  18
ENDBRANCH   1  12
BRANCH   2  20
ATOM     20  C   UNL     1       8.496   9.956  17.545  0.00  0.00    +0.000 C 
BRANCH  20  21
ATOM     21  C   UNL     1       9.278  10.579  18.692  0.00  0.00    +0.000 C 
BRANCH  21  22
ATOM     22  C   UNL     1       9.747  11.974  18.384  0.00  0.00    +0.000 A 
ATOM     23  C   UNL     1      10.805  12.193  17.510  0.00  0.00    +0.000 A 
ATOM     24  C   UNL     1      11.243  13.500  17.299  0.00  0.00    +0.000 A 
ATOM     25  C   UNL     1      10.613  14.557  17.960  0.00  0.00    +0.000 A 
ATOM     26  C   UNL     1       9.558  14.244  18.804  0.00  0.00    +0.000 A 
ATOM     27  N   UNL     1       9.109  12.985  19.024  0.00  0.00    +0.000 NA
BRANCH  25  28
ATOM     28  C   UNL     1      11.032  15.983  17.789  0.00  0.00    +0.000 C 
ATOM     29  F   UNL     1      10.912  16.435  16.510  0.00  0.00    +0.000 F 
ATOM     30  F   UNL     1      10.300  16.837  18.556  0.00  0.00    +0.000 F 
ATOM     31  F   UNL     1      12.332  16.191  18.137  0.00  0.00    +0.000 F 
ENDBRANCH  25  28
ENDBRANCH  21  22
ENDBRANCH  20  21
ENDBRANCH   2  20
TORSDOF 6
ENDMDL
MODEL 8
REMARK VINA RESULT:      -7.7      1.706      2.383
REMARK  Name = 
REMARK  9 active torsions:
REMARK  status: ('A' for Active; 'I' for Inactive)
REMARK    1  A    between atoms: C_1  and  C_2
REMARK    2  A    between atoms: C_2  and  C_3
REMARK    3  A    between atoms: C_2  and  N_4
REMARK    4  A    between atoms: N_4  and  C_5
REMARK    5  A    between atoms: C_11  and  N_12
REMARK    6  A    between atoms: C_13  and  C_15
REMARK    7  A    between atoms: C_15  and  C_16
REMARK    8  A    between atoms: C_16  and  C_17
REMARK    9  A    between atoms: C_20  and  C_21
REMARK                            x       y       z     vdW  Elec       q    Type
REMARK                         _______ _______ _______ _____ _____    ______ ____
ROOT
ATOM      1  N   UNL     1       3.084   6.106  19.198  0.00  0.00    +0.000 N 
ATOM      2  C   UNL     1       2.530   4.838  19.214  0.00  0.00    +0.000 C 
ATOM      3  O   UNL     1       1.342   4.549  19.081  0.00  0.00    +0.000 OA
ATOM      4  H   UNL     1       4.090   6.174  19.296  0.00  0.00    +0.000 HD
ENDROOT
BRANCH   1  12
ATOM      5  N   UNL     1      -0.945  11.862  20.912  0.00  0.00    +0.000 N 
ATOM      6  C   UNL     1      -1.431  12.887  19.982  0.00  0.00    +0.000 C 
ATOM      7  C   UNL     1      -0.145  10.925  20.324  0.00  0.00    +0.000 A 
ATOM      8  N   UNL     1       0.231  10.893  19.063  0.00  0.00    +0.000 NA
ATOM      9  C   UNL     1       0.980   9.758  18.917  0.00  0.00    +0.000 A 
ATOM     10  C   UNL     1       1.618   9.257  17.779  0.00  0.00    +0.000 A 
ATOM     11  C   UNL     1       2.316   8.045  17.876  0.00  0.00    +0.000 A 
ATOM     12  C   UNL     1       2.394   7.336  19.081  0.00  0.00    +0.000 A 
ATOM     13  C   UNL     1       1.759   7.842  20.233  0.00  0.00    +0.000 A 
ATOM     14  C   UNL     1       1.061   9.053  20.108  0.00  0.00    +0.000 A 
ATOM     15  N   UNL     1       0.330   9.816  20.984  0.00  0.00    +0.000 N 
ATOM     16  H   UNL     1       0.128   9.581  21.943  0.00  0.00    +0.000 HD
BRANCH   5  18
ATOM     17  C   UNL     1      -0.660  13.727  22.536  0.00  0.00    +0.000 C 
ATOM     18  C   UNL     1      -0.790  12.216  22.337  0.00  0.00    +0.000 C 
ATOM     19  C   UNL     1      -1.933  11.647  23.184  0.00  0.00    +0.000 C 
ENDBRANCH   5  18
ENDBRANCH   1  12
BRANCH   2  20
ATOM     20  C   UNL     1       3.542   3.727  19.427  0.00  0.00    +0.000 C 
BRANCH  20  21
ATOM     21  C   UNL     1       4.471   3.609  18.228  0.00  0.00    +0.000 C 
BRANCH  21  22
ATOM     22  C   UNL     1       5.442   4.753  18.132  0.00  0.00    +0.000 A 
ATOM     23  C   UNL     1       6.503   4.863  19.023  0.00  0.00    +0.000 A 
ATOM     24  C   UNL     1       7.345   5.971  18.932  0.00  0.00    +0.000 A 
ATOM     25  C   UNL     1       7.112   6.940  17.953  0.00  0.00    +0.000 A 
ATOM     26  C   UNL     1       6.036   6.740  17.101  0.00  0.00    +0.000 A 
ATOM     27  N   UNL     1       5.206   5.672  17.164  0.00  0.00    +0.000 NA
BRANCH  25  28
ATOM     28  C   UNL     1       7.967   8.158  17.801  0.00  0.00    +0.000 C 
ATOM     29  F   UNL     1       8.836   8.344  18.832  0.00  0.00    +0.000 F 
ATOM     30  F   UNL     1       8.729   8.122  16.673  0.00  0.00    +0.000 F 
ATOM     31  F   UNL     1       7.235   9.304  17.720  0.00  0.00    +0.000 F 
ENDBRANCH  25  28
ENDBRANCH  21  22
ENDBRANCH  20  21
ENDBRANCH   2  20
TORSDOF 6
ENDMDL
MODEL 9
REMARK VINA RESULT:      -7.7      0.865      1.363
REMARK  Name = 
REMARK  9 active torsions:
REMARK  status: ('A' for Active; 'I' for Inactive)
REMARK    1  A    between atoms: C_1  and  C_2
REMARK    2  A    between atoms: C_2  and  C_3
REMARK    3  A    between atoms: C_2  and  N_4
REMARK    4  A    between atoms: N_4  and  C_5
REMARK    5  A    between atoms: C_11  and  N_12
REMARK    6  A    between atoms: C_13  and  C_15
REMARK    7  A    between atoms: C_15  and  C_16
REMARK    8  A    between atoms: C_16  and  C_17
REMARK    9  A    between atoms: C_20  and  C_21
REMARK                            x       y       z     vdW  Elec       q    Type
REMARK                         _______ _______ _______ _____ _____    ______ ____
ROOT
ATOM      1  N   UNL     1       2.468   6.004  20.554  0.00  0.00    +0.000 N 
ATOM      2  C   UNL     1       1.680   4.880  20.729  0.00  0.00    +0.000 C 
ATOM      3  O   UNL     1       0.509   4.737  20.379  0.00  0.00    +0.000 OA
ATOM      4  H   UNL     1       3.427   5.953  20.878  0.00  0.00    +0.000 HD
ENDROOT
BRANCH   1  12
ATOM      5  N   UNL     1      -0.566  12.529  19.837  0.00  0.00    +0.000 N 
ATOM      6  C   UNL     1      -0.646  13.316  18.602  0.00  0.00    +0.000 C 
ATOM      7  C   UNL     1       0.125  11.360  19.698  0.00  0.00    +0.000 A 
ATOM      8  N   UNL     1       0.723  10.927  18.607  0.00  0.00    +0.000 NA
ATOM      9  C   UNL     1       1.240   9.700  18.919  0.00  0.00    +0.000 A 
ATOM     10  C   UNL     1       1.971   8.816  18.118  0.00  0.00    +0.000 A 
ATOM     11  C   UNL     1       2.376   7.591  18.665  0.00  0.00    +0.000 A 
ATOM     12  C   UNL     1       2.077   7.240  19.986  0.00  0.00    +0.000 A 
ATOM     13  C   UNL     1       1.348   8.131  20.800  0.00  0.00    +0.000 A 
ATOM     14  C   UNL     1       0.947   9.347  20.227  0.00  0.00    +0.000 A 
ATOM     15  N   UNL     1       0.231  10.421  20.696  0.00  0.00    +0.000 N 
ATOM     16  H   UNL     1      -0.195  10.492  21.607  0.00  0.00    +0.000 HD
BRANCH   5  18
ATOM     17  C   UNL     1      -1.172  12.347  22.245  0.00  0.00    +0.000 C 
ATOM     18  C   UNL     1      -0.619  13.238  21.132  0.00  0.00    +0.000 C 
ATOM     19  C   UNL     1       0.748  13.812  21.514  0.00  0.00    +0.000 C 
ENDBRANCH   5  18
ENDBRANCH   1  12
BRANCH   2  20
ATOM     20  C   UNL     1       2.384   3.738  21.438  0.00  0.00    +0.000 C 
BRANCH  20  21
ATOM     21  C   UNL     1       2.789   2.658  20.446  0.00  0.00    +0.000 C 
BRANCH  21  22
ATOM     22  C   UNL     1       3.531   3.209  19.260  0.00  0.00    +0.000 A 
ATOM     23  C   UNL     1       4.796   3.766  19.408  0.00  0.00    +0.000 A 
ATOM     24  C   UNL     1       5.422   4.317  18.290  0.00  0.00    +0.000 A 
ATOM     25  C   UNL     1       4.776   4.294  17.052  0.00  0.00    +0.000 A 
ATOM     26  C   UNL     1       3.521   3.705  16.998  0.00  0.00    +0.000 A 
ATOM     27  N   UNL     1       2.892   3.160  18.066  0.00  0.00    +0.000 NA
BRANCH  25  28
ATOM     28  C   UNL     1       5.382   4.871  15.812  0.00  0.00    +0.000 C 
ATOM     29  F   UNL     1       4.956   6.134  15.536  0.00  0.00    +0.000 F 
ATOM     30  F   UNL     1       6.740   4.942  15.880  0.00  0.00    +0.000 F 
ATOM     31  F   UNL     1       5.103   4.134  14.701  0.00  0.00    +0.000 F 
ENDBRANCH  25  28
ENDBRANCH  21  22
ENDBRANCH  20  21
ENDBRANCH   2  20
TORSDOF 6
ENDMDL
