MODEL 1
REMARK VINA RESULT:      -7.7      0.000      0.000
REMARK  Name = 
REMARK  12 active torsions:
REMARK  status: ('A' for Active; 'I' for Inactive)
REMARK    1  A    between atoms: C_1  and  C_2
REMARK    2  A    between atoms: C_2  and  C_3
REMARK    3  A    between atoms: C_3  and  C_4
REMARK    4  A    between atoms: C_4  and  C_5
REMARK    5  A    between atoms: C_5  and  O_6
REMARK    6  A    between atoms: O_6  and  C_7
REMARK    7  A    between atoms: C_7  and  C_9
REMARK    8  A    between atoms: C_9  and  C_10
REMARK    9  A    between atoms: C_11  and  C_12
REMARK   10  A    between atoms: C_14  and  C_16
REMARK   11  A    between atoms: C_26  and  O_27
REMARK   12  A    between atoms: O_27  and  C_28
REMARK                            x       y       z     vdW  Elec       q    Type
REMARK                         _______ _______ _______ _____ _____    ______ ____
ROOT
ATOM      1  C   UNL     1       4.222   5.221  17.810  0.00  0.00    +0.000 A 
ATOM      2  C   UNL     1       3.910   6.544  17.524  0.00  0.00    +0.000 A 
ATOM      3  C   UNL     1       4.502   7.436  16.476  0.00  0.00    +0.000 C 
ATOM      4  N   UNL     1       2.900   6.972  18.386  0.00  0.00    +0.000 N 
ATOM      5  C   UNL     1       2.283   8.253  18.376  0.00  0.00    +0.000 C 
ATOM      6  O   UNL     1       2.245   8.872  17.298  0.00  0.00    +0.000 OA
ATOM      7  C   UNL     1       2.586   5.895  19.231  0.00  0.00    +0.000 A 
ATOM      8  C   UNL     1       1.569   5.724  20.194  0.00  0.00    +0.000 A 
ATOM      9  C   UNL     1       1.539   4.581  20.991  0.00  0.00    +0.000 A 
ATOM     10  C   UNL     1       2.431   3.544  20.777  0.00  0.00    +0.000 A 
ATOM     11  C   UNL     1       3.367   3.653  19.737  0.00  0.00    +0.000 A 
ATOM     12  C   UNL     1       3.455   4.837  18.952  0.00  0.00    +0.000 A 
ENDROOT
BRANCH   5  13
ATOM     13  C   UNL     1       1.615   8.887  19.540  0.00  0.00    +0.000 A 
ATOM     14  C   UNL     1       2.039   8.600  20.845  0.00  0.00    +0.000 A 
ATOM     15  C   UNL     1       1.223   8.948  21.921  0.00  0.00    +0.000 A 
ATOM     16  C   UNL     1       0.050   9.666  21.697  0.00  0.00    +0.000 A 
ATOM     17 CL   UNL     1      -1.022   9.967  23.006  0.00  0.00    +0.000 Cl
ATOM     18  C   UNL     1      -0.293  10.090  20.411  0.00  0.00    +0.000 A 
ATOM     19  C   UNL     1       0.490   9.697  19.327  0.00  0.00    +0.000 A 
ENDBRANCH   5  13
BRANCH  10  20
ATOM     20  O   UNL     1       2.447   2.375  21.498  0.00  0.00    +0.000 OA
ATOM     21  C   UNL     1       1.309   2.139  22.329  0.00  0.00    +0.000 C 
ENDBRANCH  10  20
BRANCH   1  22
ATOM     22  C   UNL     1       5.174   4.347  17.039  0.00  0.00    +0.000 C 
BRANCH  22  23
ATOM     23  C   UNL     1       6.610   4.525  17.477  0.00  0.00    +0.000 C 
ATOM     24  O   UNL     1       6.976   4.733  18.629  0.00  0.00    +0.000 OA
BRANCH  23  25
ATOM     25  O   UNL     1       7.440   4.530  16.390  0.00  0.00    +0.000 OA
BRANCH  25  26
ATOM     26  C   UNL     1       6.939   5.322  15.305  0.00  0.00    +0.000 C 
BRANCH  26  27
ATOM     27  C   UNL     1       7.129   4.639  13.960  0.00  0.00    +0.000 C 
BRANCH  27  28
ATOM     28  C   UNL     1       5.908   3.780  13.621  0.00  0.00    +0.000 C 
BRANCH  28  30
ATOM     29  C   UNL     1       4.563   3.216  11.570  0.00  0.00    +0.000 C 
ATOM     30  C   UNL     1       5.955   3.293  12.176  0.00  0.00    +0.000 C 
ENDBRANCH  28  30
ENDBRANCH  27  28
ENDBRANCH  26  27
ENDBRANCH  25  26
ENDBRANCH  23  25
ENDBRANCH  22  23
ENDBRANCH   1  22
TORSDOF 9
ENDMDL
MODEL 2
REMARK VINA RESULT:      -7.3      0.537      1.034
REMARK  Name = 
REMARK  12 active torsions:
REMARK  status: ('A' for Active; 'I' for Inactive)
REMARK    1  A    between atoms: C_1  and  C_2
REMARK    2  A    between atoms: C_2  and  C_3
REMARK    3  A    between atoms: C_3  and  C_4
REMARK    4  A    between atoms: C_4  and  C_5
REMARK    5  A    between atoms: C_5  and  O_6
REMARK    6  A    between atoms: O_6  and  C_7
REMARK    7  A    between atoms: C_7  and  C_9
REMARK    8  A    between atoms: C_9  and  C_10
REMARK    9  A    between atoms: C_11  and  C_12
REMARK   10  A    between atoms: C_14  and  C_16
REMARK   11  A    between atoms: C_26  and  O_27
REMARK   12  A    between atoms: O_27  and  C_28
REMARK                            x       y       z     vdW  Elec       q    Type
REMARK                         _______ _______ _______ _____ _____    ______ ____
ROOT
ATOM      1  C   UNL     1       4.246   5.108  17.828  0.00  0.00    +0.000 A 
ATOM      2  C   UNL     1       3.992   6.449  17.569  0.00  0.00    +0.000 A 
ATOM      3  C   UNL     1       4.748   7.387  16.679  0.00  0.00    +0.000 C 
ATOM      4  N   UNL     1       2.859   6.844  18.283  0.00  0.00    +0.000 N 
ATOM      5  C   UNL     1       2.259   8.132  18.245  0.00  0.00    +0.000 C 
ATOM      6  O   UNL     1       2.396   8.809  17.210  0.00  0.00    +0.000 OA
ATOM      7  C   UNL     1       2.408   5.729  19.006  0.00  0.00    +0.000 A 
ATOM      8  C   UNL     1       1.250   5.521  19.785  0.00  0.00    +0.000 A 
ATOM      9  C   UNL     1       1.087   4.338  20.503  0.00  0.00    +0.000 A 
ATOM     10  C   UNL     1       1.996   3.301  20.377  0.00  0.00    +0.000 A 
ATOM     11  C   UNL     1       3.086   3.452  19.506  0.00  0.00    +0.000 A 
ATOM     12  C   UNL     1       3.305   4.675  18.812  0.00  0.00    +0.000 A 
ENDROOT
BRANCH   5  13
ATOM     13  C   UNL     1       1.417   8.713  19.320  0.00  0.00    +0.000 A 
ATOM     14  C   UNL     1       0.384   9.608  19.007  0.00  0.00    +0.000 A 
ATOM     15  C   UNL     1      -0.189  10.375  20.022  0.00  0.00    +0.000 A 
ATOM     16  C   UNL     1       0.199  10.171  21.345  0.00  0.00    +0.000 A 
ATOM     17 CL   UNL     1      -0.402  11.213  22.573  0.00  0.00    +0.000 Cl
ATOM     18  C   UNL     1       1.113   9.169  21.675  0.00  0.00    +0.000 A 
ATOM     19  C   UNL     1       1.728   8.438  20.660  0.00  0.00    +0.000 A 
ENDBRANCH   5  13
BRANCH  10  20
ATOM     20  O   UNL     1       1.890   2.095  21.027  0.00  0.00    +0.000 OA
ATOM     21  C   UNL     1       1.351   2.144  22.349  0.00  0.00    +0.000 C 
ENDBRANCH  10  20
BRANCH   1  22
ATOM     22  C   UNL     1       5.303   4.263  17.172  0.00  0.00    +0.000 C 
BRANCH  22  23
ATOM     23  C   UNL     1       6.705   4.713  17.519  0.00  0.00    +0.000 C 
ATOM     24  O   UNL     1       7.025   5.292  18.551  0.00  0.00    +0.000 OA
BRANCH  23  25
ATOM     25  O   UNL     1       7.550   4.481  16.470  0.00  0.00    +0.000 OA
BRANCH  25  26
ATOM     26  C   UNL     1       7.020   4.922  15.213  0.00  0.00    +0.000 C 
BRANCH  26  27
ATOM     27  C   UNL     1       6.415   3.779  14.412  0.00  0.00    +0.000 C 
BRANCH  27  28
ATOM     28  C   UNL     1       6.270   4.178  12.941  0.00  0.00    +0.000 C 
BRANCH  28  30
ATOM     29  C   UNL     1       4.458   3.225  11.477  0.00  0.00    +0.000 C 
ATOM     30  C   UNL     1       5.833   2.995  12.084  0.00  0.00    +0.000 C 
ENDBRANCH  28  30
ENDBRANCH  27  28
ENDBRANCH  26  27
ENDBRANCH  25  26
ENDBRANCH  23  25
ENDBRANCH  22  23
ENDBRANCH   1  22
TORSDOF 9
ENDMDL
MODEL 3
REMARK VINA RESULT:      -7.1      1.974      3.457
REMARK  Name = 
REMARK  12 active torsions:
REMARK  status: ('A' for Active; 'I' for Inactive)
REMARK    1  A    between atoms: C_1  and  C_2
REMARK    2  A    between atoms: C_2  and  C_3
REMARK    3  A    between atoms: C_3  and  C_4
REMARK    4  A    between atoms: C_4  and  C_5
REMARK    5  A    between atoms: C_5  and  O_6
REMARK    6  A    between atoms: O_6  and  C_7
REMARK    7  A    between atoms: C_7  and  C_9
REMARK    8  A    between atoms: C_9  and  C_10
REMARK    9  A    between atoms: C_11  and  C_12
REMARK   10  A    between atoms: C_14  and  C_16
REMARK   11  A    between atoms: C_26  and  O_27
REMARK   12  A    between atoms: O_27  and  C_28
REMARK                            x       y       z     vdW  Elec       q    Type
REMARK                         _______ _______ _______ _____ _____    ______ ____
ROOT
ATOM      1  C   UNL     1       4.410   5.426  17.772  0.00  0.00    +0.000 A 
ATOM      2  C   UNL     1       4.059   6.741  17.494  0.00  0.00    +0.000 A 
ATOM      3  C   UNL     1       4.730   7.710  16.569  0.00  0.00    +0.000 C 
ATOM      4  N   UNL     1       2.918   7.073  18.227  0.00  0.00    +0.000 N 
ATOM      5  C   UNL     1       2.231   8.317  18.179  0.00  0.00    +0.000 C 
ATOM      6  O   UNL     1       2.299   8.980  17.128  0.00  0.00    +0.000 OA
ATOM      7  C   UNL     1       2.560   5.945  18.981  0.00  0.00    +0.000 A 
ATOM      8  C   UNL     1       1.437   5.675  19.791  0.00  0.00    +0.000 A 
ATOM      9  C   UNL     1       1.370   4.498  20.534  0.00  0.00    +0.000 A 
ATOM     10  C   UNL     1       2.345   3.523  20.407  0.00  0.00    +0.000 A 
ATOM     11  C   UNL     1       3.403   3.729  19.508  0.00  0.00    +0.000 A 
ATOM     12  C   UNL     1       3.522   4.950  18.785  0.00  0.00    +0.000 A 
ENDROOT
BRANCH   5  13
ATOM     13  C   UNL     1       1.375   8.861  19.263  0.00  0.00    +0.000 A 
ATOM     14  C   UNL     1       0.285   9.688  18.957  0.00  0.00    +0.000 A 
ATOM     15  C   UNL     1      -0.314  10.433  19.974  0.00  0.00    +0.000 A 
ATOM     16  C   UNL     1       0.108  10.270  21.292  0.00  0.00    +0.000 A 
ATOM     17 CL   UNL     1      -0.531  11.291  22.518  0.00  0.00    +0.000 Cl
ATOM     18  C   UNL     1       1.087   9.329  21.617  0.00  0.00    +0.000 A 
ATOM     19  C   UNL     1       1.726   8.623  20.599  0.00  0.00    +0.000 A 
ENDBRANCH   5  13
BRANCH  10  20
ATOM     20  O   UNL     1       2.335   2.326  21.081  0.00  0.00    +0.000 OA
ATOM     21  C   UNL     1       1.472   2.256  22.217  0.00  0.00    +0.000 C 
ENDBRANCH  10  20
BRANCH   1  22
ATOM     22  C   UNL     1       5.507   4.641  17.108  0.00  0.00    +0.000 C 
BRANCH  22  23
ATOM     23  C   UNL     1       6.873   4.957  17.676  0.00  0.00    +0.000 C 
ATOM     24  O   UNL     1       7.912   4.378  17.377  0.00  0.00    +0.000 OA
BRANCH  23  25
ATOM     25  O   UNL     1       6.772   5.909  18.652  0.00  0.00    +0.000 OA
BRANCH  25  26
ATOM     26  C   UNL     1       7.901   6.792  18.694  0.00  0.00    +0.000 C 
BRANCH  26  27
ATOM     27  C   UNL     1       7.975   7.689  17.468  0.00  0.00    +0.000 C 
BRANCH  27  28
ATOM     28  C   UNL     1       7.939   9.162  17.884  0.00  0.00    +0.000 C 
BRANCH  28  30
ATOM     29  C   UNL     1       9.259  10.965  19.042  0.00  0.00    +0.000 C 
ATOM     30  C   UNL     1       9.003   9.471  18.932  0.00  0.00    +0.000 C 
ENDBRANCH  28  30
ENDBRANCH  27  28
ENDBRANCH  26  27
ENDBRANCH  25  26
ENDBRANCH  23  25
ENDBRANCH  22  23
ENDBRANCH   1  22
TORSDOF 9
ENDMDL
MODEL 4
REMARK VINA RESULT:      -7.0      1.642      2.184
REMARK  Name = 
REMARK  12 active torsions:
REMARK  status: ('A' for Active; 'I' for Inactive)
REMARK    1  A    between atoms: C_1  and  C_2
REMARK    2  A    between atoms: C_2  and  C_3
REMARK    3  A    between atoms: C_3  and  C_4
REMARK    4  A    between atoms: C_4  and  C_5
REMARK    5  A    between atoms: C_5  and  O_6
REMARK    6  A    between atoms: O_6  and  C_7
REMARK    7  A    between atoms: C_7  and  C_9
REMARK    8  A    between atoms: C_9  and  C_10
REMARK    9  A    between atoms: C_11  and  C_12
REMARK   10  A    between atoms: C_14  and  C_16
REMARK   11  A    between atoms: C_26  and  O_27
REMARK   12  A    between atoms: O_27  and  C_28
REMARK                            x       y       z     vdW  Elec       q    Type
REMARK                         _______ _______ _______ _____ _____    ______ ____
ROOT
ATOM      1  C   UNL     1       5.542   5.374  17.597  0.00  0.00    +0.000 A 
ATOM      2  C   UNL     1       5.277   6.736  17.552  0.00  0.00    +0.000 A 
ATOM      3  C   UNL     1       6.213   7.859  17.223  0.00  0.00    +0.000 C 
ATOM      4  N   UNL     1       3.933   6.950  17.864  0.00  0.00    +0.000 N 
ATOM      5  C   UNL     1       3.272   8.208  17.880  0.00  0.00    +0.000 C 
ATOM      6  O   UNL     1       3.708   9.105  17.137  0.00  0.00    +0.000 OA
ATOM      7  C   UNL     1       3.357   5.695  18.117  0.00  0.00    +0.000 A 
ATOM      8  C   UNL     1       2.021   5.306  18.352  0.00  0.00    +0.000 A 
ATOM      9  C   UNL     1       1.720   3.989  18.692  0.00  0.00    +0.000 A 
ATOM     10  C   UNL     1       2.704   3.015  18.694  0.00  0.00    +0.000 A 
ATOM     11  C   UNL     1       4.015   3.368  18.340  0.00  0.00    +0.000 A 
ATOM     12  C   UNL     1       4.356   4.720  18.049  0.00  0.00    +0.000 A 
ENDROOT
BRANCH   5  13
ATOM     13  C   UNL     1       2.053   8.521  18.666  0.00  0.00    +0.000 A 
ATOM     14  C   UNL     1       1.045   9.329  18.120  0.00  0.00    +0.000 A 
ATOM     15  C   UNL     1       0.067   9.864  18.960  0.00  0.00    +0.000 A 
ATOM     16  C   UNL     1       0.043   9.509  20.307  0.00  0.00    +0.000 A 
ATOM     17 CL   UNL     1      -1.072  10.280  21.365  0.00  0.00    +0.000 Cl
ATOM     18  C   UNL     1       0.951   8.580  20.818  0.00  0.00    +0.000 A 
ATOM     19  C   UNL     1       1.962   8.085  19.996  0.00  0.00    +0.000 A 
ENDBRANCH   5  13
BRANCH  10  20
ATOM     20  O   UNL     1       2.482   1.691  18.989  0.00  0.00    +0.000 OA
ATOM     21  C   UNL     1       3.588   0.812  18.779  0.00  0.00    +0.000 C 
ENDBRANCH  10  20
BRANCH   1  22
ATOM     22  C   UNL     1       6.836   4.709  17.215  0.00  0.00    +0.000 C 
BRANCH  22  23
ATOM     23  C   UNL     1       7.065   4.699  15.720  0.00  0.00    +0.000 C 
ATOM     24  O   UNL     1       7.710   5.537  15.099  0.00  0.00    +0.000 OA
BRANCH  23  25
ATOM     25  O   UNL     1       6.359   3.681  15.140  0.00  0.00    +0.000 OA
BRANCH  25  26
ATOM     26  C   UNL     1       5.597   4.104  14.002  0.00  0.00    +0.000 C 
BRANCH  26  27
ATOM     27  C   UNL     1       6.215   3.642  12.691  0.00  0.00    +0.000 C 
BRANCH  27  28
ATOM     28  C   UNL     1       5.169   2.927  11.832  0.00  0.00    +0.000 C 
BRANCH  28  30
ATOM     29  C   UNL     1       7.195   1.669  11.029  0.00  0.00    +0.000 C 
ATOM     30  C   UNL     1       5.701   1.601  11.298  0.00  0.00    +0.000 C 
ENDBRANCH  28  30
ENDBRANCH  27  28
ENDBRANCH  26  27
ENDBRANCH  25  26
ENDBRANCH  23  25
ENDBRANCH  22  23
ENDBRANCH   1  22
TORSDOF 9
ENDMDL
MODEL 5
REMARK VINA RESULT:      -7.0      1.745      3.128
REMARK  Name = 
REMARK  12 active torsions:
REMARK  status: ('A' for Active; 'I' for Inactive)
REMARK    1  A    between atoms: C_1  and  C_2
REMARK    2  A    between atoms: C_2  and  C_3
REMARK    3  A    between atoms: C_3  and  C_4
REMARK    4  A    between atoms: C_4  and  C_5
REMARK    5  A    between atoms: C_5  and  O_6
REMARK    6  A    between atoms: O_6  and  C_7
REMARK    7  A    between atoms: C_7  and  C_9
REMARK    8  A    between atoms: C_9  and  C_10
REMARK    9  A    between atoms: C_11  and  C_12
REMARK   10  A    between atoms: C_14  and  C_16
REMARK   11  A    between atoms: C_26  and  O_27
REMARK   12  A    between atoms: O_27  and  C_28
REMARK                            x       y       z     vdW  Elec       q    Type
REMARK                         _______ _______ _______ _____ _____    ______ ____
ROOT
ATOM      1  C   UNL     1       4.391   5.160  17.663  0.00  0.00    +0.000 A 
ATOM      2  C   UNL     1       3.973   6.450  17.360  0.00  0.00    +0.000 A 
ATOM      3  C   UNL     1       4.432   7.342  16.247  0.00  0.00    +0.000 C 
ATOM      4  N   UNL     1       2.996   6.840  18.278  0.00  0.00    +0.000 N 
ATOM      5  C   UNL     1       2.296   8.077  18.272  0.00  0.00    +0.000 C 
ATOM      6  O   UNL     1       2.143   8.655  17.181  0.00  0.00    +0.000 OA
ATOM      7  C   UNL     1       2.812   5.775  19.174  0.00  0.00    +0.000 A 
ATOM      8  C   UNL     1       1.877   5.571  20.210  0.00  0.00    +0.000 A 
ATOM      9  C   UNL     1       1.977   4.457  21.041  0.00  0.00    +0.000 A 
ATOM     10  C   UNL     1       2.920   3.473  20.797  0.00  0.00    +0.000 A 
ATOM     11  C   UNL     1       3.774   3.607  19.691  0.00  0.00    +0.000 A 
ATOM     12  C   UNL     1       3.730   4.766  18.867  0.00  0.00    +0.000 A 
ENDROOT
BRANCH   5  13
ATOM     13  C   UNL     1       1.666   8.706  19.459  0.00  0.00    +0.000 A 
ATOM     14  C   UNL     1       2.071   8.344  20.752  0.00  0.00    +0.000 A 
ATOM     15  C   UNL     1       1.276   8.701  21.842  0.00  0.00    +0.000 A 
ATOM     16  C   UNL     1       0.149   9.497  21.646  0.00  0.00    +0.000 A 
ATOM     17 CL   UNL     1      -0.904   9.813  22.968  0.00  0.00    +0.000 Cl
ATOM     18  C   UNL     1      -0.166   9.989  20.379  0.00  0.00    +0.000 A 
ATOM     19  C   UNL     1       0.593   9.591  19.279  0.00  0.00    +0.000 A 
ENDBRANCH   5  13
BRANCH  10  20
ATOM     20  O   UNL     1       3.062   2.333  21.550  0.00  0.00    +0.000 OA
ATOM     21  C   UNL     1       4.261   1.588  21.333  0.00  0.00    +0.000 C 
ENDBRANCH  10  20
BRANCH   1  22
ATOM     22  C   UNL     1       5.345   4.324  16.856  0.00  0.00    +0.000 C 
BRANCH  22  23
ATOM     23  C   UNL     1       6.792   4.593  17.203  0.00  0.00    +0.000 C 
ATOM     24  O   UNL     1       7.736   4.480  16.430  0.00  0.00    +0.000 OA
BRANCH  23  25
ATOM     25  O   UNL     1       6.914   4.878  18.535  0.00  0.00    +0.000 OA
BRANCH  25  26
ATOM     26  C   UNL     1       7.567   6.130  18.784  0.00  0.00    +0.000 C 
BRANCH  26  27
ATOM     27  C   UNL     1       7.773   6.934  17.510  0.00  0.00    +0.000 C 
BRANCH  27  28
ATOM     28  C   UNL     1       7.570   8.427  17.783  0.00  0.00    +0.000 C 
BRANCH  28  30
ATOM     29  C   UNL     1       9.007  10.445  18.227  0.00  0.00    +0.000 C 
ATOM     30  C   UNL     1       8.718   9.002  18.607  0.00  0.00    +0.000 C 
ENDBRANCH  28  30
ENDBRANCH  27  28
ENDBRANCH  26  27
ENDBRANCH  25  26
ENDBRANCH  23  25
ENDBRANCH  22  23
ENDBRANCH   1  22
TORSDOF 9
ENDMDL
MODEL 6
REMARK VINA RESULT:      -6.9      0.941      1.197
REMARK  Name = 
REMARK  12 active torsions:
REMARK  status: ('A' for Active; 'I' for Inactive)
REMARK    1  A    between atoms: C_1  and  C_2
REMARK    2  A    between atoms: C_2  and  C_3
REMARK    3  A    between atoms: C_3  and  C_4
REMARK    4  A    between atoms: C_4  and  C_5
REMARK    5  A    between atoms: C_5  and  O_6
REMARK    6  A    between atoms: O_6  and  C_7
REMARK    7  A    between atoms: C_7  and  C_9
REMARK    8  A    between atoms: C_9  and  C_10
REMARK    9  A    between atoms: C_11  and  C_12
REMARK   10  A    between atoms: C_14  and  C_16
REMARK   11  A    between atoms: C_26  and  O_27
REMARK   12  A    between atoms: O_27  and  C_28
REMARK                            x       y       z     vdW  Elec       q    Type
REMARK                         _______ _______ _______ _____ _____    ______ ____
ROOT
ATOM      1  C   UNL     1       4.477   5.181  17.597  0.00  0.00    +0.000 A 
ATOM      2  C   UNL     1       4.036   6.466  17.311  0.00  0.00    +0.000 A 
ATOM      3  C   UNL     1       4.465   7.374  16.199  0.00  0.00    +0.000 C 
ATOM      4  N   UNL     1       3.068   6.835  18.247  0.00  0.00    +0.000 N 
ATOM      5  C   UNL     1       2.350   8.062  18.262  0.00  0.00    +0.000 C 
ATOM      6  O   UNL     1       2.173   8.647  17.178  0.00  0.00    +0.000 OA
ATOM      7  C   UNL     1       2.913   5.761  19.136  0.00  0.00    +0.000 A 
ATOM      8  C   UNL     1       1.997   5.536  20.185  0.00  0.00    +0.000 A 
ATOM      9  C   UNL     1       2.125   4.416  21.005  0.00  0.00    +0.000 A 
ATOM     10  C   UNL     1       3.078   3.448  20.739  0.00  0.00    +0.000 A 
ATOM     11  C   UNL     1       3.914   3.602  19.622  0.00  0.00    +0.000 A 
ATOM     12  C   UNL     1       3.840   4.768  18.808  0.00  0.00    +0.000 A 
ENDROOT
BRANCH   5  13
ATOM     13  C   UNL     1       1.730   8.673  19.464  0.00  0.00    +0.000 A 
ATOM     14  C   UNL     1       2.042   8.193  20.744  0.00  0.00    +0.000 A 
ATOM     15  C   UNL     1       1.236   8.555  21.824  0.00  0.00    +0.000 A 
ATOM     16  C   UNL     1       0.198   9.466  21.639  0.00  0.00    +0.000 A 
ATOM     17 CL   UNL     1      -0.878   9.797  22.938  0.00  0.00    +0.000 Cl
ATOM     18  C   UNL     1      -0.014  10.065  20.396  0.00  0.00    +0.000 A 
ATOM     19  C   UNL     1       0.753   9.666  19.302  0.00  0.00    +0.000 A 
ENDBRANCH   5  13
BRANCH  10  20
ATOM     20  O   UNL     1       3.248   2.304  21.480  0.00  0.00    +0.000 OA
ATOM     21  C   UNL     1       4.444   1.566  21.224  0.00  0.00    +0.000 C 
ENDBRANCH  10  20
BRANCH   1  22
ATOM     22  C   UNL     1       5.431   4.365  16.768  0.00  0.00    +0.000 C 
BRANCH  22  23
ATOM     23  C   UNL     1       6.643   5.155  16.330  0.00  0.00    +0.000 C 
ATOM     24  O   UNL     1       7.467   5.659  17.085  0.00  0.00    +0.000 OA
BRANCH  23  25
ATOM     25  O   UNL     1       6.634   5.323  14.973  0.00  0.00    +0.000 OA
BRANCH  25  26
ATOM     26  C   UNL     1       5.802   4.372  14.295  0.00  0.00    +0.000 C 
BRANCH  26  27
ATOM     27  C   UNL     1       6.497   3.755  13.092  0.00  0.00    +0.000 C 
BRANCH  27  28
ATOM     28  C   UNL     1       5.467   3.333  12.041  0.00  0.00    +0.000 C 
BRANCH  28  30
ATOM     29  C   UNL     1       7.188   1.779  11.063  0.00  0.00    +0.000 C 
ATOM     30  C   UNL     1       5.746   1.926  11.522  0.00  0.00    +0.000 C 
ENDBRANCH  28  30
ENDBRANCH  27  28
ENDBRANCH  26  27
ENDBRANCH  25  26
ENDBRANCH  23  25
ENDBRANCH  22  23
ENDBRANCH   1  22
TORSDOF 9
ENDMDL
MODEL 7
REMARK VINA RESULT:      -6.8      4.164      7.642
REMARK  Name = 
REMARK  12 active torsions:
REMARK  status: ('A' for Active; 'I' for Inactive)
REMARK    1  A    between atoms: C_1  and  C_2
REMARK    2  A    between atoms: C_2  and  C_3
REMARK    3  A    between atoms: C_3  and  C_4
REMARK    4  A    between atoms: C_4  and  C_5
REMARK    5  A    between atoms: C_5  and  O_6
REMARK    6  A    between atoms: O_6  and  C_7
REMARK    7  A    between atoms: C_7  and  C_9
REMARK    8  A    between atoms: C_9  and  C_10
REMARK    9  A    between atoms: C_11  and  C_12
REMARK   10  A    between atoms: C_14  and  C_16
REMARK   11  A    between atoms: C_26  and  O_27
REMARK   12  A    between atoms: O_27  and  C_28
REMARK                            x       y       z     vdW  Elec       q    Type
REMARK                         _______ _______ _______ _____ _____    ______ ____
ROOT
ATOM      1  C   UNL     1       0.337  10.828  18.797  0.00  0.00    +0.000 A 
ATOM      2  C   UNL     1       0.309  11.667  19.904  0.00  0.00    +0.000 A 
ATOM      3  C   UNL     1       1.422  12.000  20.850  0.00  0.00    +0.000 C 
ATOM      4  N   UNL     1      -0.971  12.209  20.032  0.00  0.00    +0.000 N 
ATOM      5  C   UNL     1      -1.382  13.146  21.019  0.00  0.00    +0.000 C 
ATOM      6  O   UNL     1      -0.521  13.909  21.492  0.00  0.00    +0.000 OA
ATOM      7  C   UNL     1      -1.754  11.688  18.991  0.00  0.00    +0.000 A 
ATOM      8  C   UNL     1      -3.066  11.983  18.566  0.00  0.00    +0.000 A 
ATOM      9  C   UNL     1      -3.665  11.233  17.555  0.00  0.00    +0.000 A 
ATOM     10  C   UNL     1      -2.949  10.265  16.871  0.00  0.00    +0.000 A 
ATOM     11  C   UNL     1      -1.603  10.051  17.203  0.00  0.00    +0.000 A 
ATOM     12  C   UNL     1      -0.990  10.762  18.274  0.00  0.00    +0.000 A 
ENDROOT
BRANCH   5  13
ATOM     13  C   UNL     1      -2.778  13.337  21.484  0.00  0.00    +0.000 A 
ATOM     14  C   UNL     1      -3.540  14.416  21.015  0.00  0.00    +0.000 A 
ATOM     15  C   UNL     1      -4.718  14.761  21.678  0.00  0.00    +0.000 A 
ATOM     16  C   UNL     1      -5.176  13.972  22.731  0.00  0.00    +0.000 A 
ATOM     17 CL   UNL     1      -6.546  14.481  23.637  0.00  0.00    +0.000 Cl
ATOM     18  C   UNL     1      -4.500  12.807  23.097  0.00  0.00    +0.000 A 
ATOM     19  C   UNL     1      -3.295  12.488  22.474  0.00  0.00    +0.000 A 
ENDBRANCH   5  13
BRANCH  10  20
ATOM     20  O   UNL     1      -3.458   9.507  15.845  0.00  0.00    +0.000 OA
ATOM     21  C   UNL     1      -3.456  10.120  14.555  0.00  0.00    +0.000 C 
ENDBRANCH  10  20
BRANCH   1  22
ATOM     22  C   UNL     1       1.551  10.136  18.238  0.00  0.00    +0.000 C 
BRANCH  22  23
ATOM     23  C   UNL     1       1.745   8.750  18.810  0.00  0.00    +0.000 C 
ATOM     24  O   UNL     1       1.559   8.437  19.981  0.00  0.00    +0.000 OA
BRANCH  23  25
ATOM     25  O   UNL     1       2.261   7.913  17.859  0.00  0.00    +0.000 OA
BRANCH  25  26
ATOM     26  C   UNL     1       2.981   6.806  18.417  0.00  0.00    +0.000 C 
BRANCH  26  27
ATOM     27  C   UNL     1       2.260   5.485  18.202  0.00  0.00    +0.000 C 
BRANCH  27  28
ATOM     28  C   UNL     1       3.031   4.342  18.868  0.00  0.00    +0.000 C 
BRANCH  28  30
ATOM     29  C   UNL     1       0.973   4.070  20.291  0.00  0.00    +0.000 C 
ATOM     30  C   UNL     1       2.493   4.048  20.265  0.00  0.00    +0.000 C 
ENDBRANCH  28  30
ENDBRANCH  27  28
ENDBRANCH  26  27
ENDBRANCH  25  26
ENDBRANCH  23  25
ENDBRANCH  22  23
ENDBRANCH   1  22
TORSDOF 9
ENDMDL
MODEL 8
REMARK VINA RESULT:      -6.8      3.946      7.425
REMARK  Name = 
REMARK  12 active torsions:
REMARK  status: ('A' for Active; 'I' for Inactive)
REMARK    1  A    between atoms: C_1  and  C_2
REMARK    2  A    between atoms: C_2  and  C_3
REMARK    3  A    between atoms: C_3  and  C_4
REMARK    4  A    between atoms: C_4  and  C_5
REMARK    5  A    between atoms: C_5  and  O_6
REMARK    6  A    between atoms: O_6  and  C_7
REMARK    7  A    between atoms: C_7  and  C_9
REMARK    8  A    between atoms: C_9  and  C_10
REMARK    9  A    between atoms: C_11  and  C_12
REMARK   10  A    between atoms: C_14  and  C_16
REMARK   11  A    between atoms: C_26  and  O_27
REMARK   12  A    between atoms: O_27  and  C_28
REMARK                            x       y       z     vdW  Elec       q    Type
REMARK                         _______ _______ _______ _____ _____    ______ ____
ROOT
ATOM      1  C   UNL     1       0.357   9.668  19.563  0.00  0.00    +0.000 A 
ATOM      2  C   UNL     1       0.313  10.437  20.718  0.00  0.00    +0.000 A 
ATOM      3  C   UNL     1       1.173  10.334  21.941  0.00  0.00    +0.000 C 
ATOM      4  N   UNL     1      -0.695  11.394  20.591  0.00  0.00    +0.000 N 
ATOM      5  C   UNL     1      -1.019  12.394  21.549  0.00  0.00    +0.000 C 
ATOM      6  O   UNL     1      -0.114  12.792  22.304  0.00  0.00    +0.000 OA
ATOM      7  C   UNL     1      -1.295  11.208  19.336  0.00  0.00    +0.000 A 
ATOM      8  C   UNL     1      -2.266  11.958  18.640  0.00  0.00    +0.000 A 
ATOM      9  C   UNL     1      -2.784  11.492  17.433  0.00  0.00    +0.000 A 
ATOM     10  C   UNL     1      -2.277  10.349  16.838  0.00  0.00    +0.000 A 
ATOM     11  C   UNL     1      -1.223   9.665  17.463  0.00  0.00    +0.000 A 
ATOM     12  C   UNL     1      -0.722  10.089  18.726  0.00  0.00    +0.000 A 
ENDROOT
BRANCH   5  13
ATOM     13  C   UNL     1      -2.341  13.056  21.677  0.00  0.00    +0.000 A 
ATOM     14  C   UNL     1      -2.535  14.352  21.178  0.00  0.00    +0.000 A 
ATOM     15  C   UNL     1      -3.664  15.073  21.570  0.00  0.00    +0.000 A 
ATOM     16  C   UNL     1      -4.632  14.465  22.366  0.00  0.00    +0.000 A 
ATOM     17 CL   UNL     1      -5.945  15.399  22.964  0.00  0.00    +0.000 Cl
ATOM     18  C   UNL     1      -4.515  13.123  22.733  0.00  0.00    +0.000 A 
ATOM     19  C   UNL     1      -3.364  12.415  22.390  0.00  0.00    +0.000 A 
ENDBRANCH   5  13
BRANCH  10  20
ATOM     20  O   UNL     1      -2.713   9.843  15.638  0.00  0.00    +0.000 OA
ATOM     21  C   UNL     1      -3.762  10.571  14.997  0.00  0.00    +0.000 C 
ENDBRANCH  10  20
BRANCH   1  22
ATOM     22  C   UNL     1       1.372   8.605  19.242  0.00  0.00    +0.000 C 
BRANCH  22  23
ATOM     23  C   UNL     1       2.273   8.991  18.091  0.00  0.00    +0.000 C 
ATOM     24  O   UNL     1       2.289  10.088  17.544  0.00  0.00    +0.000 OA
BRANCH  23  25
ATOM     25  O   UNL     1       2.996   7.908  17.672  0.00  0.00    +0.000 OA
BRANCH  25  26
ATOM     26  C   UNL     1       2.596   6.686  18.306  0.00  0.00    +0.000 C 
BRANCH  26  27
ATOM     27  C   UNL     1       3.777   5.933  18.898  0.00  0.00    +0.000 C 
BRANCH  27  28
ATOM     28  C   UNL     1       3.286   4.772  19.768  0.00  0.00    +0.000 C 
BRANCH  28  30
ATOM     29  C   UNL     1       1.015   3.925  20.445  0.00  0.00    +0.000 C 
ATOM     30  C   UNL     1       1.968   5.110  20.455  0.00  0.00    +0.000 C 
ENDBRANCH  28  30
ENDBRANCH  27  28
ENDBRANCH  26  27
ENDBRANCH  25  26
ENDBRANCH  23  25
ENDBRANCH  22  23
ENDBRANCH   1  22
TORSDOF 9
ENDMDL
MODEL 9
REMARK VINA RESULT:      -6.8      4.161      7.601
REMARK  Name = 
REMARK  12 active torsions:
REMARK  status: ('A' for Active; 'I' for Inactive)
REMARK    1  A    between atoms: C_1  and  C_2
REMARK    2  A    between atoms: C_2  and  C_3
REMARK    3  A    between atoms: C_3  and  C_4
REMARK    4  A    between atoms: C_4  and  C_5
REMARK    5  A    between atoms: C_5  and  O_6
REMARK    6  A    between atoms: O_6  and  C_7
REMARK    7  A    between atoms: C_7  and  C_9
REMARK    8  A    between atoms: C_9  and  C_10
REMARK    9  A    between atoms: C_11  and  C_12
REMARK   10  A    between atoms: C_14  and  C_16
REMARK   11  A    between atoms: C_26  and  O_27
REMARK   12  A    between atoms: O_27  and  C_28
REMARK                            x       y       z     vdW  Elec       q    Type
REMARK                         _______ _______ _______ _____ _____    ______ ____
ROOT
ATOM      1  C   UNL     1       0.407  10.838  18.801  0.00  0.00    +0.000 A 
ATOM      2  C   UNL     1       0.393  11.715  19.878  0.00  0.00    +0.000 A 
ATOM      3  C   UNL     1       1.508  12.051  20.821  0.00  0.00    +0.000 C 
ATOM      4  N   UNL     1      -0.872  12.295  19.979  0.00  0.00    +0.000 N 
ATOM      5  C   UNL     1      -1.265  13.276  20.930  0.00  0.00    +0.000 C 
ATOM      6  O   UNL     1      -0.388  14.033  21.383  0.00  0.00    +0.000 OA
ATOM      7  C   UNL     1      -1.662  11.760  18.950  0.00  0.00    +0.000 A 
ATOM      8  C   UNL     1      -2.964  12.074  18.505  0.00  0.00    +0.000 A 
ATOM      9  C   UNL     1      -3.575  11.306  17.516  0.00  0.00    +0.000 A 
ATOM     10  C   UNL     1      -2.881  10.297  16.871  0.00  0.00    +0.000 A 
ATOM     11  C   UNL     1      -1.542  10.059  17.220  0.00  0.00    +0.000 A 
ATOM     12  C   UNL     1      -0.919  10.790  18.271  0.00  0.00    +0.000 A 
ENDROOT
BRANCH   5  13
ATOM     13  C   UNL     1      -2.659  13.520  21.377  0.00  0.00    +0.000 A 
ATOM     14  C   UNL     1      -3.341  12.554  22.131  0.00  0.00    +0.000 A 
ATOM     15  C   UNL     1      -4.725  12.654  22.278  0.00  0.00    +0.000 A 
ATOM     16  C   UNL     1      -5.397  13.762  21.766  0.00  0.00    +0.000 A 
ATOM     17 CL   UNL     1      -7.114  13.811  21.824  0.00  0.00    +0.000 Cl
ATOM     18  C   UNL     1      -4.697  14.803  21.154  0.00  0.00    +0.000 A 
ATOM     19  C   UNL     1      -3.322  14.682  20.955  0.00  0.00    +0.000 A 
ENDBRANCH   5  13
BRANCH  10  20
ATOM     20  O   UNL     1      -3.402   9.517  15.868  0.00  0.00    +0.000 OA
ATOM     21  C   UNL     1      -3.234  10.014  14.539  0.00  0.00    +0.000 C 
ENDBRANCH  10  20
BRANCH   1  22
ATOM     22  C   UNL     1       1.605  10.096  18.276  0.00  0.00    +0.000 C 
BRANCH  22  23
ATOM     23  C   UNL     1       1.744   8.716  18.877  0.00  0.00    +0.000 C 
ATOM     24  O   UNL     1       1.438   8.413  20.025  0.00  0.00    +0.000 OA
BRANCH  23  25
ATOM     25  O   UNL     1       2.361   7.874  17.994  0.00  0.00    +0.000 OA
BRANCH  25  26
ATOM     26  C   UNL     1       2.810   6.655  18.601  0.00  0.00    +0.000 C 
BRANCH  26  27
ATOM     27  C   UNL     1       2.087   5.437  18.049  0.00  0.00    +0.000 C 
BRANCH  27  28
ATOM     28  C   UNL     1       2.506   4.177  18.811  0.00  0.00    +0.000 C 
BRANCH  28  30
ATOM     29  C   UNL     1       1.092   3.362  20.727  0.00  0.00    +0.000 C 
ATOM     30  C   UNL     1       1.294   3.346  19.220  0.00  0.00    +0.000 C 
ENDBRANCH  28  30
ENDBRANCH  27  28
ENDBRANCH  26  27
ENDBRANCH  25  26
ENDBRANCH  23  25
ENDBRANCH  22  23
ENDBRANCH   1  22
TORSDOF 9
ENDMDL
