MODEL 1
REMARK VINA RESULT:      -9.1      0.000      0.000
REMARK  Name = 
REMARK  3 active torsions:
REMARK  status: ('A' for Active; 'I' for Inactive)
REMARK    1  A    between atoms: C_2  and  C_3
REMARK    2  A    between atoms: C_7  and  N_8
REMARK    3  A    between atoms: N_15  and  C_16
REMARK                            x       y       z     vdW  Elec       q    Type
REMARK                         _______ _______ _______ _____ _____    ______ ____
ROOT
ATOM      1  O   UNL     1       0.397  10.259  21.888  0.00  0.00    +0.000 OA
ATOM      2  C   UNL     1       0.649  10.438  20.686  0.00  0.00    +0.000 C 
ATOM      3  N   UNL     1       1.108   9.412  19.874  0.00  0.00    +0.000 N 
ATOM      4  C   UNL     1       1.165   9.364  18.394  0.00  0.00    +0.000 C 
ATOM      5  C   UNL     1       2.371   8.534  17.900  0.00  0.00    +0.000 C 
ATOM      6  N   UNL     1       2.379   7.202  18.572  0.00  0.00    +0.000 N 
ATOM      7  C   UNL     1       2.472   7.333  20.027  0.00  0.00    +0.000 C 
ATOM      8  C   UNL     1       1.213   8.076  20.489  0.00  0.00    +0.000 C 
ENDROOT
BRANCH   6   9
ATOM      9  C   UNL     1       3.047   6.212  17.867  0.00  0.00    +0.000 A 
ATOM     10  N   UNL     1       4.248   6.588  17.354  0.00  0.00    +0.000 NA
ATOM     11  C   UNL     1       4.977   5.673  16.723  0.00  0.00    +0.000 A 
ATOM     12  C   UNL     1       5.926   6.054  15.791  0.00  0.00    +0.000 A 
ATOM     13  C   UNL     1       6.445   5.128  14.888  0.00  0.00    +0.000 A 
ATOM     14  C   UNL     1       6.052   3.794  14.962  0.00  0.00    +0.000 A 
ATOM     15  C   UNL     1       5.241   3.372  16.013  0.00  0.00    +0.000 A 
ATOM     16  C   UNL     1       4.724   4.319  16.920  0.00  0.00    +0.000 A 
ATOM     17  C   UNL     1       3.712   4.022  17.848  0.00  0.00    +0.000 A 
ATOM     18  C   UNL     1       3.722   3.166  18.974  0.00  0.00    +0.000 A 
ATOM     19  C   UNL     1       2.514   2.806  19.574  0.00  0.00    +0.000 A 
ATOM     20  C   UNL     1       1.348   3.120  18.895  0.00  0.00    +0.000 A 
ATOM     21  C   UNL     1       1.410   4.150  17.967  0.00  0.00    +0.000 A 
ATOM     22  C   UNL     1       2.638   4.846  17.802  0.00  0.00    +0.000 A 
ENDBRANCH   6   9
BRANCH   2  23
ATOM     23  C   UNL     1       0.442  11.823  20.180  0.00  0.00    +0.000 A 
ATOM     24  C   UNL     1      -0.864  12.332  20.199  0.00  0.00    +0.000 A 
ATOM     25  C   UNL     1      -1.133  13.650  19.816  0.00  0.00    +0.000 A 
ATOM     26  C   UNL     1      -0.096  14.473  19.379  0.00  0.00    +0.000 A 
ATOM     27  C   UNL     1       1.212  13.975  19.374  0.00  0.00    +0.000 A 
ATOM     28  C   UNL     1       1.491  12.666  19.809  0.00  0.00    +0.000 A 
BRANCH  27  29
ATOM     29  N   UNL     1       2.306  14.808  18.903  0.00  0.00    +0.000 N 
ATOM     30  O   UNL     1       3.437  14.281  18.764  0.00  0.00    +0.000 OA
ATOM     31  O   UNL     1       2.064  16.008  18.678  0.00  0.00    +0.000 OA
ENDBRANCH  27  29
ENDBRANCH   2  23
TORSDOF 3
ENDMDL
MODEL 2
REMARK VINA RESULT:      -8.9      0.973      1.019
REMARK  Name = 
REMARK  3 active torsions:
REMARK  status: ('A' for Active; 'I' for Inactive)
REMARK    1  A    between atoms: C_2  and  C_3
REMARK    2  A    between atoms: C_7  and  N_8
REMARK    3  A    between atoms: N_15  and  C_16
REMARK                            x       y       z     vdW  Elec       q    Type
REMARK                         _______ _______ _______ _____ _____    ______ ____
ROOT
ATOM      1  O   UNL     1       0.277   9.688  22.290  0.00  0.00    +0.000 OA
ATOM      2  C   UNL     1       0.597   9.998  21.132  0.00  0.00    +0.000 C 
ATOM      3  N   UNL     1       1.076   9.061  20.229  0.00  0.00    +0.000 N 
ATOM      4  C   UNL     1       1.213   9.184  18.759  0.00  0.00    +0.000 C 
ATOM      5  C   UNL     1       2.425   8.382  18.234  0.00  0.00    +0.000 C 
ATOM      6  N   UNL     1       2.366   6.981  18.744  0.00  0.00    +0.000 N 
ATOM      7  C   UNL     1       2.383   6.939  20.207  0.00  0.00    +0.000 C 
ATOM      8  C   UNL     1       1.118   7.660  20.688  0.00  0.00    +0.000 C 
ENDROOT
BRANCH   6   9
ATOM      9  C   UNL     1       3.049   6.061  17.963  0.00  0.00    +0.000 A 
ATOM     10  N   UNL     1       4.274   6.469  17.539  0.00  0.00    +0.000 NA
ATOM     11  C   UNL     1       5.016   5.614  16.842  0.00  0.00    +0.000 A 
ATOM     12  C   UNL     1       6.005   6.076  15.993  0.00  0.00    +0.000 A 
ATOM     13  C   UNL     1       6.548   5.243  15.016  0.00  0.00    +0.000 A 
ATOM     14  C   UNL     1       6.136   3.916  14.932  0.00  0.00    +0.000 A 
ATOM     15  C   UNL     1       5.277   3.398  15.900  0.00  0.00    +0.000 A 
ATOM     16  C   UNL     1       4.738   4.251  16.882  0.00  0.00    +0.000 A 
ATOM     17  C   UNL     1       3.685   3.874  17.734  0.00  0.00    +0.000 A 
ATOM     18  C   UNL     1       3.640   2.903  18.761  0.00  0.00    +0.000 A 
ATOM     19  C   UNL     1       2.405   2.502  19.273  0.00  0.00    +0.000 A 
ATOM     20  C   UNL     1       1.271   2.907  18.588  0.00  0.00    +0.000 A 
ATOM     21  C   UNL     1       1.382   4.029  17.779  0.00  0.00    +0.000 A 
ATOM     22  C   UNL     1       2.625   4.717  17.736  0.00  0.00    +0.000 A 
ENDBRANCH   6   9
BRANCH   2  23
ATOM     23  C   UNL     1       0.450  11.438  20.783  0.00  0.00    +0.000 A 
ATOM     24  C   UNL     1      -0.746  11.838  20.170  0.00  0.00    +0.000 A 
ATOM     25  C   UNL     1      -0.996  13.183  19.882  0.00  0.00    +0.000 A 
ATOM     26  C   UNL     1      -0.036  14.150  20.178  0.00  0.00    +0.000 A 
ATOM     27  C   UNL     1       1.153  13.758  20.805  0.00  0.00    +0.000 A 
ATOM     28  C   UNL     1       1.384  12.411  21.143  0.00  0.00    +0.000 A 
BRANCH  27  29
ATOM     29  N   UNL     1       2.177  14.744  21.105  0.00  0.00    +0.000 N 
ATOM     30  O   UNL     1       2.579  15.486  20.176  0.00  0.00    +0.000 OA
ATOM     31  O   UNL     1       2.613  14.789  22.270  0.00  0.00    +0.000 OA
ENDBRANCH  27  29
ENDBRANCH   2  23
TORSDOF 3
ENDMDL
MODEL 3
REMARK VINA RESULT:      -8.7      1.726      2.045
REMARK  Name = 
REMARK  3 active torsions:
REMARK  status: ('A' for Active; 'I' for Inactive)
REMARK    1  A    between atoms: C_2  and  C_3
REMARK    2  A    between atoms: C_7  and  N_8
REMARK    3  A    between atoms: N_15  and  C_16
REMARK                            x       y       z     vdW  Elec       q    Type
REMARK                         _______ _______ _______ _____ _____    ______ ____
ROOT
ATOM      1  O   UNL     1       0.450   9.845  22.382  0.00  0.00    +0.000 OA
ATOM      2  C   UNL     1       0.652  10.111  21.187  0.00  0.00    +0.000 C 
ATOM      3  N   UNL     1       1.095   9.153  20.288  0.00  0.00    +0.000 N 
ATOM      4  C   UNL     1       1.095   9.209  18.808  0.00  0.00    +0.000 C 
ATOM      5  C   UNL     1       2.294   8.437  18.212  0.00  0.00    +0.000 C 
ATOM      6  N   UNL     1       2.348   7.061  18.789  0.00  0.00    +0.000 N 
ATOM      7  C   UNL     1       2.496   7.093  20.245  0.00  0.00    +0.000 C 
ATOM      8  C   UNL     1       1.245   7.779  20.804  0.00  0.00    +0.000 C 
ENDROOT
BRANCH   6   9
ATOM      9  C   UNL     1       3.004   6.136  17.992  0.00  0.00    +0.000 A 
ATOM     10  N   UNL     1       4.196   6.553  17.492  0.00  0.00    +0.000 NA
ATOM     11  C   UNL     1       4.914   5.695  16.774  0.00  0.00    +0.000 A 
ATOM     12  C   UNL     1       5.847   6.154  15.861  0.00  0.00    +0.000 A 
ATOM     13  C   UNL     1       6.351   5.308  14.874  0.00  0.00    +0.000 A 
ATOM     14  C   UNL     1       5.958   3.973  14.842  0.00  0.00    +0.000 A 
ATOM     15  C   UNL     1       5.163   3.463  15.868  0.00  0.00    +0.000 A 
ATOM     16  C   UNL     1       4.663   4.329  16.859  0.00  0.00    +0.000 A 
ATOM     17  C   UNL     1       3.666   3.955  17.776  0.00  0.00    +0.000 A 
ATOM     18  C   UNL     1       3.694   3.007  18.825  0.00  0.00    +0.000 A 
ATOM     19  C   UNL     1       2.496   2.597  19.413  0.00  0.00    +0.000 A 
ATOM     20  C   UNL     1       1.319   2.967  18.782  0.00  0.00    +0.000 A 
ATOM     21  C   UNL     1       1.366   4.072  17.944  0.00  0.00    +0.000 A 
ATOM     22  C   UNL     1       2.592   4.779  17.818  0.00  0.00    +0.000 A 
ENDBRANCH   6   9
BRANCH   2  23
ATOM     23  C   UNL     1       0.404  11.524  20.788  0.00  0.00    +0.000 A 
ATOM     24  C   UNL     1       1.473  12.236  20.225  0.00  0.00    +0.000 A 
ATOM     25  C   UNL     1       1.303  13.541  19.752  0.00  0.00    +0.000 A 
ATOM     26  C   UNL     1       0.062  14.166  19.862  0.00  0.00    +0.000 A 
ATOM     27  C   UNL     1      -1.013  13.455  20.408  0.00  0.00    +0.000 A 
ATOM     28  C   UNL     1      -0.856  12.123  20.837  0.00  0.00    +0.000 A 
BRANCH  27  29
ATOM     29  N   UNL     1      -2.310  14.092  20.552  0.00  0.00    +0.000 N 
ATOM     30  O   UNL     1      -2.344  15.314  20.835  0.00  0.00    +0.000 OA
ATOM     31  O   UNL     1      -3.322  13.384  20.400  0.00  0.00    +0.000 OA
ENDBRANCH  27  29
ENDBRANCH   2  23
TORSDOF 3
ENDMDL
MODEL 4
REMARK VINA RESULT:      -8.7      0.952      1.140
REMARK  Name = 
REMARK  3 active torsions:
REMARK  status: ('A' for Active; 'I' for Inactive)
REMARK    1  A    between atoms: C_2  and  C_3
REMARK    2  A    between atoms: C_7  and  N_8
REMARK    3  A    between atoms: N_15  and  C_16
REMARK                            x       y       z     vdW  Elec       q    Type
REMARK                         _______ _______ _______ _____ _____    ______ ____
ROOT
ATOM      1  O   UNL     1      -0.083  11.324  21.419  0.00  0.00    +0.000 OA
ATOM      2  C   UNL     1       0.455  11.415  20.304  0.00  0.00    +0.000 C 
ATOM      3  N   UNL     1       0.923  10.302  19.625  0.00  0.00    +0.000 N 
ATOM      4  C   UNL     1       1.303  10.185  18.197  0.00  0.00    +0.000 C 
ATOM      5  C   UNL     1       2.448   9.168  17.996  0.00  0.00    +0.000 C 
ATOM      6  N   UNL     1       2.102   7.877  18.661  0.00  0.00    +0.000 N 
ATOM      7  C   UNL     1       1.886   8.052  20.098  0.00  0.00    +0.000 C 
ATOM      8  C   UNL     1       0.684   8.990  20.256  0.00  0.00    +0.000 C 
ENDROOT
BRANCH   6   9
ATOM      9  C   UNL     1       2.753   6.773  18.133  0.00  0.00    +0.000 A 
ATOM     10  N   UNL     1       3.870   7.057  17.414  0.00  0.00    +0.000 NA
ATOM     11  C   UNL     1       4.585   6.044  16.933  0.00  0.00    +0.000 A 
ATOM     12  C   UNL     1       5.408   6.225  15.837  0.00  0.00    +0.000 A 
ATOM     13  C   UNL     1       5.888   5.130  15.119  0.00  0.00    +0.000 A 
ATOM     14  C   UNL     1       5.585   3.840  15.544  0.00  0.00    +0.000 A 
ATOM     15  C   UNL     1       4.912   3.651  16.750  0.00  0.00    +0.000 A 
ATOM     16  C   UNL     1       4.435   4.767  17.465  0.00  0.00    +0.000 A 
ATOM     17  C   UNL     1       3.542   4.664  18.546  0.00  0.00    +0.000 A 
ATOM     18  C   UNL     1       3.719   4.099  19.831  0.00  0.00    +0.000 A 
ATOM     19  C   UNL     1       2.603   3.851  20.631  0.00  0.00    +0.000 A 
ATOM     20  C   UNL     1       1.357   3.955  20.035  0.00  0.00    +0.000 A 
ATOM     21  C   UNL     1       1.261   4.738  18.893  0.00  0.00    +0.000 A 
ATOM     22  C   UNL     1       2.422   5.416  18.433  0.00  0.00    +0.000 A 
ENDBRANCH   6   9
BRANCH   2  23
ATOM     23  C   UNL     1       0.580  12.794  19.757  0.00  0.00    +0.000 A 
ATOM     24  C   UNL     1      -0.574  13.590  19.733  0.00  0.00    +0.000 A 
ATOM     25  C   UNL     1      -0.526  14.921  19.308  0.00  0.00    +0.000 A 
ATOM     26  C   UNL     1       0.678  15.470  18.871  0.00  0.00    +0.000 A 
ATOM     27  C   UNL     1       1.837  14.685  18.908  0.00  0.00    +0.000 A 
ATOM     28  C   UNL     1       1.801  13.361  19.385  0.00  0.00    +0.000 A 
BRANCH  27  29
ATOM     29  N   UNL     1       3.100  15.229  18.439  0.00  0.00    +0.000 N 
ATOM     30  O   UNL     1       3.084  16.002  17.450  0.00  0.00    +0.000 OA
ATOM     31  O   UNL     1       4.136  14.885  19.037  0.00  0.00    +0.000 OA
ENDBRANCH  27  29
ENDBRANCH   2  23
TORSDOF 3
ENDMDL
MODEL 5
REMARK VINA RESULT:      -8.7      0.993      1.058
REMARK  Name = 
REMARK  3 active torsions:
REMARK  status: ('A' for Active; 'I' for Inactive)
REMARK    1  A    between atoms: C_2  and  C_3
REMARK    2  A    between atoms: C_7  and  N_8
REMARK    3  A    between atoms: N_15  and  C_16
REMARK                            x       y       z     vdW  Elec       q    Type
REMARK                         _______ _______ _______ _____ _____    ______ ____
ROOT
ATOM      1  O   UNL     1       0.145   9.253  22.843  0.00  0.00    +0.000 OA
ATOM      2  C   UNL     1       0.462   9.665  21.716  0.00  0.00    +0.000 C 
ATOM      3  N   UNL     1       0.932   8.811  20.731  0.00  0.00    +0.000 N 
ATOM      4  C   UNL     1       1.062   9.065  19.277  0.00  0.00    +0.000 C 
ATOM      5  C   UNL     1       2.268   8.308  18.675  0.00  0.00    +0.000 C 
ATOM      6  N   UNL     1       2.203   6.866  19.058  0.00  0.00    +0.000 N 
ATOM      7  C   UNL     1       2.227   6.693  20.511  0.00  0.00    +0.000 C 
ATOM      8  C   UNL     1       0.968   7.373  21.061  0.00  0.00    +0.000 C 
ENDROOT
BRANCH   6   9
ATOM      9  C   UNL     1       2.878   6.018  18.193  0.00  0.00    +0.000 A 
ATOM     10  N   UNL     1       4.065   6.493  17.736  0.00  0.00    +0.000 NA
ATOM     11  C   UNL     1       4.801   5.706  16.957  0.00  0.00    +0.000 A 
ATOM     12  C   UNL     1       5.731   6.251  16.090  0.00  0.00    +0.000 A 
ATOM     13  C   UNL     1       6.254   5.494  15.042  0.00  0.00    +0.000 A 
ATOM     14  C   UNL     1       5.882   4.160  14.901  0.00  0.00    +0.000 A 
ATOM     15  C   UNL     1       5.091   3.557  15.877  0.00  0.00    +0.000 A 
ATOM     16  C   UNL     1       4.572   4.334  16.931  0.00  0.00    +0.000 A 
ATOM     17  C   UNL     1       3.576   3.872  17.809  0.00  0.00    +0.000 A 
ATOM     18  C   UNL     1       3.614   2.843  18.779  0.00  0.00    +0.000 A 
ATOM     19  C   UNL     1       2.420   2.369  19.324  0.00  0.00    +0.000 A 
ATOM     20  C   UNL     1       1.240   2.770  18.718  0.00  0.00    +0.000 A 
ATOM     21  C   UNL     1       1.274   3.939  17.971  0.00  0.00    +0.000 A 
ATOM     22  C   UNL     1       2.489   4.673  17.909  0.00  0.00    +0.000 A 
ENDBRANCH   6   9
BRANCH   2  23
ATOM     23  C   UNL     1       0.321  11.131  21.499  0.00  0.00    +0.000 A 
ATOM     24  C   UNL     1      -0.604  11.819  22.298  0.00  0.00    +0.000 A 
ATOM     25  C   UNL     1      -0.742  13.208  22.213  0.00  0.00    +0.000 A 
ATOM     26  C   UNL     1       0.028  13.929  21.302  0.00  0.00    +0.000 A 
ATOM     27  C   UNL     1       0.965  13.250  20.513  0.00  0.00    +0.000 A 
ATOM     28  C   UNL     1       1.141  11.859  20.635  0.00  0.00    +0.000 A 
BRANCH  27  29
ATOM     29  N   UNL     1       1.764  13.978  19.542  0.00  0.00    +0.000 N 
ATOM     30  O   UNL     1       2.801  13.430  19.096  0.00  0.00    +0.000 OA
ATOM     31  O   UNL     1       1.382  15.116  19.216  0.00  0.00    +0.000 OA
ENDBRANCH  27  29
ENDBRANCH   2  23
TORSDOF 3
ENDMDL
MODEL 6
REMARK VINA RESULT:      -8.3      1.484      1.797
REMARK  Name = 
REMARK  3 active torsions:
REMARK  status: ('A' for Active; 'I' for Inactive)
REMARK    1  A    between atoms: C_2  and  C_3
REMARK    2  A    between atoms: C_7  and  N_8
REMARK    3  A    between atoms: N_15  and  C_16
REMARK                            x       y       z     vdW  Elec       q    Type
REMARK                         _______ _______ _______ _____ _____    ______ ____
ROOT
ATOM      1  O   UNL     1       0.160  10.898  21.693  0.00  0.00    +0.000 OA
ATOM      2  C   UNL     1       0.616  11.044  20.549  0.00  0.00    +0.000 C 
ATOM      3  N   UNL     1       1.065   9.969  19.797  0.00  0.00    +0.000 N 
ATOM      4  C   UNL     1       1.347   9.914  18.344  0.00  0.00    +0.000 C 
ATOM      5  C   UNL     1       2.503   8.939  18.027  0.00  0.00    +0.000 C 
ATOM      6  N   UNL     1       2.239   7.616  18.665  0.00  0.00    +0.000 N 
ATOM      7  C   UNL     1       2.119   7.734  20.119  0.00  0.00    +0.000 C 
ATOM      8  C   UNL     1       0.906   8.630  20.395  0.00  0.00    +0.000 C 
ENDROOT
BRANCH   6   9
ATOM      9  C   UNL     1       2.881   6.550  18.053  0.00  0.00    +0.000 A 
ATOM     10  N   UNL     1       3.970   6.887  17.313  0.00  0.00    +0.000 NA
ATOM     11  C   UNL     1       4.677   5.911  16.752  0.00  0.00    +0.000 A 
ATOM     12  C   UNL     1       5.460   6.164  15.640  0.00  0.00    +0.000 A 
ATOM     13  C   UNL     1       5.923   5.116  14.845  0.00  0.00    +0.000 A 
ATOM     14  C   UNL     1       5.647   3.801  15.205  0.00  0.00    +0.000 A 
ATOM     15  C   UNL     1       5.018   3.536  16.421  0.00  0.00    +0.000 A 
ATOM     16  C   UNL     1       4.557   4.604  17.215  0.00  0.00    +0.000 A 
ATOM     17  C   UNL     1       3.703   4.430  18.317  0.00  0.00    +0.000 A 
ATOM     18  C   UNL     1       3.929   3.796  19.561  0.00  0.00    +0.000 A 
ATOM     19  C   UNL     1       2.844   3.490  20.384  0.00  0.00    +0.000 A 
ATOM     20  C   UNL     1       1.577   3.614  19.837  0.00  0.00    +0.000 A 
ATOM     21  C   UNL     1       1.435   4.460  18.746  0.00  0.00    +0.000 A 
ATOM     22  C   UNL     1       2.573   5.176  18.286  0.00  0.00    +0.000 A 
ENDBRANCH   6   9
BRANCH   2  23
ATOM     23  C   UNL     1       0.666  12.444  20.045  0.00  0.00    +0.000 A 
ATOM     24  C   UNL     1       1.763  12.811  19.254  0.00  0.00    +0.000 A 
ATOM     25  C   UNL     1       1.847  14.082  18.678  0.00  0.00    +0.000 A 
ATOM     26  C   UNL     1       0.841  15.019  18.909  0.00  0.00    +0.000 A 
ATOM     27  C   UNL     1      -0.265  14.654  19.684  0.00  0.00    +0.000 A 
ATOM     28  C   UNL     1      -0.376  13.357  20.222  0.00  0.00    +0.000 A 
BRANCH  27  29
ATOM     29  N   UNL     1      -1.316  15.620  19.956  0.00  0.00    +0.000 N 
ATOM     30  O   UNL     1      -2.225  15.298  20.759  0.00  0.00    +0.000 OA
ATOM     31  O   UNL     1      -1.265  16.712  19.362  0.00  0.00    +0.000 OA
ENDBRANCH  27  29
ENDBRANCH   2  23
TORSDOF 3
ENDMDL
MODEL 7
REMARK VINA RESULT:      -8.1      2.276      4.222
REMARK  Name = 
REMARK  3 active torsions:
REMARK  status: ('A' for Active; 'I' for Inactive)
REMARK    1  A    between atoms: C_2  and  C_3
REMARK    2  A    between atoms: C_7  and  N_8
REMARK    3  A    between atoms: N_15  and  C_16
REMARK                            x       y       z     vdW  Elec       q    Type
REMARK                         _______ _______ _______ _____ _____    ______ ____
ROOT
ATOM      1  O   UNL     1       0.766  12.380  18.354  0.00  0.00    +0.000 OA
ATOM      2  C   UNL     1       0.562  11.542  19.247  0.00  0.00    +0.000 C 
ATOM      3  N   UNL     1       1.182  10.302  19.243  0.00  0.00    +0.000 N 
ATOM      4  C   UNL     1       1.295   9.325  20.350  0.00  0.00    +0.000 C 
ATOM      5  C   UNL     1       1.297   7.871  19.826  0.00  0.00    +0.000 C 
ATOM      6  N   UNL     1       2.321   7.722  18.750  0.00  0.00    +0.000 N 
ATOM      7  C   UNL     1       2.054   8.620  17.625  0.00  0.00    +0.000 C 
ATOM      8  C   UNL     1       2.156  10.051  18.164  0.00  0.00    +0.000 C 
ENDROOT
BRANCH   6   9
ATOM      9  C   UNL     1       2.781   6.426  18.578  0.00  0.00    +0.000 A 
ATOM     10  N   UNL     1       1.820   5.466  18.625  0.00  0.00    +0.000 NA
ATOM     11  C   UNL     1       2.176   4.205  18.400  0.00  0.00    +0.000 A 
ATOM     12  C   UNL     1       1.409   3.163  18.888  0.00  0.00    +0.000 A 
ATOM     13  C   UNL     1       1.930   1.872  18.964  0.00  0.00    +0.000 A 
ATOM     14  C   UNL     1       3.214   1.617  18.491  0.00  0.00    +0.000 A 
ATOM     15  C   UNL     1       3.919   2.622  17.832  0.00  0.00    +0.000 A 
ATOM     16  C   UNL     1       3.379   3.921  17.760  0.00  0.00    +0.000 A 
ATOM     17  C   UNL     1       4.119   5.040  17.341  0.00  0.00    +0.000 A 
ATOM     18  C   UNL     1       4.666   5.356  16.076  0.00  0.00    +0.000 A 
ATOM     19  C   UNL     1       5.610   6.379  15.972  0.00  0.00    +0.000 A 
ATOM     20  C   UNL     1       6.136   6.881  17.150  0.00  0.00    +0.000 A 
ATOM     21  C   UNL     1       5.386   6.712  18.305  0.00  0.00    +0.000 A 
ATOM     22  C   UNL     1       4.116   6.082  18.207  0.00  0.00    +0.000 A 
ENDBRANCH   6   9
BRANCH   2  23
ATOM     23  C   UNL     1      -0.400  11.949  20.308  0.00  0.00    +0.000 A 
ATOM     24  C   UNL     1       0.127  12.340  21.547  0.00  0.00    +0.000 A 
ATOM     25  C   UNL     1      -0.702  12.810  22.570  0.00  0.00    +0.000 A 
ATOM     26  C   UNL     1      -2.081  12.870  22.377  0.00  0.00    +0.000 A 
ATOM     27  C   UNL     1      -2.612  12.496  21.137  0.00  0.00    +0.000 A 
ATOM     28  C   UNL     1      -1.773  12.072  20.088  0.00  0.00    +0.000 A 
BRANCH  27  29
ATOM     29  N   UNL     1      -4.048  12.531  20.919  0.00  0.00    +0.000 N 
ATOM     30  O   UNL     1      -4.467  12.735  19.754  0.00  0.00    +0.000 OA
ATOM     31  O   UNL     1      -4.787  12.370  21.907  0.00  0.00    +0.000 OA
ENDBRANCH  27  29
ENDBRANCH   2  23
TORSDOF 3
ENDMDL
MODEL 8
REMARK VINA RESULT:      -8.0      8.719     10.246
REMARK  Name = 
REMARK  3 active torsions:
REMARK  status: ('A' for Active; 'I' for Inactive)
REMARK    1  A    between atoms: C_2  and  C_3
REMARK    2  A    between atoms: C_7  and  N_8
REMARK    3  A    between atoms: N_15  and  C_16
REMARK                            x       y       z     vdW  Elec       q    Type
REMARK                         _______ _______ _______ _____ _____    ______ ____
ROOT
ATOM      1  O   UNL     1       4.988  14.184  25.843  0.00  0.00    +0.000 OA
ATOM      2  C   UNL     1       5.818  13.293  25.606  0.00  0.00    +0.000 C 
ATOM      3  N   UNL     1       6.669  13.357  24.514  0.00  0.00    +0.000 N 
ATOM      4  C   UNL     1       7.894  12.565  24.252  0.00  0.00    +0.000 C 
ATOM      5  C   UNL     1       8.094  12.314  22.740  0.00  0.00    +0.000 C 
ATOM      6  N   UNL     1       8.010  13.605  21.996  0.00  0.00    +0.000 N 
ATOM      7  C   UNL     1       6.712  14.254  22.189  0.00  0.00    +0.000 C 
ATOM      8  C   UNL     1       6.592  14.574  23.684  0.00  0.00    +0.000 C 
ENDROOT
BRANCH   6   9
ATOM      9  C   UNL     1       8.670  13.603  20.777  0.00  0.00    +0.000 A 
ATOM     10  N   UNL     1       9.423  12.498  20.536  0.00  0.00    +0.000 NA
ATOM     11  C   UNL     1      10.031  12.395  19.358  0.00  0.00    +0.000 A 
ATOM     12  C   UNL     1      11.152  11.597  19.216  0.00  0.00    +0.000 A 
ATOM     13  C   UNL     1      11.990  11.740  18.111  0.00  0.00    +0.000 A 
ATOM     14  C   UNL     1      11.665  12.651  17.111  0.00  0.00    +0.000 A 
ATOM     15  C   UNL     1      10.444  13.322  17.159  0.00  0.00    +0.000 A 
ATOM     16  C   UNL     1       9.607  13.167  18.281  0.00  0.00    +0.000 A 
ATOM     17  C   UNL     1       8.491  13.985  18.527  0.00  0.00    +0.000 A 
ATOM     18  C   UNL     1       7.274  14.113  17.819  0.00  0.00    +0.000 A 
ATOM     19  C   UNL     1       6.437  15.198  18.081  0.00  0.00    +0.000 A 
ATOM     20  C   UNL     1       6.950  16.223  18.859  0.00  0.00    +0.000 A 
ATOM     21  C   UNL     1       8.010  15.915  19.699  0.00  0.00    +0.000 A 
ATOM     22  C   UNL     1       8.473  14.572  19.747  0.00  0.00    +0.000 A 
ENDBRANCH   6   9
BRANCH   2  23
ATOM     23  C   UNL     1       5.829  12.148  26.559  0.00  0.00    +0.000 A 
ATOM     24  C   UNL     1       6.919  12.042  27.434  0.00  0.00    +0.000 A 
ATOM     25  C   UNL     1       6.968  11.043  28.411  0.00  0.00    +0.000 A 
ATOM     26  C   UNL     1       5.934  10.114  28.509  0.00  0.00    +0.000 A 
ATOM     27  C   UNL     1       4.835  10.224  27.649  0.00  0.00    +0.000 A 
ATOM     28  C   UNL     1       4.760  11.261  26.699  0.00  0.00    +0.000 A 
BRANCH  27  29
ATOM     29  N   UNL     1       3.755   9.255  27.719  0.00  0.00    +0.000 N 
ATOM     30  O   UNL     1       2.663   9.541  27.169  0.00  0.00    +0.000 OA
ATOM     31  O   UNL     1       3.967   8.196  28.336  0.00  0.00    +0.000 OA
ENDBRANCH  27  29
ENDBRANCH   2  23
TORSDOF 3
ENDMDL
MODEL 9
REMARK VINA RESULT:      -7.9      2.097      3.785
REMARK  Name = 
REMARK  3 active torsions:
REMARK  status: ('A' for Active; 'I' for Inactive)
REMARK    1  A    between atoms: C_2  and  C_3
REMARK    2  A    between atoms: C_7  and  N_8
REMARK    3  A    between atoms: N_15  and  C_16
REMARK                            x       y       z     vdW  Elec       q    Type
REMARK                         _______ _______ _______ _____ _____    ______ ____
ROOT
ATOM      1  O   UNL     1       0.673  12.303  18.486  0.00  0.00    +0.000 OA
ATOM      2  C   UNL     1       0.694  11.521  19.449  0.00  0.00    +0.000 C 
ATOM      3  N   UNL     1       1.322  10.288  19.376  0.00  0.00    +0.000 N 
ATOM      4  C   UNL     1       1.703   9.381  20.483  0.00  0.00    +0.000 C 
ATOM      5  C   UNL     1       1.616   7.897  20.057  0.00  0.00    +0.000 C 
ATOM      6  N   UNL     1       2.373   7.690  18.787  0.00  0.00    +0.000 N 
ATOM      7  C   UNL     1       1.840   8.515  17.702  0.00  0.00    +0.000 C 
ATOM      8  C   UNL     1       2.031   9.978  18.119  0.00  0.00    +0.000 C 
ENDROOT
BRANCH   6   9
ATOM      9  C   UNL     1       2.809   6.389  18.591  0.00  0.00    +0.000 A 
ATOM     10  N   UNL     1       1.832   5.445  18.634  0.00  0.00    +0.000 NA
ATOM     11  C   UNL     1       2.165   4.182  18.386  0.00  0.00    +0.000 A 
ATOM     12  C   UNL     1       1.385   3.146  18.867  0.00  0.00    +0.000 A 
ATOM     13  C   UNL     1       1.885   1.845  18.918  0.00  0.00    +0.000 A 
ATOM     14  C   UNL     1       3.159   1.575  18.426  0.00  0.00    +0.000 A 
ATOM     15  C   UNL     1       3.874   2.579  17.775  0.00  0.00    +0.000 A 
ATOM     16  C   UNL     1       3.355   3.888  17.729  0.00  0.00    +0.000 A 
ATOM     17  C   UNL     1       4.109   5.000  17.318  0.00  0.00    +0.000 A 
ATOM     18  C   UNL     1       4.648   5.325  16.052  0.00  0.00    +0.000 A 
ATOM     19  C   UNL     1       5.608   6.334  15.952  0.00  0.00    +0.000 A 
ATOM     20  C   UNL     1       6.155   6.810  17.132  0.00  0.00    +0.000 A 
ATOM     21  C   UNL     1       5.415   6.635  18.293  0.00  0.00    +0.000 A 
ATOM     22  C   UNL     1       4.134   6.028  18.199  0.00  0.00    +0.000 A 
ENDBRANCH   6   9
BRANCH   2  23
ATOM     23  C   UNL     1      -0.011  11.985  20.675  0.00  0.00    +0.000 A 
ATOM     24  C   UNL     1      -0.818  11.058  21.350  0.00  0.00    +0.000 A 
ATOM     25  C   UNL     1      -1.451  11.389  22.552  0.00  0.00    +0.000 A 
ATOM     26  C   UNL     1      -1.309  12.670  23.084  0.00  0.00    +0.000 A 
ATOM     27  C   UNL     1      -0.492  13.595  22.423  0.00  0.00    +0.000 A 
ATOM     28  C   UNL     1       0.189  13.246  21.241  0.00  0.00    +0.000 A 
BRANCH  27  29
ATOM     29  N   UNL     1      -0.344  14.942  22.948  0.00  0.00    +0.000 N 
ATOM     30  O   UNL     1      -0.013  15.856  22.154  0.00  0.00    +0.000 OA
ATOM     31  O   UNL     1      -0.541  15.113  24.164  0.00  0.00    +0.000 OA
ENDBRANCH  27  29
ENDBRANCH   2  23
TORSDOF 3
ENDMDL
