MODEL 1
REMARK VINA RESULT:      -7.7      0.000      0.000
REMARK  Name = 
REMARK  3 active torsions:
REMARK  status: ('A' for Active; 'I' for Inactive)
REMARK    1  A    between atoms: C_2  and  C_3
REMARK    2  A    between atoms: C_7  and  C_8
REMARK    3  A    between atoms: C_14  and  N_15
REMARK                            x       y       z     vdW  Elec       q    Type
REMARK                         _______ _______ _______ _____ _____    ______ ____
ROOT
ATOM      1  C   UNL     1       4.216   3.787  18.484  0.00  0.00    +0.000 A 
ATOM      2  C   UNL     1       3.925   2.501  18.914  0.00  0.00    +0.000 A 
ATOM      3  N   UNL     1       2.892   2.570  19.815  0.00  0.00    +0.000 N 
ATOM      4  C   UNL     1       2.514   3.871  19.986  0.00  0.00    +0.000 A 
ATOM      5  N   UNL     1       1.551   4.278  20.828  0.00  0.00    +0.000 NA
ATOM      6  C   UNL     1       1.386   5.632  20.814  0.00  0.00    +0.000 A 
ATOM      7  C   UNL     1       2.067   6.576  20.032  0.00  0.00    +0.000 A 
ATOM      8  C   UNL     1       3.067   6.045  19.206  0.00  0.00    +0.000 A 
ATOM      9  C   UNL     1       3.305   4.658  19.163  0.00  0.00    +0.000 A 
ATOM     10  H   UNL     1       2.469   1.797  20.306  0.00  0.00    +0.000 HD
ENDROOT
BRANCH   1  15
ATOM     11  C   UNL     1       6.135   4.153  15.254  0.00  0.00    +0.000 A 
ATOM     12  C   UNL     1       7.301   4.780  15.699  0.00  0.00    +0.000 A 
ATOM     13  C   UNL     1       7.463   5.064  17.055  0.00  0.00    +0.000 A 
ATOM     14  C   UNL     1       6.459   4.733  17.966  0.00  0.00    +0.000 A 
ATOM     15  C   UNL     1       5.282   4.102  17.537  0.00  0.00    +0.000 A 
ATOM     16  C   UNL     1       5.137   3.807  16.173  0.00  0.00    +0.000 A 
BRANCH  11  18
ATOM     17  N   UNL     1       5.812   3.638  12.729  0.00  0.00    +0.000 NA
ATOM     18  C   UNL     1       5.953   3.868  13.857  0.00  0.00    +0.000 C 
ENDBRANCH  11  18
ENDBRANCH   1  15
BRANCH   7  19
ATOM     19  N   UNL     1       1.829   7.939  20.051  0.00  0.00    +0.000 N 
ATOM     20  C   UNL     1       1.096   8.645  21.097  0.00  0.00    +0.000 C 
ATOM     21  C   UNL     1       0.188   9.592  20.326  0.00  0.00    +0.000 C 
ATOM     22  C   UNL     1       1.021   9.966  19.113  0.00  0.00    +0.000 C 
ATOM     23  C   UNL     1       1.785   8.687  18.787  0.00  0.00    +0.000 C 
ENDBRANCH   7  19
TORSDOF 3
ENDMDL
MODEL 2
REMARK VINA RESULT:      -7.4      1.523      6.799
REMARK  Name = 
REMARK  3 active torsions:
REMARK  status: ('A' for Active; 'I' for Inactive)
REMARK    1  A    between atoms: C_2  and  C_3
REMARK    2  A    between atoms: C_7  and  C_8
REMARK    3  A    between atoms: C_14  and  N_15
REMARK                            x       y       z     vdW  Elec       q    Type
REMARK                         _______ _______ _______ _____ _____    ______ ____
ROOT
ATOM      1  C   UNL     1       2.195   6.248  19.945  0.00  0.00    +0.000 A 
ATOM      2  C   UNL     1       1.547   5.613  20.994  0.00  0.00    +0.000 A 
ATOM      3  N   UNL     1       2.047   4.339  21.103  0.00  0.00    +0.000 N 
ATOM      4  C   UNL     1       2.997   4.131  20.144  0.00  0.00    +0.000 A 
ATOM      5  N   UNL     1       3.653   2.975  19.963  0.00  0.00    +0.000 NA
ATOM      6  C   UNL     1       4.537   3.035  18.925  0.00  0.00    +0.000 A 
ATOM      7  C   UNL     1       4.824   4.132  18.100  0.00  0.00    +0.000 A 
ATOM      8  C   UNL     1       4.066   5.281  18.362  0.00  0.00    +0.000 A 
ATOM      9  C   UNL     1       3.128   5.302  19.412  0.00  0.00    +0.000 A 
ATOM     10  H   UNL     1       1.763   3.636  21.768  0.00  0.00    +0.000 HD
ENDROOT
BRANCH   1  15
ATOM     11  C   UNL     1       1.137   9.870  20.033  0.00  0.00    +0.000 A 
ATOM     12  C   UNL     1       1.405  10.264  18.720  0.00  0.00    +0.000 A 
ATOM     13  C   UNL     1       1.913   9.341  17.807  0.00  0.00    +0.000 A 
ATOM     14  C   UNL     1       2.163   8.026  18.205  0.00  0.00    +0.000 A 
ATOM     15  C   UNL     1       1.900   7.612  19.519  0.00  0.00    +0.000 A 
ATOM     16  C   UNL     1       1.374   8.547  20.425  0.00  0.00    +0.000 A 
BRANCH  11  18
ATOM     17  N   UNL     1       0.209  11.580  21.754  0.00  0.00    +0.000 NA
ATOM     18  C   UNL     1       0.626  10.818  20.985  0.00  0.00    +0.000 C 
ENDBRANCH  11  18
ENDBRANCH   1  15
BRANCH   7  19
ATOM     19  N   UNL     1       5.756   4.129  17.077  0.00  0.00    +0.000 N 
ATOM     20  C   UNL     1       7.100   4.688  17.170  0.00  0.00    +0.000 C 
ATOM     21  C   UNL     1       7.267   5.448  15.861  0.00  0.00    +0.000 C 
ATOM     22  C   UNL     1       6.484   4.610  14.867  0.00  0.00    +0.000 C 
ATOM     23  C   UNL     1       5.302   4.092  15.680  0.00  0.00    +0.000 C 
ENDBRANCH   7  19
TORSDOF 3
ENDMDL
MODEL 3
REMARK VINA RESULT:      -7.4      1.539      7.075
REMARK  Name = 
REMARK  3 active torsions:
REMARK  status: ('A' for Active; 'I' for Inactive)
REMARK    1  A    between atoms: C_2  and  C_3
REMARK    2  A    between atoms: C_7  and  C_8
REMARK    3  A    between atoms: C_14  and  N_15
REMARK                            x       y       z     vdW  Elec       q    Type
REMARK                         _______ _______ _______ _____ _____    ______ ____
ROOT
ATOM      1  C   UNL     1       2.350   5.965  19.955  0.00  0.00    +0.000 A 
ATOM      2  C   UNL     1       1.982   5.064  20.942  0.00  0.00    +0.000 A 
ATOM      3  N   UNL     1       2.584   3.859  20.675  0.00  0.00    +0.000 N 
ATOM      4  C   UNL     1       3.326   3.958  19.532  0.00  0.00    +0.000 A 
ATOM      5  N   UNL     1       4.012   2.943  18.983  0.00  0.00    +0.000 NA
ATOM      6  C   UNL     1       4.654   3.311  17.835  0.00  0.00    +0.000 A 
ATOM      7  C   UNL     1       4.683   4.575  17.231  0.00  0.00    +0.000 A 
ATOM      8  C   UNL     1       3.915   5.554  17.875  0.00  0.00    +0.000 A 
ATOM      9  C   UNL     1       3.218   5.258  19.062  0.00  0.00    +0.000 A 
ATOM     10  H   UNL     1       2.497   3.010  21.211  0.00  0.00    +0.000 HD
ENDROOT
BRANCH   1  15
ATOM     11  C   UNL     1       0.881   9.283  20.995  0.00  0.00    +0.000 A 
ATOM     12  C   UNL     1       1.031  10.027  19.822  0.00  0.00    +0.000 A 
ATOM     13  C   UNL     1       1.596   9.437  18.692  0.00  0.00    +0.000 A 
ATOM     14  C   UNL     1       2.019   8.107  18.732  0.00  0.00    +0.000 A 
ATOM     15  C   UNL     1       1.876   7.344  19.901  0.00  0.00    +0.000 A 
ATOM     16  C   UNL     1       1.292   7.945  21.027  0.00  0.00    +0.000 A 
BRANCH  11  18
ATOM     17  N   UNL     1      -0.151  10.372  23.115  0.00  0.00    +0.000 NA
ATOM     18  C   UNL     1       0.312   9.887  22.169  0.00  0.00    +0.000 C 
ENDBRANCH  11  18
ENDBRANCH   1  15
BRANCH   7  19
ATOM     19  N   UNL     1       5.379   4.884  16.076  0.00  0.00    +0.000 N 
ATOM     20  C   UNL     1       4.977   4.494  14.729  0.00  0.00    +0.000 C 
ATOM     21  C   UNL     1       6.272   4.014  14.088  0.00  0.00    +0.000 C 
ATOM     22  C   UNL     1       7.324   4.912  14.712  0.00  0.00    +0.000 C 
ATOM     23  C   UNL     1       6.829   5.117  16.140  0.00  0.00    +0.000 C 
ENDBRANCH   7  19
TORSDOF 3
ENDMDL
MODEL 4
REMARK VINA RESULT:      -7.3      3.074      5.806
REMARK  Name = 
REMARK  3 active torsions:
REMARK  status: ('A' for Active; 'I' for Inactive)
REMARK    1  A    between atoms: C_2  and  C_3
REMARK    2  A    between atoms: C_7  and  C_8
REMARK    3  A    between atoms: C_14  and  N_15
REMARK                            x       y       z     vdW  Elec       q    Type
REMARK                         _______ _______ _______ _____ _____    ______ ____
ROOT
ATOM      1  C   UNL     1       6.345   4.247  13.785  0.00  0.00    +0.000 A 
ATOM      2  C   UNL     1       7.502   5.001  13.669  0.00  0.00    +0.000 A 
ATOM      3  N   UNL     1       7.757   5.592  14.882  0.00  0.00    +0.000 N 
ATOM      4  C   UNL     1       6.786   5.246  15.778  0.00  0.00    +0.000 A 
ATOM      5  N   UNL     1       6.729   5.686  17.044  0.00  0.00    +0.000 NA
ATOM      6  C   UNL     1       5.647   5.196  17.717  0.00  0.00    +0.000 A 
ATOM      7  C   UNL     1       4.667   4.311  17.247  0.00  0.00    +0.000 A 
ATOM      8  C   UNL     1       4.811   3.933  15.905  0.00  0.00    +0.000 A 
ATOM      9  C   UNL     1       5.896   4.396  15.137  0.00  0.00    +0.000 A 
ATOM     10  H   UNL     1       8.525   6.208  15.103  0.00  0.00    +0.000 HD
ENDROOT
BRANCH   1  15
ATOM     11  C   UNL     1       4.195   3.359  10.813  0.00  0.00    +0.000 A 
ATOM     12  C   UNL     1       4.667   2.081  10.507  0.00  0.00    +0.000 A 
ATOM     13  C   UNL     1       5.673   1.507  11.284  0.00  0.00    +0.000 A 
ATOM     14  C   UNL     1       6.216   2.211  12.360  0.00  0.00    +0.000 A 
ATOM     15  C   UNL     1       5.754   3.496  12.682  0.00  0.00    +0.000 A 
ATOM     16  C   UNL     1       4.730   4.056  11.902  0.00  0.00    +0.000 A 
BRANCH  11  18
ATOM     17  N   UNL     1       2.341   4.458   9.364  0.00  0.00    +0.000 NA
ATOM     18  C   UNL     1       3.168   3.965  10.009  0.00  0.00    +0.000 C 
ENDBRANCH  11  18
ENDBRANCH   1  15
BRANCH   7  19
ATOM     19  N   UNL     1       3.607   3.834  17.996  0.00  0.00    +0.000 N 
ATOM     20  C   UNL     1       3.450   2.452  18.437  0.00  0.00    +0.000 C 
ATOM     21  C   UNL     1       1.984   2.148  18.160  0.00  0.00    +0.000 C 
ATOM     22  C   UNL     1       1.296   3.476  18.417  0.00  0.00    +0.000 C 
ATOM     23  C   UNL     1       2.304   4.510  17.924  0.00  0.00    +0.000 C 
ENDBRANCH   7  19
TORSDOF 3
ENDMDL
MODEL 5
REMARK VINA RESULT:      -7.2      3.050      8.462
REMARK  Name = 
REMARK  3 active torsions:
REMARK  status: ('A' for Active; 'I' for Inactive)
REMARK    1  A    between atoms: C_2  and  C_3
REMARK    2  A    between atoms: C_7  and  C_8
REMARK    3  A    between atoms: C_14  and  N_15
REMARK                            x       y       z     vdW  Elec       q    Type
REMARK                         _______ _______ _______ _____ _____    ______ ____
ROOT
ATOM      1  C   UNL     1       1.061   9.567  19.679  0.00  0.00    +0.000 A 
ATOM      2  C   UNL     1       1.195  10.384  18.567  0.00  0.00    +0.000 A 
ATOM      3  N   UNL     1       1.949   9.720  17.631  0.00  0.00    +0.000 N 
ATOM      4  C   UNL     1       2.313   8.496  18.115  0.00  0.00    +0.000 A 
ATOM      5  N   UNL     1       3.082   7.617  17.454  0.00  0.00    +0.000 NA
ATOM      6  C   UNL     1       3.306   6.478  18.173  0.00  0.00    +0.000 A 
ATOM      7  C   UNL     1       2.816   6.151  19.446  0.00  0.00    +0.000 A 
ATOM      8  C   UNL     1       2.043   7.150  20.053  0.00  0.00    +0.000 A 
ATOM      9  C   UNL     1       1.768   8.357  19.382  0.00  0.00    +0.000 A 
ATOM     10  H   UNL     1       2.222  10.065  16.723  0.00  0.00    +0.000 HD
ENDROOT
BRANCH   1  15
ATOM     11  C   UNL     1      -1.253  11.409  22.023  0.00  0.00    +0.000 A 
ATOM     12  C   UNL     1      -1.105  10.664  23.195  0.00  0.00    +0.000 A 
ATOM     13  C   UNL     1      -0.235   9.574  23.220  0.00  0.00    +0.000 A 
ATOM     14  C   UNL     1       0.479   9.220  22.073  0.00  0.00    +0.000 A 
ATOM     15  C   UNL     1       0.342   9.957  20.888  0.00  0.00    +0.000 A 
ATOM     16  C   UNL     1      -0.524  11.062  20.880  0.00  0.00    +0.000 A 
BRANCH  11  18
ATOM     17  N   UNL     1      -2.881  13.432  21.954  0.00  0.00    +0.000 NA
ATOM     18  C   UNL     1      -2.157  12.527  21.985  0.00  0.00    +0.000 C 
ENDBRANCH  11  18
ENDBRANCH   1  15
BRANCH   7  19
ATOM     19  N   UNL     1       3.063   4.963  20.108  0.00  0.00    +0.000 N 
ATOM     20  C   UNL     1       3.793   3.830  19.547  0.00  0.00    +0.000 C 
ATOM     21  C   UNL     1       2.954   2.624  19.949  0.00  0.00    +0.000 C 
ATOM     22  C   UNL     1       2.399   3.021  21.305  0.00  0.00    +0.000 C 
ATOM     23  C   UNL     1       2.153   4.521  21.174  0.00  0.00    +0.000 C 
ENDBRANCH   7  19
TORSDOF 3
ENDMDL
MODEL 6
REMARK VINA RESULT:      -7.2      3.260      7.704
REMARK  Name = 
REMARK  3 active torsions:
REMARK  status: ('A' for Active; 'I' for Inactive)
REMARK    1  A    between atoms: C_2  and  C_3
REMARK    2  A    between atoms: C_7  and  C_8
REMARK    3  A    between atoms: C_14  and  N_15
REMARK                            x       y       z     vdW  Elec       q    Type
REMARK                         _______ _______ _______ _____ _____    ______ ____
ROOT
ATOM      1  C   UNL     1       5.169   4.511  17.508  0.00  0.00    +0.000 A 
ATOM      2  C   UNL     1       5.876   5.377  18.329  0.00  0.00    +0.000 A 
ATOM      3  N   UNL     1       6.875   5.958  17.588  0.00  0.00    +0.000 N 
ATOM      4  C   UNL     1       6.837   5.482  16.309  0.00  0.00    +0.000 A 
ATOM      5  N   UNL     1       7.703   5.828  15.344  0.00  0.00    +0.000 NA
ATOM      6  C   UNL     1       7.447   5.194  14.163  0.00  0.00    +0.000 A 
ATOM      7  C   UNL     1       6.413   4.291  13.875  0.00  0.00    +0.000 A 
ATOM      8  C   UNL     1       5.582   3.982  14.960  0.00  0.00    +0.000 A 
ATOM      9  C   UNL     1       5.779   4.589  16.215  0.00  0.00    +0.000 A 
ATOM     10  H   UNL     1       7.558   6.623  17.916  0.00  0.00    +0.000 HD
ENDROOT
BRANCH   1  15
ATOM     11  C   UNL     1       2.602   2.906  19.762  0.00  0.00    +0.000 A 
ATOM     12  C   UNL     1       1.839   2.189  18.838  0.00  0.00    +0.000 A 
ATOM     13  C   UNL     1       2.177   2.217  17.485  0.00  0.00    +0.000 A 
ATOM     14  C   UNL     1       3.270   2.970  17.052  0.00  0.00    +0.000 A 
ATOM     15  C   UNL     1       4.048   3.697  17.965  0.00  0.00    +0.000 A 
ATOM     16  C   UNL     1       3.707   3.647  19.326  0.00  0.00    +0.000 A 
BRANCH  11  18
ATOM     17  N   UNL     1       1.967   2.879  22.280  0.00  0.00    +0.000 NA
ATOM     18  C   UNL     1       2.253   2.893  21.157  0.00  0.00    +0.000 C 
ENDBRANCH  11  18
ENDBRANCH   1  15
BRANCH   7  19
ATOM     19  N   UNL     1       6.198   3.702  12.642  0.00  0.00    +0.000 N 
ATOM     20  C   UNL     1       4.908   3.222  12.160  0.00  0.00    +0.000 C 
ATOM     21  C   UNL     1       5.234   1.871  11.537  0.00  0.00    +0.000 C 
ATOM     22  C   UNL     1       6.623   2.078  10.962  0.00  0.00    +0.000 C 
ATOM     23  C   UNL     1       7.300   3.003  11.967  0.00  0.00    +0.000 C 
ENDBRANCH   7  19
TORSDOF 3
ENDMDL
MODEL 7
REMARK VINA RESULT:      -7.2      3.171      7.380
REMARK  Name = 
REMARK  3 active torsions:
REMARK  status: ('A' for Active; 'I' for Inactive)
REMARK    1  A    between atoms: C_2  and  C_3
REMARK    2  A    between atoms: C_7  and  C_8
REMARK    3  A    between atoms: C_14  and  N_15
REMARK                            x       y       z     vdW  Elec       q    Type
REMARK                         _______ _______ _______ _____ _____    ______ ____
ROOT
ATOM      1  C   UNL     1       4.812   4.463  18.381  0.00  0.00    +0.000 A 
ATOM      2  C   UNL     1       5.663   4.901  19.384  0.00  0.00    +0.000 A 
ATOM      3  N   UNL     1       6.862   5.247  18.813  0.00  0.00    +0.000 N 
ATOM      4  C   UNL     1       6.811   5.034  17.465  0.00  0.00    +0.000 A 
ATOM      5  N   UNL     1       7.835   5.242  16.623  0.00  0.00    +0.000 NA
ATOM      6  C   UNL     1       7.518   4.935  15.332  0.00  0.00    +0.000 A 
ATOM      7  C   UNL     1       6.292   4.475  14.830  0.00  0.00    +0.000 A 
ATOM      8  C   UNL     1       5.299   4.271  15.799  0.00  0.00    +0.000 A 
ATOM      9  C   UNL     1       5.545   4.559  17.155  0.00  0.00    +0.000 A 
ATOM     10  H   UNL     1       7.680   5.592  19.292  0.00  0.00    +0.000 HD
ENDROOT
BRANCH   1  15
ATOM     11  C   UNL     1       1.761   3.101  20.138  0.00  0.00    +0.000 A 
ATOM     12  C   UNL     1       0.814   3.143  19.112  0.00  0.00    +0.000 A 
ATOM     13  C   UNL     1       1.180   3.598  17.846  0.00  0.00    +0.000 A 
ATOM     14  C   UNL     1       2.489   4.022  17.605  0.00  0.00    +0.000 A 
ATOM     15  C   UNL     1       3.453   3.987  18.622  0.00  0.00    +0.000 A 
ATOM     16  C   UNL     1       3.076   3.511  19.888  0.00  0.00    +0.000 A 
BRANCH  11  18
ATOM     17  N   UNL     1       1.085   2.280  22.508  0.00  0.00    +0.000 NA
ATOM     18  C   UNL     1       1.389   2.645  21.450  0.00  0.00    +0.000 C 
ENDBRANCH  11  18
ENDBRANCH   1  15
BRANCH   7  19
ATOM     19  N   UNL     1       6.033   4.206  13.499  0.00  0.00    +0.000 N 
ATOM     20  C   UNL     1       4.869   3.479  13.004  0.00  0.00    +0.000 C 
ATOM     21  C   UNL     1       5.449   2.532  11.962  0.00  0.00    +0.000 C 
ATOM     22  C   UNL     1       6.591   3.331  11.361  0.00  0.00    +0.000 C 
ATOM     23  C   UNL     1       7.147   4.118  12.544  0.00  0.00    +0.000 C 
ENDBRANCH   7  19
TORSDOF 3
ENDMDL
MODEL 8
REMARK VINA RESULT:      -7.1      1.654      2.124
REMARK  Name = 
REMARK  3 active torsions:
REMARK  status: ('A' for Active; 'I' for Inactive)
REMARK    1  A    between atoms: C_2  and  C_3
REMARK    2  A    between atoms: C_7  and  C_8
REMARK    3  A    between atoms: C_14  and  N_15
REMARK                            x       y       z     vdW  Elec       q    Type
REMARK                         _______ _______ _______ _____ _____    ______ ____
ROOT
ATOM      1  C   UNL     1       3.880   3.924  18.005  0.00  0.00    +0.000 A 
ATOM      2  C   UNL     1       3.531   2.588  18.136  0.00  0.00    +0.000 A 
ATOM      3  N   UNL     1       2.489   2.499  19.025  0.00  0.00    +0.000 N 
ATOM      4  C   UNL     1       2.162   3.744  19.481  0.00  0.00    +0.000 A 
ATOM      5  N   UNL     1       1.205   3.994  20.388  0.00  0.00    +0.000 NA
ATOM      6  C   UNL     1       1.096   5.324  20.676  0.00  0.00    +0.000 A 
ATOM      7  C   UNL     1       1.826   6.388  20.128  0.00  0.00    +0.000 A 
ATOM      8  C   UNL     1       2.814   6.012  19.208  0.00  0.00    +0.000 A 
ATOM      9  C   UNL     1       2.996   4.660  18.857  0.00  0.00    +0.000 A 
ATOM     10  H   UNL     1       2.028   1.655  19.329  0.00  0.00    +0.000 HD
ENDROOT
BRANCH   1  15
ATOM     11  C   UNL     1       6.737   6.010  16.688  0.00  0.00    +0.000 A 
ATOM     12  C   UNL     1       7.123   5.268  15.570  0.00  0.00    +0.000 A 
ATOM     13  C   UNL     1       6.438   4.099  15.240  0.00  0.00    +0.000 A 
ATOM     14  C   UNL     1       5.373   3.664  16.031  0.00  0.00    +0.000 A 
ATOM     15  C   UNL     1       4.971   4.396  17.157  0.00  0.00    +0.000 A 
ATOM     16  C   UNL     1       5.658   5.580  17.470  0.00  0.00    +0.000 A 
BRANCH  11  18
ATOM     17  N   UNL     1       8.013   8.178  17.333  0.00  0.00    +0.000 NA
ATOM     18  C   UNL     1       7.446   7.209  17.044  0.00  0.00    +0.000 C 
ENDBRANCH  11  18
ENDBRANCH   1  15
BRANCH   7  19
ATOM     19  N   UNL     1       1.644   7.721  20.449  0.00  0.00    +0.000 N 
ATOM     20  C   UNL     1       1.020   8.207  21.675  0.00  0.00    +0.000 C 
ATOM     21  C   UNL     1       0.093   9.316  21.195  0.00  0.00    +0.000 C 
ATOM     22  C   UNL     1       0.848   9.918  20.023  0.00  0.00    +0.000 C 
ATOM     23  C   UNL     1       1.534   8.719  19.377  0.00  0.00    +0.000 C 
ENDBRANCH   7  19
TORSDOF 3
ENDMDL
MODEL 9
REMARK VINA RESULT:      -7.1      2.852      5.398
REMARK  Name = 
REMARK  3 active torsions:
REMARK  status: ('A' for Active; 'I' for Inactive)
REMARK    1  A    between atoms: C_2  and  C_3
REMARK    2  A    between atoms: C_7  and  C_8
REMARK    3  A    between atoms: C_14  and  N_15
REMARK                            x       y       z     vdW  Elec       q    Type
REMARK                         _______ _______ _______ _____ _____    ______ ____
ROOT
ATOM      1  C   UNL     1       6.098   4.297  14.162  0.00  0.00    +0.000 A 
ATOM      2  C   UNL     1       7.286   5.007  14.242  0.00  0.00    +0.000 A 
ATOM      3  N   UNL     1       7.354   5.599  15.479  0.00  0.00    +0.000 N 
ATOM      4  C   UNL     1       6.232   5.296  16.198  0.00  0.00    +0.000 A 
ATOM      5  N   UNL     1       5.978   5.750  17.435  0.00  0.00    +0.000 NA
ATOM      6  C   UNL     1       4.780   5.307  17.915  0.00  0.00    +0.000 A 
ATOM      7  C   UNL     1       3.861   4.454  17.287  0.00  0.00    +0.000 A 
ATOM      8  C   UNL     1       4.215   4.060  15.990  0.00  0.00    +0.000 A 
ATOM      9  C   UNL     1       5.432   4.475  15.417  0.00  0.00    +0.000 A 
ATOM     10  H   UNL     1       8.096   6.187  15.826  0.00  0.00    +0.000 HD
ENDROOT
BRANCH   1  15
ATOM     11  C   UNL     1       4.279   3.378  10.985  0.00  0.00    +0.000 A 
ATOM     12  C   UNL     1       4.909   2.178  10.647  0.00  0.00    +0.000 A 
ATOM     13  C   UNL     1       5.913   1.665  11.468  0.00  0.00    +0.000 A 
ATOM     14  C   UNL     1       6.296   2.353  12.621  0.00  0.00    +0.000 A 
ATOM     15  C   UNL     1       5.674   3.559  12.976  0.00  0.00    +0.000 A 
ATOM     16  C   UNL     1       4.654   4.057  12.150  0.00  0.00    +0.000 A 
BRANCH  11  18
ATOM     17  N   UNL     1       2.421   4.360   9.459  0.00  0.00    +0.000 NA
ATOM     18  C   UNL     1       3.252   3.921  10.137  0.00  0.00    +0.000 C 
ENDBRANCH  11  18
ENDBRANCH   1  15
BRANCH   7  19
ATOM     19  N   UNL     1       2.671   4.024  17.846  0.00  0.00    +0.000 N 
ATOM     20  C   UNL     1       1.992   4.668  18.965  0.00  0.00    +0.000 C 
ATOM     21  C   UNL     1       1.577   3.505  19.856  0.00  0.00    +0.000 C 
ATOM     22  C   UNL     1       1.269   2.398  18.863  0.00  0.00    +0.000 C 
ATOM     23  C   UNL     1       2.296   2.606  17.755  0.00  0.00    +0.000 C 
ENDBRANCH   7  19
TORSDOF 3
ENDMDL
