MODEL 1
REMARK VINA RESULT:      -6.5      0.000      0.000
REMARK  Name = 
REMARK  9 active torsions:
REMARK  status: ('A' for Active; 'I' for Inactive)
REMARK    1  A    between atoms: C_1  and  O_2
REMARK    2  A    between atoms: O_2  and  C_3
REMARK    3  A    between atoms: C_8  and  C_9
REMARK    4  A    between atoms: C_9  and  N_10
REMARK    5  A    between atoms: N_10  and  S_11
REMARK    6  A    between atoms: S_11  and  C_14
REMARK    7  A    between atoms: C_14  and  C_15
REMARK    8  A    between atoms: C_15  and  N_16
REMARK    9  A    between atoms: N_16  and  C_17
REMARK                            x       y       z     vdW  Elec       q    Type
REMARK                         _______ _______ _______ _____ _____    ______ ____
ROOT
ATOM      1  S   UNL     1       5.822   6.250  16.802  0.00  0.00    +0.000 S 
ATOM      2  O   UNL     1       5.129   6.018  15.551  0.00  0.00    +0.000 OA
ATOM      3  O   UNL     1       7.006   7.077  16.859  0.00  0.00    +0.000 OA
ENDROOT
BRANCH   1   4
ATOM      4  N   UNL     1       4.723   6.907  17.879  0.00  0.00    +0.000 NA
ATOM      5  H   UNL     1       4.787   6.640  18.858  0.00  0.00    +0.000 HD
BRANCH   4   6
ATOM      6  C   UNL     1       3.352   7.104  17.361  0.00  0.00    +0.000 C 
BRANCH   6  12
ATOM      7  C   UNL     1       2.128   7.548  19.578  0.00  0.00    +0.000 A 
ATOM      8  C   UNL     1       1.288   8.373  20.338  0.00  0.00    +0.000 A 
ATOM      9  C   UNL     1       0.878   9.619  19.861  0.00  0.00    +0.000 A 
ATOM     10  C   UNL     1       1.292  10.048  18.615  0.00  0.00    +0.000 A 
ATOM     11  C   UNL     1       2.096   9.217  17.825  0.00  0.00    +0.000 A 
ATOM     12  C   UNL     1       2.519   7.960  18.291  0.00  0.00    +0.000 A 
BRANCH   7  14
ATOM     13  C   UNL     1       1.669   5.617  20.865  0.00  0.00    +0.000 C 
ATOM     14  O   UNL     1       2.580   6.335  20.031  0.00  0.00    +0.000 OA
ENDBRANCH   7  14
ENDBRANCH   6  12
ENDBRANCH   4   6
ENDBRANCH   1   4
BRANCH   1  15
ATOM     15  C   UNL     1       6.207   4.638  17.513  0.00  0.00    +0.000 C 
BRANCH  15  16
ATOM     16  C   UNL     1       5.663   4.632  18.939  0.00  0.00    +0.000 C 
BRANCH  16  17
ATOM     17  N   UNL     1       4.243   4.262  19.049  0.00  0.00    +0.000 NA
ATOM     18  H   UNL     1       3.659   5.057  18.784  0.00  0.00    +0.000 HD
BRANCH  17  19
ATOM     19  C   UNL     1       3.905   3.124  18.157  0.00  0.00    +0.000 C 
ATOM     20  C   UNL     1       3.402   1.866  18.897  0.00  0.00    +0.000 C 
ATOM     21  C   UNL     1       2.070   2.103  19.604  0.00  0.00    +0.000 C 
ATOM     22  C   UNL     1       1.003   2.583  18.625  0.00  0.00    +0.000 C 
ATOM     23  C   UNL     1       1.465   3.798  17.822  0.00  0.00    +0.000 C 
ATOM     24  C   UNL     1       2.820   3.559  17.154  0.00  0.00    +0.000 C 
ENDBRANCH  17  19
ENDBRANCH  16  17
ENDBRANCH  15  16
ENDBRANCH   1  15
TORSDOF 8
ENDMDL
MODEL 2
REMARK VINA RESULT:      -6.4      2.714      4.147
REMARK  Name = 
REMARK  9 active torsions:
REMARK  status: ('A' for Active; 'I' for Inactive)
REMARK    1  A    between atoms: C_1  and  O_2
REMARK    2  A    between atoms: O_2  and  C_3
REMARK    3  A    between atoms: C_8  and  C_9
REMARK    4  A    between atoms: C_9  and  N_10
REMARK    5  A    between atoms: N_10  and  S_11
REMARK    6  A    between atoms: S_11  and  C_14
REMARK    7  A    between atoms: C_14  and  C_15
REMARK    8  A    between atoms: C_15  and  N_16
REMARK    9  A    between atoms: N_16  and  C_17
REMARK                            x       y       z     vdW  Elec       q    Type
REMARK                         _______ _______ _______ _____ _____    ______ ____
ROOT
ATOM      1  S   UNL     1       1.525   3.541  19.677  0.00  0.00    +0.000 S 
ATOM      2  O   UNL     1       0.614   2.538  20.189  0.00  0.00    +0.000 OA
ATOM      3  O   UNL     1       1.655   3.779  18.257  0.00  0.00    +0.000 OA
ENDROOT
BRANCH   1   4
ATOM      4  N   UNL     1       1.114   5.005  20.375  0.00  0.00    +0.000 NA
ATOM      5  H   UNL     1       0.228   5.433  20.114  0.00  0.00    +0.000 HD
BRANCH   4   6
ATOM      6  C   UNL     1       2.231   5.946  20.606  0.00  0.00    +0.000 C 
BRANCH   6  12
ATOM      7  C   UNL     1       1.467   8.383  20.312  0.00  0.00    +0.000 A 
ATOM      8  C   UNL     1       1.285   9.488  19.470  0.00  0.00    +0.000 A 
ATOM      9  C   UNL     1       1.738   9.470  18.150  0.00  0.00    +0.000 A 
ATOM     10  C   UNL     1       2.367   8.344  17.654  0.00  0.00    +0.000 A 
ATOM     11  C   UNL     1       2.518   7.216  18.470  0.00  0.00    +0.000 A 
ATOM     12  C   UNL     1       2.069   7.218  19.802  0.00  0.00    +0.000 A 
BRANCH   7  14
ATOM     13  C   UNL     1      -0.281   8.791  21.852  0.00  0.00    +0.000 C 
ATOM     14  O   UNL     1       1.067   8.379  21.624  0.00  0.00    +0.000 OA
ENDBRANCH   7  14
ENDBRANCH   6  12
ENDBRANCH   4   6
ENDBRANCH   1   4
BRANCH   1  15
ATOM     15  C   UNL     1       3.157   3.186  20.356  0.00  0.00    +0.000 C 
BRANCH  15  16
ATOM     16  C   UNL     1       3.952   2.469  19.269  0.00  0.00    +0.000 C 
BRANCH  16  17
ATOM     17  N   UNL     1       5.267   3.064  18.981  0.00  0.00    +0.000 NA
ATOM     18  H   UNL     1       5.739   2.518  18.257  0.00  0.00    +0.000 HD
BRANCH  17  19
ATOM     19  C   UNL     1       5.139   4.461  18.495  0.00  0.00    +0.000 C 
ATOM     20  C   UNL     1       6.427   5.300  18.631  0.00  0.00    +0.000 C 
ATOM     21  C   UNL     1       7.558   4.773  17.750  0.00  0.00    +0.000 C 
ATOM     22  C   UNL     1       7.135   4.718  16.285  0.00  0.00    +0.000 C 
ATOM     23  C   UNL     1       5.832   3.944  16.092  0.00  0.00    +0.000 C 
ATOM     24  C   UNL     1       4.723   4.455  17.013  0.00  0.00    +0.000 C 
ENDBRANCH  17  19
ENDBRANCH  16  17
ENDBRANCH  15  16
ENDBRANCH   1  15
TORSDOF 8
ENDMDL
MODEL 3
REMARK VINA RESULT:      -6.4      2.606      4.382
REMARK  Name = 
REMARK  9 active torsions:
REMARK  status: ('A' for Active; 'I' for Inactive)
REMARK    1  A    between atoms: C_1  and  O_2
REMARK    2  A    between atoms: O_2  and  C_3
REMARK    3  A    between atoms: C_8  and  C_9
REMARK    4  A    between atoms: C_9  and  N_10
REMARK    5  A    between atoms: N_10  and  S_11
REMARK    6  A    between atoms: S_11  and  C_14
REMARK    7  A    between atoms: C_14  and  C_15
REMARK    8  A    between atoms: C_15  and  N_16
REMARK    9  A    between atoms: N_16  and  C_17
REMARK                            x       y       z     vdW  Elec       q    Type
REMARK                         _______ _______ _______ _____ _____    ______ ____
ROOT
ATOM      1  S   UNL     1       2.577   3.663  19.860  0.00  0.00    +0.000 S 
ATOM      2  O   UNL     1       3.584   2.835  20.492  0.00  0.00    +0.000 OA
ATOM      3  O   UNL     1       1.192   3.601  20.271  0.00  0.00    +0.000 OA
ENDROOT
BRANCH   1   4
ATOM      4  N   UNL     1       3.055   5.258  20.021  0.00  0.00    +0.000 NA
ATOM      5  H   UNL     1       4.022   5.450  20.273  0.00  0.00    +0.000 HD
BRANCH   4   6
ATOM      6  C   UNL     1       2.052   6.177  20.601  0.00  0.00    +0.000 C 
BRANCH   6  12
ATOM      7  C   UNL     1       1.177   8.563  20.215  0.00  0.00    +0.000 A 
ATOM      8  C   UNL     1       1.042   9.667  19.363  0.00  0.00    +0.000 A 
ATOM      9  C   UNL     1       1.677   9.698  18.120  0.00  0.00    +0.000 A 
ATOM     10  C   UNL     1       2.443   8.623  17.712  0.00  0.00    +0.000 A 
ATOM     11  C   UNL     1       2.551   7.495  18.534  0.00  0.00    +0.000 A 
ATOM     12  C   UNL     1       1.920   7.447  19.789  0.00  0.00    +0.000 A 
BRANCH   7  14
ATOM     13  C   UNL     1       1.222   9.325  22.455  0.00  0.00    +0.000 C 
ATOM     14  O   UNL     1       0.598   8.514  21.458  0.00  0.00    +0.000 OA
ENDBRANCH   7  14
ENDBRANCH   6  12
ENDBRANCH   4   6
ENDBRANCH   1   4
BRANCH   1  15
ATOM     15  C   UNL     1       2.669   3.364  18.084  0.00  0.00    +0.000 C 
BRANCH  15  16
ATOM     16  C   UNL     1       3.658   4.373  17.508  0.00  0.00    +0.000 C 
BRANCH  16  17
ATOM     17  N   UNL     1       5.037   4.229  18.005  0.00  0.00    +0.000 NA
ATOM     18  H   UNL     1       5.184   3.274  18.335  0.00  0.00    +0.000 HD
BRANCH  17  19
ATOM     19  C   UNL     1       6.033   4.507  16.940  0.00  0.00    +0.000 C 
ATOM     20  C   UNL     1       5.805   5.836  16.190  0.00  0.00    +0.000 C 
ATOM     21  C   UNL     1       5.984   7.052  17.098  0.00  0.00    +0.000 C 
ATOM     22  C   UNL     1       7.366   7.057  17.745  0.00  0.00    +0.000 C 
ATOM     23  C   UNL     1       7.672   5.742  18.459  0.00  0.00    +0.000 C 
ATOM     24  C   UNL     1       7.446   4.533  17.549  0.00  0.00    +0.000 C 
ENDBRANCH  17  19
ENDBRANCH  16  17
ENDBRANCH  15  16
ENDBRANCH   1  15
TORSDOF 8
ENDMDL
MODEL 4
REMARK VINA RESULT:      -6.3      2.477      4.101
REMARK  Name = 
REMARK  9 active torsions:
REMARK  status: ('A' for Active; 'I' for Inactive)
REMARK    1  A    between atoms: C_1  and  O_2
REMARK    2  A    between atoms: O_2  and  C_3
REMARK    3  A    between atoms: C_8  and  C_9
REMARK    4  A    between atoms: C_9  and  N_10
REMARK    5  A    between atoms: N_10  and  S_11
REMARK    6  A    between atoms: S_11  and  C_14
REMARK    7  A    between atoms: C_14  and  C_15
REMARK    8  A    between atoms: C_15  and  N_16
REMARK    9  A    between atoms: N_16  and  C_17
REMARK                            x       y       z     vdW  Elec       q    Type
REMARK                         _______ _______ _______ _____ _____    ______ ____
ROOT
ATOM      1  S   UNL     1       1.656   3.832  18.941  0.00  0.00    +0.000 S 
ATOM      2  O   UNL     1       0.759   3.583  20.051  0.00  0.00    +0.000 OA
ATOM      3  O   UNL     1       1.148   4.150  17.625  0.00  0.00    +0.000 OA
ENDROOT
BRANCH   1   4
ATOM      4  N   UNL     1       2.673   5.087  19.380  0.00  0.00    +0.000 NA
ATOM      5  H   UNL     1       3.663   4.887  19.500  0.00  0.00    +0.000 HD
BRANCH   4   6
ATOM      6  C   UNL     1       2.105   6.079  20.319  0.00  0.00    +0.000 C 
BRANCH   6  12
ATOM      7  C   UNL     1       1.314   8.525  20.303  0.00  0.00    +0.000 A 
ATOM      8  C   UNL     1       1.127   9.719  19.594  0.00  0.00    +0.000 A 
ATOM      9  C   UNL     1       1.597   9.861  18.287  0.00  0.00    +0.000 A 
ATOM     10  C   UNL     1       2.246   8.809  17.672  0.00  0.00    +0.000 A 
ATOM     11  C   UNL     1       2.401   7.595  18.351  0.00  0.00    +0.000 A 
ATOM     12  C   UNL     1       1.936   7.434  19.668  0.00  0.00    +0.000 A 
BRANCH   7  14
ATOM     13  C   UNL     1      -0.371   8.939  21.911  0.00  0.00    +0.000 C 
ATOM     14  O   UNL     1       0.898   8.362  21.600  0.00  0.00    +0.000 OA
ENDBRANCH   7  14
ENDBRANCH   6  12
ENDBRANCH   4   6
ENDBRANCH   1   4
BRANCH   1  15
ATOM     15  C   UNL     1       2.760   2.413  18.809  0.00  0.00    +0.000 C 
BRANCH  15  16
ATOM     16  C   UNL     1       3.510   2.546  17.486  0.00  0.00    +0.000 C 
BRANCH  16  17
ATOM     17  N   UNL     1       3.847   3.929  17.112  0.00  0.00    +0.000 NA
ATOM     18  H   UNL     1       3.766   4.535  17.930  0.00  0.00    +0.000 HD
BRANCH  17  19
ATOM     19  C   UNL     1       5.235   4.032  16.597  0.00  0.00    +0.000 C 
ATOM     20  C   UNL     1       5.414   5.056  15.456  0.00  0.00    +0.000 C 
ATOM     21  C   UNL     1       5.153   6.489  15.916  0.00  0.00    +0.000 C 
ATOM     22  C   UNL     1       6.056   6.864  17.087  0.00  0.00    +0.000 C 
ATOM     23  C   UNL     1       5.963   5.855  18.230  0.00  0.00    +0.000 C 
ATOM     24  C   UNL     1       6.184   4.421  17.746  0.00  0.00    +0.000 C 
ENDBRANCH  17  19
ENDBRANCH  16  17
ENDBRANCH  15  16
ENDBRANCH   1  15
TORSDOF 8
ENDMDL
MODEL 5
REMARK VINA RESULT:      -6.3      2.564      4.220
REMARK  Name = 
REMARK  9 active torsions:
REMARK  status: ('A' for Active; 'I' for Inactive)
REMARK    1  A    between atoms: C_1  and  O_2
REMARK    2  A    between atoms: O_2  and  C_3
REMARK    3  A    between atoms: C_8  and  C_9
REMARK    4  A    between atoms: C_9  and  N_10
REMARK    5  A    between atoms: N_10  and  S_11
REMARK    6  A    between atoms: S_11  and  C_14
REMARK    7  A    between atoms: C_14  and  C_15
REMARK    8  A    between atoms: C_15  and  N_16
REMARK    9  A    between atoms: N_16  and  C_17
REMARK                            x       y       z     vdW  Elec       q    Type
REMARK                         _______ _______ _______ _____ _____    ______ ____
ROOT
ATOM      1  S   UNL     1       2.837   3.350  20.573  0.00  0.00    +0.000 S 
ATOM      2  O   UNL     1       4.112   2.683  20.411  0.00  0.00    +0.000 OA
ATOM      3  O   UNL     1       2.029   3.145  21.754  0.00  0.00    +0.000 OA
ENDROOT
BRANCH   1   4
ATOM      4  N   UNL     1       3.105   4.997  20.454  0.00  0.00    +0.000 NA
ATOM      5  H   UNL     1       3.995   5.367  20.782  0.00  0.00    +0.000 HD
BRANCH   4   6
ATOM      6  C   UNL     1       1.930   5.861  20.697  0.00  0.00    +0.000 C 
BRANCH   6  12
ATOM      7  C   UNL     1       1.392   8.330  20.224  0.00  0.00    +0.000 A 
ATOM      8  C   UNL     1       1.394   9.407  19.327  0.00  0.00    +0.000 A 
ATOM      9  C   UNL     1       1.999   9.298  18.074  0.00  0.00    +0.000 A 
ATOM     10  C   UNL     1       2.597   8.110  17.700  0.00  0.00    +0.000 A 
ATOM     11  C   UNL     1       2.564   7.012  18.568  0.00  0.00    +0.000 A 
ATOM     12  C   UNL     1       1.960   7.104  19.834  0.00  0.00    +0.000 A 
BRANCH   7  14
ATOM     13  C   UNL     1      -0.194   9.389  21.625  0.00  0.00    +0.000 C 
ATOM     14  O   UNL     1       0.839   8.414  21.477  0.00  0.00    +0.000 OA
ENDBRANCH   7  14
ENDBRANCH   6  12
ENDBRANCH   4   6
ENDBRANCH   1   4
BRANCH   1  15
ATOM     15  C   UNL     1       1.841   2.973  19.117  0.00  0.00    +0.000 C 
BRANCH  15  16
ATOM     16  C   UNL     1       2.800   2.830  17.939  0.00  0.00    +0.000 C 
BRANCH  16  17
ATOM     17  N   UNL     1       3.459   4.082  17.532  0.00  0.00    +0.000 NA
ATOM     18  H   UNL     1       3.513   4.715  18.331  0.00  0.00    +0.000 HD
BRANCH  17  19
ATOM     19  C   UNL     1       4.840   3.837  17.044  0.00  0.00    +0.000 C 
ATOM     20  C   UNL     1       5.178   4.550  15.718  0.00  0.00    +0.000 C 
ATOM     21  C   UNL     1       5.170   6.071  15.859  0.00  0.00    +0.000 C 
ATOM     22  C   UNL     1       6.135   6.528  16.948  0.00  0.00    +0.000 C 
ATOM     23  C   UNL     1       5.884   5.815  18.275  0.00  0.00    +0.000 C 
ATOM     24  C   UNL     1       5.853   4.295  18.109  0.00  0.00    +0.000 C 
ENDBRANCH  17  19
ENDBRANCH  16  17
ENDBRANCH  15  16
ENDBRANCH   1  15
TORSDOF 8
ENDMDL
MODEL 6
REMARK VINA RESULT:      -6.3      2.458      4.261
REMARK  Name = 
REMARK  9 active torsions:
REMARK  status: ('A' for Active; 'I' for Inactive)
REMARK    1  A    between atoms: C_1  and  O_2
REMARK    2  A    between atoms: O_2  and  C_3
REMARK    3  A    between atoms: C_8  and  C_9
REMARK    4  A    between atoms: C_9  and  N_10
REMARK    5  A    between atoms: N_10  and  S_11
REMARK    6  A    between atoms: S_11  and  C_14
REMARK    7  A    between atoms: C_14  and  C_15
REMARK    8  A    between atoms: C_15  and  N_16
REMARK    9  A    between atoms: N_16  and  C_17
REMARK                            x       y       z     vdW  Elec       q    Type
REMARK                         _______ _______ _______ _____ _____    ______ ____
ROOT
ATOM      1  S   UNL     1       2.159   4.217  19.636  0.00  0.00    +0.000 S 
ATOM      2  O   UNL     1       0.964   3.892  20.387  0.00  0.00    +0.000 OA
ATOM      3  O   UNL     1       2.130   4.335  18.196  0.00  0.00    +0.000 OA
ENDROOT
BRANCH   1   4
ATOM      4  N   UNL     1       2.752   5.667  20.226  0.00  0.00    +0.000 NA
ATOM      5  H   UNL     1       3.638   5.660  20.724  0.00  0.00    +0.000 HD
BRANCH   4   6
ATOM      6  C   UNL     1       1.740   6.615  20.740  0.00  0.00    +0.000 C 
BRANCH   6  12
ATOM      7  C   UNL     1       0.897   8.992  20.241  0.00  0.00    +0.000 A 
ATOM      8  C   UNL     1       0.814  10.072  19.353  0.00  0.00    +0.000 A 
ATOM      9  C   UNL     1       1.517  10.068  18.147  0.00  0.00    +0.000 A 
ATOM     10  C   UNL     1       2.301   8.981  17.812  0.00  0.00    +0.000 A 
ATOM     11  C   UNL     1       2.359   7.876  18.669  0.00  0.00    +0.000 A 
ATOM     12  C   UNL     1       1.659   7.863  19.888  0.00  0.00    +0.000 A 
BRANCH   7  14
ATOM     13  C   UNL     1       1.000   9.491  22.551  0.00  0.00    +0.000 C 
ATOM     14  O   UNL     1       0.249   8.978  21.451  0.00  0.00    +0.000 OA
ENDBRANCH   7  14
ENDBRANCH   6  12
ENDBRANCH   4   6
ENDBRANCH   1   4
BRANCH   1  15
ATOM     15  C   UNL     1       3.427   3.019  20.093  0.00  0.00    +0.000 C 
BRANCH  15  16
ATOM     16  C   UNL     1       4.490   3.047  18.998  0.00  0.00    +0.000 C 
BRANCH  16  17
ATOM     17  N   UNL     1       5.159   4.348  18.830  0.00  0.00    +0.000 NA
ATOM     18  H   UNL     1       5.839   4.483  19.580  0.00  0.00    +0.000 HD
BRANCH  17  19
ATOM     19  C   UNL     1       5.881   4.426  17.535  0.00  0.00    +0.000 C 
ATOM     20  C   UNL     1       5.358   5.523  16.584  0.00  0.00    +0.000 C 
ATOM     21  C   UNL     1       5.581   6.928  17.141  0.00  0.00    +0.000 C 
ATOM     22  C   UNL     1       7.056   7.172  17.446  0.00  0.00    +0.000 C 
ATOM     23  C   UNL     1       7.645   6.085  18.342  0.00  0.00    +0.000 C 
ATOM     24  C   UNL     1       7.377   4.684  17.792  0.00  0.00    +0.000 C 
ENDBRANCH  17  19
ENDBRANCH  16  17
ENDBRANCH  15  16
ENDBRANCH   1  15
TORSDOF 8
ENDMDL
MODEL 7
REMARK VINA RESULT:      -6.2      1.475      2.392
REMARK  Name = 
REMARK  9 active torsions:
REMARK  status: ('A' for Active; 'I' for Inactive)
REMARK    1  A    between atoms: C_1  and  O_2
REMARK    2  A    between atoms: O_2  and  C_3
REMARK    3  A    between atoms: C_8  and  C_9
REMARK    4  A    between atoms: C_9  and  N_10
REMARK    5  A    between atoms: N_10  and  S_11
REMARK    6  A    between atoms: S_11  and  C_14
REMARK    7  A    between atoms: C_14  and  C_15
REMARK    8  A    between atoms: C_15  and  N_16
REMARK    9  A    between atoms: N_16  and  C_17
REMARK                            x       y       z     vdW  Elec       q    Type
REMARK                         _______ _______ _______ _____ _____    ______ ____
ROOT
ATOM      1  S   UNL     1       4.758   5.686  16.885  0.00  0.00    +0.000 S 
ATOM      2  O   UNL     1       4.555   4.350  16.364  0.00  0.00    +0.000 OA
ATOM      3  O   UNL     1       5.276   6.745  16.049  0.00  0.00    +0.000 OA
ENDROOT
BRANCH   1   4
ATOM      4  N   UNL     1       3.295   6.225  17.492  0.00  0.00    +0.000 NA
ATOM      5  H   UNL     1       2.446   5.744  17.205  0.00  0.00    +0.000 HD
BRANCH   4   6
ATOM      6  C   UNL     1       3.168   7.688  17.666  0.00  0.00    +0.000 C 
BRANCH   6  12
ATOM      7  C   UNL     1       1.534   9.242  18.900  0.00  0.00    +0.000 A 
ATOM      8  C   UNL     1       0.779   9.519  20.047  0.00  0.00    +0.000 A 
ATOM      9  C   UNL     1       0.691   8.596  21.091  0.00  0.00    +0.000 A 
ATOM     10  C   UNL     1       1.366   7.393  21.005  0.00  0.00    +0.000 A 
ATOM     11  C   UNL     1       2.159   7.121  19.884  0.00  0.00    +0.000 A 
ATOM     12  C   UNL     1       2.258   8.038  18.823  0.00  0.00    +0.000 A 
BRANCH   7  14
ATOM     13  C   UNL     1       2.169  11.390  18.140  0.00  0.00    +0.000 C 
ATOM     14  O   UNL     1       1.612  10.110  17.840  0.00  0.00    +0.000 OA
ENDBRANCH   7  14
ENDBRANCH   6  12
ENDBRANCH   4   6
ENDBRANCH   1   4
BRANCH   1  15
ATOM     15  C   UNL     1       5.802   5.543  18.349  0.00  0.00    +0.000 C 
BRANCH  15  16
ATOM     16  C   UNL     1       5.376   4.275  19.084  0.00  0.00    +0.000 C 
BRANCH  16  17
ATOM     17  N   UNL     1       3.978   4.276  19.546  0.00  0.00    +0.000 NA
ATOM     18  H   UNL     1       3.363   4.542  18.775  0.00  0.00    +0.000 HD
BRANCH  17  19
ATOM     19  C   UNL     1       3.561   2.935  20.026  0.00  0.00    +0.000 C 
ATOM     20  C   UNL     1       2.282   2.941  20.890  0.00  0.00    +0.000 C 
ATOM     21  C   UNL     1       1.050   3.376  20.098  0.00  0.00    +0.000 C 
ATOM     22  C   UNL     1       0.840   2.490  18.874  0.00  0.00    +0.000 C 
ATOM     23  C   UNL     1       2.094   2.401  18.006  0.00  0.00    +0.000 C 
ATOM     24  C   UNL     1       3.326   2.005  18.822  0.00  0.00    +0.000 C 
ENDBRANCH  17  19
ENDBRANCH  16  17
ENDBRANCH  15  16
ENDBRANCH   1  15
TORSDOF 8
ENDMDL
MODEL 8
REMARK VINA RESULT:      -6.2      3.486      6.065
REMARK  Name = 
REMARK  9 active torsions:
REMARK  status: ('A' for Active; 'I' for Inactive)
REMARK    1  A    between atoms: C_1  and  O_2
REMARK    2  A    between atoms: O_2  and  C_3
REMARK    3  A    between atoms: C_8  and  C_9
REMARK    4  A    between atoms: C_9  and  N_10
REMARK    5  A    between atoms: N_10  and  S_11
REMARK    6  A    between atoms: S_11  and  C_14
REMARK    7  A    between atoms: C_14  and  C_15
REMARK    8  A    between atoms: C_15  and  N_16
REMARK    9  A    between atoms: N_16  and  C_17
REMARK                            x       y       z     vdW  Elec       q    Type
REMARK                         _______ _______ _______ _____ _____    ______ ____
ROOT
ATOM      1  S   UNL     1       7.211   5.106  17.510  0.00  0.00    +0.000 S 
ATOM      2  O   UNL     1       8.317   4.346  18.054  0.00  0.00    +0.000 OA
ATOM      3  O   UNL     1       7.426   6.378  16.856  0.00  0.00    +0.000 OA
ENDROOT
BRANCH   1   4
ATOM      4  N   UNL     1       6.414   4.129  16.409  0.00  0.00    +0.000 NA
ATOM      5  H   UNL     1       6.871   3.273  16.103  0.00  0.00    +0.000 HD
BRANCH   4   6
ATOM      6  C   UNL     1       5.624   4.833  15.376  0.00  0.00    +0.000 C 
BRANCH   6  12
ATOM      7  C   UNL     1       7.120   4.672  13.291  0.00  0.00    +0.000 A 
ATOM      8  C   UNL     1       7.296   4.226  11.975  0.00  0.00    +0.000 A 
ATOM      9  C   UNL     1       6.351   3.402  11.361  0.00  0.00    +0.000 A 
ATOM     10  C   UNL     1       5.215   3.027  12.051  0.00  0.00    +0.000 A 
ATOM     11  C   UNL     1       5.003   3.501  13.352  0.00  0.00    +0.000 A 
ATOM     12  C   UNL     1       5.945   4.329  13.986  0.00  0.00    +0.000 A 
BRANCH   7  14
ATOM     13  C   UNL     1       9.106   5.946  13.118  0.00  0.00    +0.000 C 
ATOM     14  O   UNL     1       8.045   5.452  13.937  0.00  0.00    +0.000 OA
ENDBRANCH   7  14
ENDBRANCH   6  12
ENDBRANCH   4   6
ENDBRANCH   1   4
BRANCH   1  15
ATOM     15  C   UNL     1       6.007   5.331  18.833  0.00  0.00    +0.000 C 
BRANCH  15  16
ATOM     16  C   UNL     1       5.111   4.096  18.843  0.00  0.00    +0.000 C 
BRANCH  16  17
ATOM     17  N   UNL     1       3.931   4.204  19.716  0.00  0.00    +0.000 NA
ATOM     18  H   UNL     1       3.166   4.648  19.205  0.00  0.00    +0.000 HD
BRANCH  17  19
ATOM     19  C   UNL     1       3.466   2.870  20.173  0.00  0.00    +0.000 C 
ATOM     20  C   UNL     1       2.143   2.897  20.966  0.00  0.00    +0.000 C 
ATOM     21  C   UNL     1       0.963   3.353  20.111  0.00  0.00    +0.000 C 
ATOM     22  C   UNL     1       0.803   2.470  18.877  0.00  0.00    +0.000 C 
ATOM     23  C   UNL     1       2.100   2.360  18.077  0.00  0.00    +0.000 C 
ATOM     24  C   UNL     1       3.280   1.944  18.957  0.00  0.00    +0.000 C 
ENDBRANCH  17  19
ENDBRANCH  16  17
ENDBRANCH  15  16
ENDBRANCH   1  15
TORSDOF 8
ENDMDL
MODEL 9
REMARK VINA RESULT:      -6.2      2.479      3.844
REMARK  Name = 
REMARK  9 active torsions:
REMARK  status: ('A' for Active; 'I' for Inactive)
REMARK    1  A    between atoms: C_1  and  O_2
REMARK    2  A    between atoms: O_2  and  C_3
REMARK    3  A    between atoms: C_8  and  C_9
REMARK    4  A    between atoms: C_9  and  N_10
REMARK    5  A    between atoms: N_10  and  S_11
REMARK    6  A    between atoms: S_11  and  C_14
REMARK    7  A    between atoms: C_14  and  C_15
REMARK    8  A    between atoms: C_15  and  N_16
REMARK    9  A    between atoms: N_16  and  C_17
REMARK                            x       y       z     vdW  Elec       q    Type
REMARK                         _______ _______ _______ _____ _____    ______ ____
ROOT
ATOM      1  S   UNL     1       2.250   3.906  18.806  0.00  0.00    +0.000 S 
ATOM      2  O   UNL     1       1.032   3.820  19.585  0.00  0.00    +0.000 OA
ATOM      3  O   UNL     1       2.323   3.364  17.468  0.00  0.00    +0.000 OA
ENDROOT
BRANCH   1   4
ATOM      4  N   UNL     1       2.670   5.522  18.693  0.00  0.00    +0.000 NA
ATOM      5  H   UNL     1       3.535   5.764  18.217  0.00  0.00    +0.000 HD
BRANCH   4   6
ATOM      6  C   UNL     1       2.331   6.359  19.864  0.00  0.00    +0.000 C 
BRANCH   6  12
ATOM      7  C   UNL     1       1.265   8.657  20.297  0.00  0.00    +0.000 A 
ATOM      8  C   UNL     1       0.889   9.915  19.808  0.00  0.00    +0.000 A 
ATOM      9  C   UNL     1       1.238  10.320  18.518  0.00  0.00    +0.000 A 
ATOM     10  C   UNL     1       1.956   9.468  17.702  0.00  0.00    +0.000 A 
ATOM     11  C   UNL     1       2.301   8.191  18.161  0.00  0.00    +0.000 A 
ATOM     12  C   UNL     1       1.959   7.768  19.457  0.00  0.00    +0.000 A 
BRANCH   7  14
ATOM     13  C   UNL     1       1.130   9.232  22.588  0.00  0.00    +0.000 C 
ATOM     14  O   UNL     1       0.970   8.242  21.572  0.00  0.00    +0.000 OA
ENDBRANCH   7  14
ENDBRANCH   6  12
ENDBRANCH   4   6
ENDBRANCH   1   4
BRANCH   1  15
ATOM     15  C   UNL     1       3.575   3.187  19.795  0.00  0.00    +0.000 C 
BRANCH  15  16
ATOM     16  C   UNL     1       4.873   3.874  19.378  0.00  0.00    +0.000 C 
BRANCH  16  17
ATOM     17  N   UNL     1       5.174   3.791  17.939  0.00  0.00    +0.000 NA
ATOM     18  H   UNL     1       4.361   4.095  17.401  0.00  0.00    +0.000 HD
BRANCH  17  19
ATOM     19  C   UNL     1       6.321   4.658  17.571  0.00  0.00    +0.000 C 
ATOM     20  C   UNL     1       7.015   4.264  16.250  0.00  0.00    +0.000 C 
ATOM     21  C   UNL     1       6.099   4.440  15.040  0.00  0.00    +0.000 C 
ATOM     22  C   UNL     1       5.585   5.873  14.942  0.00  0.00    +0.000 C 
ATOM     23  C   UNL     1       4.935   6.340  16.243  0.00  0.00    +0.000 C 
ATOM     24  C   UNL     1       5.847   6.118  17.450  0.00  0.00    +0.000 C 
ENDBRANCH  17  19
ENDBRANCH  16  17
ENDBRANCH  15  16
ENDBRANCH   1  15
TORSDOF 8
ENDMDL
