MODEL 1
REMARK VINA RESULT:      -8.5      0.000      0.000
REMARK  Name = 
REMARK  9 active torsions:
REMARK  status: ('A' for Active; 'I' for Inactive)
REMARK    1  A    between atoms: C_1  and  C_2
REMARK    2  A    between atoms: C_2  and  C_3
REMARK    3  A    between atoms: C_3  and  C_4
REMARK    4  A    between atoms: C_4  and  C_5
REMARK    5  A    between atoms: N_10  and  C_11
REMARK    6  A    between atoms: C_11  and  C_12
REMARK    7  A    between atoms: C_12  and  C_13
REMARK    8  A    between atoms: C_15  and  C_16
REMARK    9  A    between atoms: C_21  and  C_22
REMARK                            x       y       z     vdW  Elec       q    Type
REMARK                         _______ _______ _______ _____ _____    ______ ____
ROOT
ATOM      1  C   UNL     1       3.925   6.196  17.490  0.00  0.00    +0.000 C 
ENDROOT
BRANCH   1   2
ATOM      2  C   UNL     1       3.064   6.089  18.730  0.00  0.00    +0.000 A 
ATOM      3  C   UNL     1       2.457   7.233  19.272  0.00  0.00    +0.000 A 
ATOM      4  C   UNL     1       1.664   7.151  20.426  0.00  0.00    +0.000 A 
ATOM      5  C   UNL     1       1.483   5.898  21.037  0.00  0.00    +0.000 A 
ATOM      6  C   UNL     1       2.091   4.743  20.515  0.00  0.00    +0.000 A 
ATOM      7  C   UNL     1       2.875   4.853  19.357  0.00  0.00    +0.000 A 
BRANCH   4   8
ATOM      8  C   UNL     1       1.015   8.382  21.018  0.00  0.00    +0.000 C 
ATOM      9  F   UNL     1      -0.256   8.169  21.458  0.00  0.00    +0.000 F 
ATOM     10  F   UNL     1       1.704   8.875  22.084  0.00  0.00    +0.000 F 
ATOM     11  F   UNL     1       0.932   9.403  20.121  0.00  0.00    +0.000 F 
ENDBRANCH   4   8
BRANCH   6  12
ATOM     12  C   UNL     1       1.924   3.397  21.173  0.00  0.00    +0.000 C 
ATOM     13  F   UNL     1       0.636   2.951  21.187  0.00  0.00    +0.000 F 
ATOM     14  F   UNL     1       2.649   2.421  20.559  0.00  0.00    +0.000 F 
ATOM     15  F   UNL     1       2.331   3.404  22.472  0.00  0.00    +0.000 F 
ENDBRANCH   6  12
ENDBRANCH   1   2
BRANCH   1  16
ATOM     16  C   UNL     1       4.119   4.832  16.809  0.00  0.00    +0.000 C 
BRANCH  16  22
ATOM     17  C   UNL     1       5.702   4.855  14.824  0.00  0.00    +0.000 C 
ATOM     18  C   UNL     1       7.204   5.225  14.877  0.00  0.00    +0.000 C 
ATOM     19  N   UNL     1       7.716   4.742  16.194  0.00  0.00    +0.000 NA
ATOM     20  C   UNL     1       6.632   4.495  16.871  0.00  0.00    +0.000 C 
ATOM     21  N   UNL     1       6.652   4.053  18.139  0.00  0.00    +0.000 N 
ATOM     22  N   UNL     1       5.442   4.642  16.242  0.00  0.00    +0.000 N 
ATOM     23  H   UNL     1       7.599   3.816  18.416  0.00  0.00    +0.000 HD
ATOM     24  H   UNL     1       6.014   3.288  18.305  0.00  0.00    +0.000 HD
BRANCH  17  25
ATOM     25  C   UNL     1       5.500   3.561  14.015  0.00  0.00    +0.000 C 
BRANCH  25  26
ATOM     26  C   UNL     1       6.290   3.530  12.705  0.00  0.00    +0.000 C 
BRANCH  26  28
ATOM     27  C   UNL     1       4.213   3.165  11.330  0.00  0.00    +0.000 C 
ATOM     28  C   UNL     1       5.607   2.650  11.656  0.00  0.00    +0.000 C 
ENDBRANCH  26  28
ENDBRANCH  25  26
ENDBRANCH  17  25
ENDBRANCH  16  22
ENDBRANCH   1  16
TORSDOF 8
ENDMDL
MODEL 2
REMARK VINA RESULT:      -8.1      4.084      7.363
REMARK  Name = 
REMARK  9 active torsions:
REMARK  status: ('A' for Active; 'I' for Inactive)
REMARK    1  A    between atoms: C_1  and  C_2
REMARK    2  A    between atoms: C_2  and  C_3
REMARK    3  A    between atoms: C_3  and  C_4
REMARK    4  A    between atoms: C_4  and  C_5
REMARK    5  A    between atoms: N_10  and  C_11
REMARK    6  A    between atoms: C_11  and  C_12
REMARK    7  A    between atoms: C_12  and  C_13
REMARK    8  A    between atoms: C_15  and  C_16
REMARK    9  A    between atoms: C_21  and  C_22
REMARK                            x       y       z     vdW  Elec       q    Type
REMARK                         _______ _______ _______ _____ _____    ______ ____
ROOT
ATOM      1  C   UNL     1       2.765   3.588  17.295  0.00  0.00    +0.000 C 
ENDROOT
BRANCH   1   2
ATOM      2  C   UNL     1       4.165   3.978  16.872  0.00  0.00    +0.000 A 
ATOM      3  C   UNL     1       5.081   4.467  17.817  0.00  0.00    +0.000 A 
ATOM      4  C   UNL     1       6.378   4.841  17.437  0.00  0.00    +0.000 A 
ATOM      5  C   UNL     1       6.752   4.718  16.088  0.00  0.00    +0.000 A 
ATOM      6  C   UNL     1       5.845   4.242  15.125  0.00  0.00    +0.000 A 
ATOM      7  C   UNL     1       4.555   3.870  15.533  0.00  0.00    +0.000 A 
BRANCH   4   8
ATOM      8  C   UNL     1       7.365   5.374  18.451  0.00  0.00    +0.000 C 
ATOM      9  F   UNL     1       7.878   6.593  18.123  0.00  0.00    +0.000 F 
ATOM     10  F   UNL     1       6.818   5.518  19.688  0.00  0.00    +0.000 F 
ATOM     11  F   UNL     1       8.438   4.550  18.609  0.00  0.00    +0.000 F 
ENDBRANCH   4   8
BRANCH   6  12
ATOM     12  C   UNL     1       6.226   4.127  13.671  0.00  0.00    +0.000 C 
ATOM     13  F   UNL     1       7.180   5.020  13.283  0.00  0.00    +0.000 F 
ATOM     14  F   UNL     1       6.716   2.897  13.353  0.00  0.00    +0.000 F 
ATOM     15  F   UNL     1       5.164   4.333  12.843  0.00  0.00    +0.000 F 
ENDBRANCH   6  12
ENDBRANCH   1   2
BRANCH   1  16
ATOM     16  C   UNL     1       2.765   2.340  18.192  0.00  0.00    +0.000 C 
BRANCH  16  22
ATOM     17  C   UNL     1       1.281   2.956  20.158  0.00  0.00    +0.000 C 
ATOM     18  C   UNL     1       1.480   2.481  21.618  0.00  0.00    +0.000 C 
ATOM     19  N   UNL     1       2.954   2.384  21.837  0.00  0.00    +0.000 NA
ATOM     20  C   UNL     1       3.447   2.435  20.634  0.00  0.00    +0.000 C 
ATOM     21  N   UNL     1       4.763   2.357  20.383  0.00  0.00    +0.000 N 
ATOM     22  N   UNL     1       2.589   2.631  19.604  0.00  0.00    +0.000 N 
ATOM     23  H   UNL     1       5.291   2.398  21.249  0.00  0.00    +0.000 HD
ATOM     24  H   UNL     1       5.084   3.047  19.719  0.00  0.00    +0.000 HD
BRANCH  17  25
ATOM     25  C   UNL     1       1.017   4.473  20.123  0.00  0.00    +0.000 C 
BRANCH  25  26
ATOM     26  C   UNL     1       2.187   5.309  20.643  0.00  0.00    +0.000 C 
BRANCH  26  28
ATOM     27  C   UNL     1       1.841   7.766  20.216  0.00  0.00    +0.000 C 
ATOM     28  C   UNL     1       2.495   6.486  19.716  0.00  0.00    +0.000 C 
ENDBRANCH  26  28
ENDBRANCH  25  26
ENDBRANCH  17  25
ENDBRANCH  16  22
ENDBRANCH   1  16
TORSDOF 8
ENDMDL
MODEL 3
REMARK VINA RESULT:      -8.1      0.904      1.782
REMARK  Name = 
REMARK  9 active torsions:
REMARK  status: ('A' for Active; 'I' for Inactive)
REMARK    1  A    between atoms: C_1  and  C_2
REMARK    2  A    between atoms: C_2  and  C_3
REMARK    3  A    between atoms: C_3  and  C_4
REMARK    4  A    between atoms: C_4  and  C_5
REMARK    5  A    between atoms: N_10  and  C_11
REMARK    6  A    between atoms: C_11  and  C_12
REMARK    7  A    between atoms: C_12  and  C_13
REMARK    8  A    between atoms: C_15  and  C_16
REMARK    9  A    between atoms: C_21  and  C_22
REMARK                            x       y       z     vdW  Elec       q    Type
REMARK                         _______ _______ _______ _____ _____    ______ ____
ROOT
ATOM      1  C   UNL     1       3.587   6.393  17.392  0.00  0.00    +0.000 C 
ENDROOT
BRANCH   1   2
ATOM      2  C   UNL     1       2.797   6.236  18.673  0.00  0.00    +0.000 A 
ATOM      3  C   UNL     1       2.266   7.363  19.321  0.00  0.00    +0.000 A 
ATOM      4  C   UNL     1       1.540   7.233  20.514  0.00  0.00    +0.000 A 
ATOM      5  C   UNL     1       1.349   5.951  21.056  0.00  0.00    +0.000 A 
ATOM      6  C   UNL     1       1.883   4.812  20.428  0.00  0.00    +0.000 A 
ATOM      7  C   UNL     1       2.601   4.970  19.233  0.00  0.00    +0.000 A 
BRANCH   4   8
ATOM      8  C   UNL     1       0.973   8.445  21.218  0.00  0.00    +0.000 C 
ATOM      9  F   UNL     1       1.027   9.584  20.473  0.00  0.00    +0.000 F 
ATOM     10  F   UNL     1      -0.335   8.284  21.563  0.00  0.00    +0.000 F 
ATOM     11  F   UNL     1       1.633   8.726  22.375  0.00  0.00    +0.000 F 
ENDBRANCH   4   8
BRANCH   6  12
ATOM     12  C   UNL     1       1.705   3.433  21.011  0.00  0.00    +0.000 C 
ATOM     13  F   UNL     1       2.032   3.351  22.331  0.00  0.00    +0.000 F 
ATOM     14  F   UNL     1       0.423   2.986  20.916  0.00  0.00    +0.000 F 
ATOM     15  F   UNL     1       2.474   2.503  20.378  0.00  0.00    +0.000 F 
ENDBRANCH   6  12
ENDBRANCH   1   2
BRANCH   1  16
ATOM     16  C   UNL     1       4.290   5.087  16.989  0.00  0.00    +0.000 C 
BRANCH  16  22
ATOM     17  C   UNL     1       6.721   5.745  16.670  0.00  0.00    +0.000 C 
ATOM     18  C   UNL     1       7.757   5.937  17.805  0.00  0.00    +0.000 C 
ATOM     19  N   UNL     1       7.418   4.941  18.864  0.00  0.00    +0.000 NA
ATOM     20  C   UNL     1       6.222   4.543  18.539  0.00  0.00    +0.000 C 
ATOM     21  N   UNL     1       5.534   3.644  19.261  0.00  0.00    +0.000 N 
ATOM     22  N   UNL     1       5.684   5.021  17.392  0.00  0.00    +0.000 N 
ATOM     23  H   UNL     1       6.125   3.239  19.979  0.00  0.00    +0.000 HD
ATOM     24  H   UNL     1       5.095   2.931  18.696  0.00  0.00    +0.000 HD
BRANCH  17  25
ATOM     25  C   UNL     1       7.323   4.887  15.541  0.00  0.00    +0.000 C 
BRANCH  25  26
ATOM     26  C   UNL     1       6.634   5.087  14.190  0.00  0.00    +0.000 C 
BRANCH  26  28
ATOM     27  C   UNL     1       6.274   3.450  12.312  0.00  0.00    +0.000 C 
ATOM     28  C   UNL     1       5.901   3.821  13.739  0.00  0.00    +0.000 C 
ENDBRANCH  26  28
ENDBRANCH  25  26
ENDBRANCH  17  25
ENDBRANCH  16  22
ENDBRANCH   1  16
TORSDOF 8
ENDMDL
MODEL 4
REMARK VINA RESULT:      -8.1      2.138      5.077
REMARK  Name = 
REMARK  9 active torsions:
REMARK  status: ('A' for Active; 'I' for Inactive)
REMARK    1  A    between atoms: C_1  and  C_2
REMARK    2  A    between atoms: C_2  and  C_3
REMARK    3  A    between atoms: C_3  and  C_4
REMARK    4  A    between atoms: C_4  and  C_5
REMARK    5  A    between atoms: N_10  and  C_11
REMARK    6  A    between atoms: C_11  and  C_12
REMARK    7  A    between atoms: C_12  and  C_13
REMARK    8  A    between atoms: C_15  and  C_16
REMARK    9  A    between atoms: C_21  and  C_22
REMARK                            x       y       z     vdW  Elec       q    Type
REMARK                         _______ _______ _______ _____ _____    ______ ____
ROOT
ATOM      1  C   UNL     1       3.805   5.887  17.086  0.00  0.00    +0.000 C 
ENDROOT
BRANCH   1   2
ATOM      2  C   UNL     1       3.091   5.759  18.414  0.00  0.00    +0.000 A 
ATOM      3  C   UNL     1       2.975   4.507  19.039  0.00  0.00    +0.000 A 
ATOM      4  C   UNL     1       2.308   4.372  20.265  0.00  0.00    +0.000 A 
ATOM      5  C   UNL     1       1.755   5.515  20.866  0.00  0.00    +0.000 A 
ATOM      6  C   UNL     1       1.852   6.776  20.251  0.00  0.00    +0.000 A 
ATOM      7  C   UNL     1       2.529   6.883  19.027  0.00  0.00    +0.000 A 
BRANCH   4   8
ATOM      8  C   UNL     1       2.174   3.024  20.937  0.00  0.00    +0.000 C 
ATOM      9  F   UNL     1       3.369   2.438  21.228  0.00  0.00    +0.000 F 
ATOM     10  F   UNL     1       1.493   3.092  22.114  0.00  0.00    +0.000 F 
ATOM     11  F   UNL     1       1.498   2.128  20.166  0.00  0.00    +0.000 F 
ENDBRANCH   4   8
BRANCH   6  12
ATOM     12  C   UNL     1       1.243   8.007  20.873  0.00  0.00    +0.000 C 
ATOM     13  F   UNL     1      -0.004   7.802  21.385  0.00  0.00    +0.000 F 
ATOM     14  F   UNL     1       1.990   8.498  21.901  0.00  0.00    +0.000 F 
ATOM     15  F   UNL     1       1.117   9.027  19.980  0.00  0.00    +0.000 F 
ENDBRANCH   6  12
ENDBRANCH   1   2
BRANCH   1  16
ATOM     16  C   UNL     1       5.027   6.814  17.180  0.00  0.00    +0.000 C 
BRANCH  16  22
ATOM     17  C   UNL     1       7.090   5.967  18.393  0.00  0.00    +0.000 C 
ATOM     18  C   UNL     1       7.854   4.660  18.065  0.00  0.00    +0.000 C 
ATOM     19  N   UNL     1       7.769   4.479  16.585  0.00  0.00    +0.000 NA
ATOM     20  C   UNL     1       6.837   5.312  16.227  0.00  0.00    +0.000 C 
ATOM     21  N   UNL     1       6.432   5.447  14.954  0.00  0.00    +0.000 N 
ATOM     22  N   UNL     1       6.299   6.111  17.179  0.00  0.00    +0.000 N 
ATOM     23  H   UNL     1       7.041   4.927  14.332  0.00  0.00    +0.000 HD
ATOM     24  H   UNL     1       6.339   6.410  14.665  0.00  0.00    +0.000 HD
BRANCH  17  25
ATOM     25  C   UNL     1       8.080   7.134  18.561  0.00  0.00    +0.000 C 
BRANCH  25  26
ATOM     26  C   UNL     1       7.992   8.175  17.445  0.00  0.00    +0.000 C 
BRANCH  26  28
ATOM     27  C   UNL     1       9.087   9.688  19.134  0.00  0.00    +0.000 C 
ATOM     28  C   UNL     1       8.082   9.601  17.995  0.00  0.00    +0.000 C 
ENDBRANCH  26  28
ENDBRANCH  25  26
ENDBRANCH  17  25
ENDBRANCH  16  22
ENDBRANCH   1  16
TORSDOF 8
ENDMDL
MODEL 5
REMARK VINA RESULT:      -8.0      0.548      3.509
REMARK  Name = 
REMARK  9 active torsions:
REMARK  status: ('A' for Active; 'I' for Inactive)
REMARK    1  A    between atoms: C_1  and  C_2
REMARK    2  A    between atoms: C_2  and  C_3
REMARK    3  A    between atoms: C_3  and  C_4
REMARK    4  A    between atoms: C_4  and  C_5
REMARK    5  A    between atoms: N_10  and  C_11
REMARK    6  A    between atoms: C_11  and  C_12
REMARK    7  A    between atoms: C_12  and  C_13
REMARK    8  A    between atoms: C_15  and  C_16
REMARK    9  A    between atoms: C_21  and  C_22
REMARK                            x       y       z     vdW  Elec       q    Type
REMARK                         _______ _______ _______ _____ _____    ______ ____
ROOT
ATOM      1  C   UNL     1       4.103   6.244  17.618  0.00  0.00    +0.000 C 
ENDROOT
BRANCH   1   2
ATOM      2  C   UNL     1       3.122   6.041  18.753  0.00  0.00    +0.000 A 
ATOM      3  C   UNL     1       2.755   4.745  19.148  0.00  0.00    +0.000 A 
ATOM      4  C   UNL     1       1.840   4.542  20.192  0.00  0.00    +0.000 A 
ATOM      5  C   UNL     1       1.293   5.661  20.842  0.00  0.00    +0.000 A 
ATOM      6  C   UNL     1       1.641   6.966  20.453  0.00  0.00    +0.000 A 
ATOM      7  C   UNL     1       2.562   7.141  19.409  0.00  0.00    +0.000 A 
BRANCH   4   8
ATOM      8  C   UNL     1       1.436   3.148  20.616  0.00  0.00    +0.000 C 
ATOM      9  F   UNL     1       0.317   2.690  19.989  0.00  0.00    +0.000 F 
ATOM     10  F   UNL     1       2.406   2.225  20.371  0.00  0.00    +0.000 F 
ATOM     11  F   UNL     1       1.173   3.070  21.950  0.00  0.00    +0.000 F 
ENDBRANCH   4   8
BRANCH   6  12
ATOM     12  C   UNL     1       1.044   8.176  21.127  0.00  0.00    +0.000 C 
ATOM     13  F   UNL     1       1.666   8.517  22.290  0.00  0.00    +0.000 F 
ATOM     14  F   UNL     1       1.090   9.288  20.341  0.00  0.00    +0.000 F 
ATOM     15  F   UNL     1      -0.268   7.995  21.444  0.00  0.00    +0.000 F 
ENDBRANCH   6  12
ENDBRANCH   1   2
BRANCH   1  16
ATOM     16  C   UNL     1       4.183   5.013  16.703  0.00  0.00    +0.000 C 
BRANCH  16  22
ATOM     17  C   UNL     1       5.933   4.856  14.869  0.00  0.00    +0.000 C 
ATOM     18  C   UNL     1       7.452   5.095  15.053  0.00  0.00    +0.000 C 
ATOM     19  N   UNL     1       7.799   4.597  16.418  0.00  0.00    +0.000 NA
ATOM     20  C   UNL     1       6.642   4.460  16.997  0.00  0.00    +0.000 C 
ATOM     21  N   UNL     1       6.510   4.044  18.267  0.00  0.00    +0.000 N 
ATOM     22  N   UNL     1       5.530   4.696  16.260  0.00  0.00    +0.000 N 
ATOM     23  H   UNL     1       7.403   3.731  18.631  0.00  0.00    +0.000 HD
ATOM     24  H   UNL     1       5.793   3.341  18.383  0.00  0.00    +0.000 HD
BRANCH  17  25
ATOM     25  C   UNL     1       5.690   3.568  14.062  0.00  0.00    +0.000 C 
BRANCH  25  26
ATOM     26  C   UNL     1       5.323   3.825  12.599  0.00  0.00    +0.000 C 
BRANCH  26  28
ATOM     27  C   UNL     1       6.909   2.280  11.400  0.00  0.00    +0.000 C 
ATOM     28  C   UNL     1       5.455   2.556  11.754  0.00  0.00    +0.000 C 
ENDBRANCH  26  28
ENDBRANCH  25  26
ENDBRANCH  17  25
ENDBRANCH  16  22
ENDBRANCH   1  16
TORSDOF 8
ENDMDL
MODEL 6
REMARK VINA RESULT:      -8.0      0.469      1.021
REMARK  Name = 
REMARK  9 active torsions:
REMARK  status: ('A' for Active; 'I' for Inactive)
REMARK    1  A    between atoms: C_1  and  C_2
REMARK    2  A    between atoms: C_2  and  C_3
REMARK    3  A    between atoms: C_3  and  C_4
REMARK    4  A    between atoms: C_4  and  C_5
REMARK    5  A    between atoms: N_10  and  C_11
REMARK    6  A    between atoms: C_11  and  C_12
REMARK    7  A    between atoms: C_12  and  C_13
REMARK    8  A    between atoms: C_15  and  C_16
REMARK    9  A    between atoms: C_21  and  C_22
REMARK                            x       y       z     vdW  Elec       q    Type
REMARK                         _______ _______ _______ _____ _____    ______ ____
ROOT
ATOM      1  C   UNL     1       4.298   6.248  17.652  0.00  0.00    +0.000 C 
ENDROOT
BRANCH   1   2
ATOM      2  C   UNL     1       3.306   6.097  18.785  0.00  0.00    +0.000 A 
ATOM      3  C   UNL     1       2.720   7.231  19.370  0.00  0.00    +0.000 A 
ATOM      4  C   UNL     1       1.807   7.106  20.427  0.00  0.00    +0.000 A 
ATOM      5  C   UNL     1       1.482   5.821  20.895  0.00  0.00    +0.000 A 
ATOM      6  C   UNL     1       2.066   4.675  20.329  0.00  0.00    +0.000 A 
ATOM      7  C   UNL     1       2.973   4.828  19.270  0.00  0.00    +0.000 A 
BRANCH   4   8
ATOM      8  C   UNL     1       1.179   8.325  21.065  0.00  0.00    +0.000 C 
ATOM      9  F   UNL     1       1.899   8.827  22.107  0.00  0.00    +0.000 F 
ATOM     10  F   UNL     1       1.024   9.353  20.186  0.00  0.00    +0.000 F 
ATOM     11  F   UNL     1      -0.063   8.066  21.561  0.00  0.00    +0.000 F 
ENDBRANCH   4   8
BRANCH   6  12
ATOM     12  C   UNL     1       1.744   3.292  20.837  0.00  0.00    +0.000 C 
ATOM     13  F   UNL     1       0.513   2.844  20.460  0.00  0.00    +0.000 F 
ATOM     14  F   UNL     1       2.631   2.355  20.400  0.00  0.00    +0.000 F 
ATOM     15  F   UNL     1       1.766   3.224  22.196  0.00  0.00    +0.000 F 
ENDBRANCH   6  12
ENDBRANCH   1   2
BRANCH   1  16
ATOM     16  C   UNL     1       4.320   5.011  16.741  0.00  0.00    +0.000 C 
BRANCH  16  22
ATOM     17  C   UNL     1       5.888   4.919  14.747  0.00  0.00    +0.000 C 
ATOM     18  C   UNL     1       7.413   5.182  14.790  0.00  0.00    +0.000 C 
ATOM     19  N   UNL     1       7.897   4.667  16.105  0.00  0.00    +0.000 NA
ATOM     20  C   UNL     1       6.804   4.498  16.789  0.00  0.00    +0.000 C 
ATOM     21  N   UNL     1       6.800   4.058  18.058  0.00  0.00    +0.000 N 
ATOM     22  N   UNL     1       5.623   4.727  16.166  0.00  0.00    +0.000 N 
ATOM     23  H   UNL     1       7.729   3.755  18.330  0.00  0.00    +0.000 HD
ATOM     24  H   UNL     1       6.110   3.340  18.229  0.00  0.00    +0.000 HD
BRANCH  17  25
ATOM     25  C   UNL     1       5.591   3.640  13.942  0.00  0.00    +0.000 C 
BRANCH  25  26
ATOM     26  C   UNL     1       6.046   3.718  12.484  0.00  0.00    +0.000 C 
BRANCH  26  28
ATOM     27  C   UNL     1       7.130   1.853  11.184  0.00  0.00    +0.000 C 
ATOM     28  C   UNL     1       5.825   2.391  11.753  0.00  0.00    +0.000 C 
ENDBRANCH  26  28
ENDBRANCH  25  26
ENDBRANCH  17  25
ENDBRANCH  16  22
ENDBRANCH   1  16
TORSDOF 8
ENDMDL
MODEL 7
REMARK VINA RESULT:      -8.0      4.081      7.453
REMARK  Name = 
REMARK  9 active torsions:
REMARK  status: ('A' for Active; 'I' for Inactive)
REMARK    1  A    between atoms: C_1  and  C_2
REMARK    2  A    between atoms: C_2  and  C_3
REMARK    3  A    between atoms: C_3  and  C_4
REMARK    4  A    between atoms: C_4  and  C_5
REMARK    5  A    between atoms: N_10  and  C_11
REMARK    6  A    between atoms: C_11  and  C_12
REMARK    7  A    between atoms: C_12  and  C_13
REMARK    8  A    between atoms: C_15  and  C_16
REMARK    9  A    between atoms: C_21  and  C_22
REMARK                            x       y       z     vdW  Elec       q    Type
REMARK                         _______ _______ _______ _____ _____    ______ ____
ROOT
ATOM      1  C   UNL     1       2.785   3.427  17.185  0.00  0.00    +0.000 C 
ENDROOT
BRANCH   1   2
ATOM      2  C   UNL     1       4.155   3.930  16.786  0.00  0.00    +0.000 A 
ATOM      3  C   UNL     1       4.584   3.835  15.452  0.00  0.00    +0.000 A 
ATOM      4  C   UNL     1       5.856   4.288  15.070  0.00  0.00    +0.000 A 
ATOM      5  C   UNL     1       6.700   4.843  16.046  0.00  0.00    +0.000 A 
ATOM      6  C   UNL     1       6.292   4.937  17.388  0.00  0.00    +0.000 A 
ATOM      7  C   UNL     1       5.014   4.481  17.743  0.00  0.00    +0.000 A 
BRANCH   4   8
ATOM      8  C   UNL     1       6.324   4.181  13.636  0.00  0.00    +0.000 C 
ATOM      9  F   UNL     1       7.198   5.161  13.274  0.00  0.00    +0.000 F 
ATOM     10  F   UNL     1       6.955   3.002  13.379  0.00  0.00    +0.000 F 
ATOM     11  F   UNL     1       5.293   4.254  12.750  0.00  0.00    +0.000 F 
ENDBRANCH   4   8
BRANCH   6  12
ATOM     12  C   UNL     1       7.197   5.509  18.450  0.00  0.00    +0.000 C 
ATOM     13  F   UNL     1       7.675   6.750  18.151  0.00  0.00    +0.000 F 
ATOM     14  F   UNL     1       6.576   5.630  19.656  0.00  0.00    +0.000 F 
ATOM     15  F   UNL     1       8.292   4.731  18.669  0.00  0.00    +0.000 F 
ENDBRANCH   6  12
ENDBRANCH   1   2
BRANCH   1  16
ATOM     16  C   UNL     1       2.871   2.206  18.113  0.00  0.00    +0.000 C 
BRANCH  16  22
ATOM     17  C   UNL     1       1.434   2.858  20.102  0.00  0.00    +0.000 C 
ATOM     18  C   UNL     1       1.672   2.415  21.567  0.00  0.00    +0.000 C 
ATOM     19  N   UNL     1       3.151   2.330  21.750  0.00  0.00    +0.000 NA
ATOM     20  C   UNL     1       3.613   2.357  20.534  0.00  0.00    +0.000 C 
ATOM     21  N   UNL     1       4.923   2.279  20.252  0.00  0.00    +0.000 N 
ATOM     22  N   UNL     1       2.729   2.527  19.523  0.00  0.00    +0.000 N 
ATOM     23  H   UNL     1       5.473   2.341  21.103  0.00  0.00    +0.000 HD
ATOM     24  H   UNL     1       5.224   2.956  19.565  0.00  0.00    +0.000 HD
BRANCH  17  25
ATOM     25  C   UNL     1       1.161   4.372  20.041  0.00  0.00    +0.000 C 
BRANCH  25  26
ATOM     26  C   UNL     1       2.311   5.222  20.584  0.00  0.00    +0.000 C 
BRANCH  26  28
ATOM     27  C   UNL     1       1.859   7.676  20.247  0.00  0.00    +0.000 C 
ATOM     28  C   UNL     1       2.572   6.446  19.704  0.00  0.00    +0.000 C 
ENDBRANCH  26  28
ENDBRANCH  25  26
ENDBRANCH  17  25
ENDBRANCH  16  22
ENDBRANCH   1  16
TORSDOF 8
ENDMDL
MODEL 8
REMARK VINA RESULT:      -8.0      2.184      5.116
REMARK  Name = 
REMARK  9 active torsions:
REMARK  status: ('A' for Active; 'I' for Inactive)
REMARK    1  A    between atoms: C_1  and  C_2
REMARK    2  A    between atoms: C_2  and  C_3
REMARK    3  A    between atoms: C_3  and  C_4
REMARK    4  A    between atoms: C_4  and  C_5
REMARK    5  A    between atoms: N_10  and  C_11
REMARK    6  A    between atoms: C_11  and  C_12
REMARK    7  A    between atoms: C_12  and  C_13
REMARK    8  A    between atoms: C_15  and  C_16
REMARK    9  A    between atoms: C_21  and  C_22
REMARK                            x       y       z     vdW  Elec       q    Type
REMARK                         _______ _______ _______ _____ _____    ______ ____
ROOT
ATOM      1  C   UNL     1       3.808   6.419  17.126  0.00  0.00    +0.000 C 
ENDROOT
BRANCH   1   2
ATOM      2  C   UNL     1       3.061   6.234  18.429  0.00  0.00    +0.000 A 
ATOM      3  C   UNL     1       2.923   4.955  18.992  0.00  0.00    +0.000 A 
ATOM      4  C   UNL     1       2.225   4.768  20.194  0.00  0.00    +0.000 A 
ATOM      5  C   UNL     1       1.663   5.886  20.833  0.00  0.00    +0.000 A 
ATOM      6  C   UNL     1       1.782   7.172  20.280  0.00  0.00    +0.000 A 
ATOM      7  C   UNL     1       2.489   7.332  19.079  0.00  0.00    +0.000 A 
BRANCH   4   8
ATOM      8  C   UNL     1       2.068   3.391  20.799  0.00  0.00    +0.000 C 
ATOM      9  F   UNL     1       0.813   2.878  20.668  0.00  0.00    +0.000 F 
ATOM     10  F   UNL     1       2.907   2.476  20.242  0.00  0.00    +0.000 F 
ATOM     11  F   UNL     1       2.336   3.381  22.134  0.00  0.00    +0.000 F 
ENDBRANCH   4   8
BRANCH   6  12
ATOM     12  C   UNL     1       1.164   8.377  20.943  0.00  0.00    +0.000 C 
ATOM     13  F   UNL     1       1.088   9.470  20.132  0.00  0.00    +0.000 F 
ATOM     14  F   UNL     1      -0.107   8.144  21.373  0.00  0.00    +0.000 F 
ATOM     15  F   UNL     1       1.863   8.777  22.042  0.00  0.00    +0.000 F 
ENDBRANCH   6  12
ENDBRANCH   1   2
BRANCH   1  16
ATOM     16  C   UNL     1       5.139   7.160  17.329  0.00  0.00    +0.000 C 
BRANCH  16  22
ATOM     17  C   UNL     1       7.096   5.941  18.393  0.00  0.00    +0.000 C 
ATOM     18  C   UNL     1       7.679   4.588  17.916  0.00  0.00    +0.000 C 
ATOM     19  N   UNL     1       7.546   4.568  16.429  0.00  0.00    +0.000 NA
ATOM     20  C   UNL     1       6.723   5.544  16.181  0.00  0.00    +0.000 C 
ATOM     21  N   UNL     1       6.317   5.856  14.940  0.00  0.00    +0.000 N 
ATOM     22  N   UNL     1       6.309   6.306  17.222  0.00  0.00    +0.000 N 
ATOM     23  H   UNL     1       6.844   5.328  14.253  0.00  0.00    +0.000 HD
ATOM     24  H   UNL     1       6.345   6.848  14.749  0.00  0.00    +0.000 HD
BRANCH  17  25
ATOM     25  C   UNL     1       8.231   6.951  18.644  0.00  0.00    +0.000 C 
BRANCH  25  26
ATOM     26  C   UNL     1       7.991   8.313  17.992  0.00  0.00    +0.000 C 
BRANCH  26  28
ATOM     27  C   UNL     1       8.825  10.686  17.867  0.00  0.00    +0.000 C 
ATOM     28  C   UNL     1       8.749   9.427  18.718  0.00  0.00    +0.000 C 
ENDBRANCH  26  28
ENDBRANCH  25  26
ENDBRANCH  17  25
ENDBRANCH  16  22
ENDBRANCH   1  16
TORSDOF 8
ENDMDL
MODEL 9
REMARK VINA RESULT:      -7.9      0.740      1.075
REMARK  Name = 
REMARK  9 active torsions:
REMARK  status: ('A' for Active; 'I' for Inactive)
REMARK    1  A    between atoms: C_1  and  C_2
REMARK    2  A    between atoms: C_2  and  C_3
REMARK    3  A    between atoms: C_3  and  C_4
REMARK    4  A    between atoms: C_4  and  C_5
REMARK    5  A    between atoms: N_10  and  C_11
REMARK    6  A    between atoms: C_11  and  C_12
REMARK    7  A    between atoms: C_12  and  C_13
REMARK    8  A    between atoms: C_15  and  C_16
REMARK    9  A    between atoms: C_21  and  C_22
REMARK                            x       y       z     vdW  Elec       q    Type
REMARK                         _______ _______ _______ _____ _____    ______ ____
ROOT
ATOM      1  C   UNL     1       3.723   6.462  17.250  0.00  0.00    +0.000 C 
ENDROOT
BRANCH   1   2
ATOM      2  C   UNL     1       2.934   6.223  18.520  0.00  0.00    +0.000 A 
ATOM      3  C   UNL     1       2.352   7.300  19.206  0.00  0.00    +0.000 A 
ATOM      4  C   UNL     1       1.627   7.094  20.389  0.00  0.00    +0.000 A 
ATOM      5  C   UNL     1       1.489   5.785  20.880  0.00  0.00    +0.000 A 
ATOM      6  C   UNL     1       2.073   4.694  20.213  0.00  0.00    +0.000 A 
ATOM      7  C   UNL     1       2.790   4.928  19.029  0.00  0.00    +0.000 A 
BRANCH   4   8
ATOM      8  C   UNL     1       1.004   8.252  21.135  0.00  0.00    +0.000 C 
ATOM      9  F   UNL     1      -0.265   8.005  21.564  0.00  0.00    +0.000 F 
ATOM     10  F   UNL     1       1.713   8.601  22.244  0.00  0.00    +0.000 F 
ATOM     11  F   UNL     1       0.927   9.377  20.371  0.00  0.00    +0.000 F 
ENDBRANCH   4   8
BRANCH   6  12
ATOM     12  C   UNL     1       1.953   3.288  20.742  0.00  0.00    +0.000 C 
ATOM     13  F   UNL     1       2.115   2.329  19.787  0.00  0.00    +0.000 F 
ATOM     14  F   UNL     1       2.873   3.011  21.707  0.00  0.00    +0.000 F 
ATOM     15  F   UNL     1       0.736   3.051  21.305  0.00  0.00    +0.000 F 
ENDBRANCH   6  12
ENDBRANCH   1   2
BRANCH   1  16
ATOM     16  C   UNL     1       5.222   6.647  17.533  0.00  0.00    +0.000 C 
BRANCH  16  22
ATOM     17  C   UNL     1       6.351   5.667  15.481  0.00  0.00    +0.000 C 
ATOM     18  C   UNL     1       7.722   4.948  15.467  0.00  0.00    +0.000 C 
ATOM     19  N   UNL     1       7.831   4.214  16.762  0.00  0.00    +0.000 NA
ATOM     20  C   UNL     1       6.881   4.728  17.487  0.00  0.00    +0.000 C 
ATOM     21  N   UNL     1       6.648   4.351  18.754  0.00  0.00    +0.000 N 
ATOM     22  N   UNL     1       6.066   5.642  16.909  0.00  0.00    +0.000 N 
ATOM     23  H   UNL     1       7.208   3.539  18.991  0.00  0.00    +0.000 HD
ATOM     24  H   UNL     1       5.669   4.196  18.950  0.00  0.00    +0.000 HD
BRANCH  17  25
ATOM     25  C   UNL     1       5.315   4.853  14.686  0.00  0.00    +0.000 C 
BRANCH  25  26
ATOM     26  C   UNL     1       5.938   3.789  13.781  0.00  0.00    +0.000 C 
BRANCH  26  28
ATOM     27  C   UNL     1       5.713   2.479  11.642  0.00  0.00    +0.000 C 
ATOM     28  C   UNL     1       5.088   3.543  12.532  0.00  0.00    +0.000 C 
ENDBRANCH  26  28
ENDBRANCH  25  26
ENDBRANCH  17  25
ENDBRANCH  16  22
ENDBRANCH   1  16
TORSDOF 8
ENDMDL
