MODEL 1
REMARK VINA RESULT:      -5.5      0.000      0.000
REMARK  Name = 
REMARK  3 active torsions:
REMARK  status: ('A' for Active; 'I' for Inactive)
REMARK    1  A    between atoms: C_1  and  N_2
REMARK    2  A    between atoms: N_2  and  C_3
REMARK    3  A    between atoms: N_2  and  N_4
REMARK                            x       y       z     vdW  Elec       q    Type
REMARK                         _______ _______ _______ _____ _____    ______ ____
ROOT
ATOM      1  N   UNL     1       4.900   3.635  16.666  0.00  0.00    +0.000 NA
ATOM      2  C   UNL     1       4.132   4.326  17.439  0.00  0.00    +0.000 C 
ATOM      3  C   UNL     1       3.096   3.555  18.212  0.00  0.00    +0.000 C 
ATOM      4 CL   UNL     1       2.901   1.872  18.122  0.00  0.00    +0.000 Cl
ATOM      5  C   UNL     1       2.402   4.428  18.939  0.00  0.00    +0.000 C 
ATOM      6 CL   UNL     1       1.111   4.056  19.988  0.00  0.00    +0.000 Cl
ATOM      7  C   UNL     1       2.899   5.749  18.717  0.00  0.00    +0.000 C 
ATOM      8 CL   UNL     1       2.242   7.127  19.493  0.00  0.00    +0.000 Cl
ATOM      9  C   UNL     1       3.914   5.753  17.850  0.00  0.00    +0.000 C 
ATOM     10 CL   UNL     1       4.735   7.153  17.375  0.00  0.00    +0.000 Cl
ENDROOT
BRANCH   1  12
ATOM     11  C   UNL     1       7.121   4.492  16.505  0.00  0.00    +0.000 C 
ATOM     12  N   UNL     1       5.896   4.025  15.859  0.00  0.00    +0.000 N 
ATOM     13  C   UNL     1       5.949   4.063  14.418  0.00  0.00    +0.000 C 
ENDBRANCH   1  12
TORSDOF 1
ENDMDL
MODEL 2
REMARK VINA RESULT:      -5.5      2.061      2.514
REMARK  Name = 
REMARK  3 active torsions:
REMARK  status: ('A' for Active; 'I' for Inactive)
REMARK    1  A    between atoms: C_1  and  N_2
REMARK    2  A    between atoms: N_2  and  C_3
REMARK    3  A    between atoms: N_2  and  N_4
REMARK                            x       y       z     vdW  Elec       q    Type
REMARK                         _______ _______ _______ _____ _____    ______ ____
ROOT
ATOM      1  N   UNL     1       6.167   4.115  18.967  0.00  0.00    +0.000 NA
ATOM      2  C   UNL     1       4.896   4.101  18.744  0.00  0.00    +0.000 C 
ATOM      3  C   UNL     1       4.107   3.032  19.451  0.00  0.00    +0.000 C 
ATOM      4 CL   UNL     1       4.788   1.885  20.500  0.00  0.00    +0.000 Cl
ATOM      5  C   UNL     1       2.832   3.170  19.095  0.00  0.00    +0.000 C 
ATOM      6 CL   UNL     1       1.533   2.200  19.622  0.00  0.00    +0.000 Cl
ATOM      7  C   UNL     1       2.695   4.268  18.191  0.00  0.00    +0.000 C 
ATOM      8 CL   UNL     1       1.188   4.740  17.528  0.00  0.00    +0.000 Cl
ATOM      9  C   UNL     1       3.870   4.855  17.950  0.00  0.00    +0.000 C 
ATOM     10 CL   UNL     1       4.058   6.191  16.931  0.00  0.00    +0.000 Cl
ENDROOT
BRANCH   1  12
ATOM     11  C   UNL     1       7.523   4.720  17.100  0.00  0.00    +0.000 C 
ATOM     12  N   UNL     1       7.123   4.924  18.491  0.00  0.00    +0.000 N 
ATOM     13  C   UNL     1       7.842   5.985  19.152  0.00  0.00    +0.000 C 
ENDBRANCH   1  12
TORSDOF 1
ENDMDL
MODEL 3
REMARK VINA RESULT:      -5.5      2.484      5.135
REMARK  Name = 
REMARK  3 active torsions:
REMARK  status: ('A' for Active; 'I' for Inactive)
REMARK    1  A    between atoms: C_1  and  N_2
REMARK    2  A    between atoms: N_2  and  C_3
REMARK    3  A    between atoms: N_2  and  N_4
REMARK                            x       y       z     vdW  Elec       q    Type
REMARK                         _______ _______ _______ _____ _____    ______ ____
ROOT
ATOM      1  N   UNL     1       1.996   4.428  19.309  0.00  0.00    +0.000 NA
ATOM      2  C   UNL     1       2.942   4.430  18.432  0.00  0.00    +0.000 C 
ATOM      3  C   UNL     1       3.384   5.779  17.930  0.00  0.00    +0.000 C 
ATOM      4 CL   UNL     1       2.721   7.251  18.454  0.00  0.00    +0.000 Cl
ATOM      5  C   UNL     1       4.349   5.581  17.036  0.00  0.00    +0.000 C 
ATOM      6 CL   UNL     1       5.182   6.793  16.174  0.00  0.00    +0.000 Cl
ATOM      7  C   UNL     1       4.601   4.181  16.894  0.00  0.00    +0.000 C 
ATOM      8 CL   UNL     1       5.786   3.557  15.827  0.00  0.00    +0.000 Cl
ATOM      9  C   UNL     1       3.809   3.457  17.688  0.00  0.00    +0.000 C 
ATOM     10 CL   UNL     1       3.857   1.769  17.771  0.00  0.00    +0.000 Cl
ENDROOT
BRANCH   1  12
ATOM     11  C   UNL     1       0.557   2.536  19.106  0.00  0.00    +0.000 C 
ATOM     12  N   UNL     1       1.391   3.407  19.931  0.00  0.00    +0.000 N 
ATOM     13  C   UNL     1       1.429   3.028  21.322  0.00  0.00    +0.000 C 
ENDBRANCH   1  12
TORSDOF 1
ENDMDL
MODEL 4
REMARK VINA RESULT:      -5.2      1.519      2.966
REMARK  Name = 
REMARK  3 active torsions:
REMARK  status: ('A' for Active; 'I' for Inactive)
REMARK    1  A    between atoms: C_1  and  N_2
REMARK    2  A    between atoms: N_2  and  C_3
REMARK    3  A    between atoms: N_2  and  N_4
REMARK                            x       y       z     vdW  Elec       q    Type
REMARK                         _______ _______ _______ _____ _____    ______ ____
ROOT
ATOM      1  N   UNL     1       4.926   5.455  17.405  0.00  0.00    +0.000 NA
ATOM      2  C   UNL     1       4.155   5.254  18.419  0.00  0.00    +0.000 C 
ATOM      3  C   UNL     1       3.215   6.374  18.775  0.00  0.00    +0.000 C 
ATOM      4 CL   UNL     1       3.120   7.840  17.928  0.00  0.00    +0.000 Cl
ATOM      5  C   UNL     1       2.514   5.990  19.840  0.00  0.00    +0.000 C 
ATOM      6 CL   UNL     1       1.315   6.904  20.635  0.00  0.00    +0.000 Cl
ATOM      7  C   UNL     1       2.911   4.675  20.235  0.00  0.00    +0.000 C 
ATOM      8 CL   UNL     1       2.216   3.860  21.571  0.00  0.00    +0.000 Cl
ATOM      9  C   UNL     1       3.867   4.191  19.439  0.00  0.00    +0.000 C 
ATOM     10 CL   UNL     1       4.553   2.656  19.625  0.00  0.00    +0.000 Cl
ENDROOT
BRANCH   1  12
ATOM     11  C   UNL     1       7.166   4.640  17.505  0.00  0.00    +0.000 C 
ATOM     12  N   UNL     1       5.858   4.667  16.852  0.00  0.00    +0.000 N 
ATOM     13  C   UNL     1       5.775   3.827  15.684  0.00  0.00    +0.000 C 
ENDBRANCH   1  12
TORSDOF 1
ENDMDL
MODEL 5
REMARK VINA RESULT:      -5.2      1.307      1.311
REMARK  Name = 
REMARK  3 active torsions:
REMARK  status: ('A' for Active; 'I' for Inactive)
REMARK    1  A    between atoms: C_1  and  N_2
REMARK    2  A    between atoms: N_2  and  C_3
REMARK    3  A    between atoms: N_2  and  N_4
REMARK                            x       y       z     vdW  Elec       q    Type
REMARK                         _______ _______ _______ _____ _____    ______ ____
ROOT
ATOM      1  N   UNL     1       5.256   4.015  17.641  0.00  0.00    +0.000 NA
ATOM      2  C   UNL     1       4.379   4.532  18.434  0.00  0.00    +0.000 C 
ATOM      3  C   UNL     1       3.894   3.654  19.556  0.00  0.00    +0.000 C 
ATOM      4 CL   UNL     1       4.436   2.068  19.823  0.00  0.00    +0.000 Cl
ATOM      5  C   UNL     1       2.999   4.349  20.254  0.00  0.00    +0.000 C 
ATOM      6 CL   UNL     1       2.152   3.798  21.627  0.00  0.00    +0.000 Cl
ATOM      7  C   UNL     1       2.840   5.649  19.684  0.00  0.00    +0.000 C 
ATOM      8 CL   UNL     1       1.766   6.817  20.328  0.00  0.00    +0.000 Cl
ATOM      9  C   UNL     1       3.625   5.816  18.617  0.00  0.00    +0.000 C 
ATOM     10 CL   UNL     1       3.687   7.246  17.715  0.00  0.00    +0.000 Cl
ENDROOT
BRANCH   1  12
ATOM     11  C   UNL     1       7.015   5.399  16.814  0.00  0.00    +0.000 C 
ATOM     12  N   UNL     1       5.865   4.532  16.565  0.00  0.00    +0.000 N 
ATOM     13  C   UNL     1       5.553   4.369  15.167  0.00  0.00    +0.000 C 
ENDBRANCH   1  12
TORSDOF 1
ENDMDL
MODEL 6
REMARK VINA RESULT:      -5.2      1.044      1.434
REMARK  Name = 
REMARK  3 active torsions:
REMARK  status: ('A' for Active; 'I' for Inactive)
REMARK    1  A    between atoms: C_1  and  N_2
REMARK    2  A    between atoms: N_2  and  C_3
REMARK    3  A    between atoms: N_2  and  N_4
REMARK                            x       y       z     vdW  Elec       q    Type
REMARK                         _______ _______ _______ _____ _____    ______ ____
ROOT
ATOM      1  N   UNL     1       4.872   3.734  17.085  0.00  0.00    +0.000 NA
ATOM      2  C   UNL     1       4.017   4.072  17.990  0.00  0.00    +0.000 C 
ATOM      3  C   UNL     1       3.341   2.945  18.724  0.00  0.00    +0.000 C 
ATOM      4 CL   UNL     1       3.647   1.302  18.431  0.00  0.00    +0.000 Cl
ATOM      5  C   UNL     1       2.497   3.484  19.601  0.00  0.00    +0.000 C 
ATOM      6 CL   UNL     1       1.489   2.628  20.677  0.00  0.00    +0.000 Cl
ATOM      7  C   UNL     1       2.554   4.909  19.519  0.00  0.00    +0.000 C 
ATOM      8 CL   UNL     1       1.600   5.932  20.508  0.00  0.00    +0.000 Cl
ATOM      9  C   UNL     1       3.428   5.313  18.595  0.00  0.00    +0.000 C 
ATOM     10 CL   UNL     1       3.744   6.939  18.251  0.00  0.00    +0.000 Cl
ENDROOT
BRANCH   1  12
ATOM     11  C   UNL     1       5.404   4.324  14.835  0.00  0.00    +0.000 C 
ATOM     12  N   UNL     1       5.621   4.491  16.271  0.00  0.00    +0.000 N 
ATOM     13  C   UNL     1       6.635   5.462  16.596  0.00  0.00    +0.000 C 
ENDBRANCH   1  12
TORSDOF 1
ENDMDL
MODEL 7
REMARK VINA RESULT:      -5.2      2.553      3.856
REMARK  Name = 
REMARK  3 active torsions:
REMARK  status: ('A' for Active; 'I' for Inactive)
REMARK    1  A    between atoms: C_1  and  N_2
REMARK    2  A    between atoms: N_2  and  C_3
REMARK    3  A    between atoms: N_2  and  N_4
REMARK                            x       y       z     vdW  Elec       q    Type
REMARK                         _______ _______ _______ _____ _____    ______ ____
ROOT
ATOM      1  N   UNL     1       4.067   3.710  18.480  0.00  0.00    +0.000 NA
ATOM      2  C   UNL     1       3.472   4.792  18.855  0.00  0.00    +0.000 C 
ATOM      3  C   UNL     1       3.642   5.991  17.962  0.00  0.00    +0.000 C 
ATOM      4 CL   UNL     1       4.546   5.986  16.527  0.00  0.00    +0.000 Cl
ATOM      5  C   UNL     1       2.971   7.002  18.511  0.00  0.00    +0.000 C 
ATOM      6 CL   UNL     1       2.852   8.583  17.886  0.00  0.00    +0.000 Cl
ATOM      7  C   UNL     1       2.348   6.571  19.722  0.00  0.00    +0.000 C 
ATOM      8 CL   UNL     1       1.397   7.611  20.695  0.00  0.00    +0.000 Cl
ATOM      9  C   UNL     1       2.603   5.285  19.975  0.00  0.00    +0.000 C 
ATOM     10 CL   UNL     1       2.007   4.460  21.326  0.00  0.00    +0.000 Cl
ENDROOT
BRANCH   1  12
ATOM     11  C   UNL     1       3.538   1.391  18.291  0.00  0.00    +0.000 C 
ATOM     12  N   UNL     1       4.110   2.500  19.053  0.00  0.00    +0.000 N 
ATOM     13  C   UNL     1       4.640   2.110  20.337  0.00  0.00    +0.000 C 
ENDBRANCH   1  12
TORSDOF 1
ENDMDL
MODEL 8
REMARK VINA RESULT:      -5.1      1.932      2.306
REMARK  Name = 
REMARK  3 active torsions:
REMARK  status: ('A' for Active; 'I' for Inactive)
REMARK    1  A    between atoms: C_1  and  N_2
REMARK    2  A    between atoms: N_2  and  C_3
REMARK    3  A    between atoms: N_2  and  N_4
REMARK                            x       y       z     vdW  Elec       q    Type
REMARK                         _______ _______ _______ _____ _____    ______ ____
ROOT
ATOM      1  N   UNL     1       5.713   3.931  18.660  0.00  0.00    +0.000 NA
ATOM      2  C   UNL     1       4.570   4.136  19.222  0.00  0.00    +0.000 C 
ATOM      3  C   UNL     1       4.046   3.024  20.092  0.00  0.00    +0.000 C 
ATOM      4 CL   UNL     1       4.866   1.564  20.363  0.00  0.00    +0.000 Cl
ATOM      5  C   UNL     1       2.866   3.410  20.572  0.00  0.00    +0.000 C 
ATOM      6 CL   UNL     1       1.862   2.504  21.610  0.00  0.00    +0.000 Cl
ATOM      7  C   UNL     1       2.549   4.717  20.091  0.00  0.00    +0.000 C 
ATOM      8 CL   UNL     1       1.102   5.533  20.511  0.00  0.00    +0.000 Cl
ATOM      9  C   UNL     1       3.510   5.195  19.298  0.00  0.00    +0.000 C 
ATOM     10 CL   UNL     1       3.452   6.721  18.570  0.00  0.00    +0.000 Cl
ENDROOT
BRANCH   1  12
ATOM     11  C   UNL     1       6.417   4.359  16.421  0.00  0.00    +0.000 C 
ATOM     12  N   UNL     1       6.429   4.712  17.839  0.00  0.00    +0.000 N 
ATOM     13  C   UNL     1       7.235   5.869  18.144  0.00  0.00    +0.000 C 
ENDBRANCH   1  12
TORSDOF 1
ENDMDL
MODEL 9
REMARK VINA RESULT:      -5.0      2.453      3.963
REMARK  Name = 
REMARK  3 active torsions:
REMARK  status: ('A' for Active; 'I' for Inactive)
REMARK    1  A    between atoms: C_1  and  N_2
REMARK    2  A    between atoms: N_2  and  C_3
REMARK    3  A    between atoms: N_2  and  N_4
REMARK                            x       y       z     vdW  Elec       q    Type
REMARK                         _______ _______ _______ _____ _____    ______ ____
ROOT
ATOM      1  N   UNL     1       3.431   3.635  19.576  0.00  0.00    +0.000 NA
ATOM      2  C   UNL     1       3.656   4.600  18.750  0.00  0.00    +0.000 C 
ATOM      3  C   UNL     1       2.937   5.893  19.024  0.00  0.00    +0.000 C 
ATOM      4 CL   UNL     1       1.882   6.135  20.330  0.00  0.00    +0.000 Cl
ATOM      5  C   UNL     1       3.284   6.758  18.073  0.00  0.00    +0.000 C 
ATOM      6 CL   UNL     1       2.738   8.367  17.933  0.00  0.00    +0.000 Cl
ATOM      7  C   UNL     1       4.199   6.141  17.166  0.00  0.00    +0.000 C 
ATOM      8 CL   UNL     1       4.861   6.962  15.816  0.00  0.00    +0.000 Cl
ATOM      9  C   UNL     1       4.458   4.878  17.512  0.00  0.00    +0.000 C 
ATOM     10 CL   UNL     1       5.509   3.868  16.655  0.00  0.00    +0.000 Cl
ENDROOT
BRANCH   1  12
ATOM     11  C   UNL     1       3.481   1.498  18.515  0.00  0.00    +0.000 C 
ATOM     12  N   UNL     1       3.907   2.382  19.598  0.00  0.00    +0.000 N 
ATOM     13  C   UNL     1       4.789   1.752  20.549  0.00  0.00    +0.000 C 
ENDBRANCH   1  12
TORSDOF 1
ENDMDL
