MODEL 1
REMARK VINA RESULT:      -7.6      0.000      0.000
REMARK  Name = 
REMARK  3 active torsions:
REMARK  status: ('A' for Active; 'I' for Inactive)
REMARK    1  A    between atoms: C_5  and  N_6
REMARK    2  A    between atoms: N_6  and  C_7
REMARK    3  A    between atoms: C_13  and  C_14
REMARK                            x       y       z     vdW  Elec       q    Type
REMARK                         _______ _______ _______ _____ _____    ______ ____
ROOT
ATOM      1  O   UNL     1       6.080   7.348  17.172  0.00  0.00    +0.000 OA
ATOM      2  C   UNL     1       5.532   6.264  17.092  0.00  0.00    +0.000 C 
ATOM      3  O   UNL     1       6.088   5.151  16.534  0.00  0.00    +0.000 OA
ATOM      4  C   UNL     1       5.153   4.078  16.614  0.00  0.00    +0.000 C 
ATOM      5  C   UNL     1       3.958   4.663  17.277  0.00  0.00    +0.000 C 
ATOM      6  C   UNL     1       4.187   5.945  17.580  0.00  0.00    +0.000 C 
ENDROOT
BRANCH   6   7
ATOM      7  C   UNL     1       3.265   6.889  18.196  0.00  0.00    +0.000 A 
ATOM      8  C   UNL     1       2.857   6.725  19.525  0.00  0.00    +0.000 A 
ATOM      9  C   UNL     1       1.955   7.622  20.102  0.00  0.00    +0.000 A 
ATOM     10  C   UNL     1       1.452   8.681  19.348  0.00  0.00    +0.000 A 
ATOM     11 BR   UNL     1       0.216   9.884  20.122  0.00  0.00    +0.000 Br
ATOM     12  C   UNL     1       1.853   8.860  18.026  0.00  0.00    +0.000 A 
ATOM     13  C   UNL     1       2.756   7.962  17.451  0.00  0.00    +0.000 A 
ENDBRANCH   6   7
BRANCH   5  14
ATOM     14  N   UNL     1       2.838   3.881  17.504  0.00  0.00    +0.000 N 
ATOM     15  H   UNL     1       2.849   3.039  16.923  0.00  0.00    +0.000 HD
BRANCH  14  16
ATOM     16  C   UNL     1       2.463   3.459  18.814  0.00  0.00    +0.000 A 
ATOM     17  C   UNL     1       3.386   3.034  19.779  0.00  0.00    +0.000 A 
ATOM     18  C   UNL     1       2.968   2.675  21.063  0.00  0.00    +0.000 A 
ATOM     19  C   UNL     1       1.622   2.763  21.410  0.00  0.00    +0.000 A 
ATOM     20  C   UNL     1       0.695   3.205  20.470  0.00  0.00    +0.000 A 
ATOM     21  C   UNL     1       1.113   3.553  19.183  0.00  0.00    +0.000 A 
ENDBRANCH  14  16
ENDBRANCH   5  14
TORSDOF 3
ENDMDL
MODEL 2
REMARK VINA RESULT:      -7.6      0.123      1.088
REMARK  Name = 
REMARK  3 active torsions:
REMARK  status: ('A' for Active; 'I' for Inactive)
REMARK    1  A    between atoms: C_5  and  N_6
REMARK    2  A    between atoms: N_6  and  C_7
REMARK    3  A    between atoms: C_13  and  C_14
REMARK                            x       y       z     vdW  Elec       q    Type
REMARK                         _______ _______ _______ _____ _____    ______ ____
ROOT
ATOM      1  O   UNL     1       6.168   7.326  17.252  0.00  0.00    +0.000 OA
ATOM      2  C   UNL     1       5.634   6.237  17.141  0.00  0.00    +0.000 C 
ATOM      3  O   UNL     1       6.224   5.135  16.597  0.00  0.00    +0.000 OA
ATOM      4  C   UNL     1       5.297   4.052  16.630  0.00  0.00    +0.000 C 
ATOM      5  C   UNL     1       4.069   4.620  17.247  0.00  0.00    +0.000 C 
ATOM      6  C   UNL     1       4.273   5.902  17.570  0.00  0.00    +0.000 C 
ENDROOT
BRANCH   6   7
ATOM      7  C   UNL     1       3.317   6.832  18.155  0.00  0.00    +0.000 A 
ATOM      8  C   UNL     1       2.825   7.910  17.411  0.00  0.00    +0.000 A 
ATOM      9  C   UNL     1       1.925   8.812  17.986  0.00  0.00    +0.000 A 
ATOM     10  C   UNL     1       1.520   8.639  19.309  0.00  0.00    +0.000 A 
ATOM     11 BR   UNL     1       0.318   9.869  20.093  0.00  0.00    +0.000 Br
ATOM     12  C   UNL     1       1.998   7.566  20.059  0.00  0.00    +0.000 A 
ATOM     13  C   UNL     1       2.897   6.666  19.482  0.00  0.00    +0.000 A 
ENDBRANCH   6   7
BRANCH   5  14
ATOM     14  N   UNL     1       2.949   3.825  17.422  0.00  0.00    +0.000 N 
ATOM     15  H   UNL     1       3.002   2.978  16.852  0.00  0.00    +0.000 HD
BRANCH  14  16
ATOM     16  C   UNL     1       2.508   3.412  18.714  0.00  0.00    +0.000 A 
ATOM     17  C   UNL     1       3.380   2.978  19.721  0.00  0.00    +0.000 A 
ATOM     18  C   UNL     1       2.898   2.628  20.986  0.00  0.00    +0.000 A 
ATOM     19  C   UNL     1       1.539   2.735  21.269  0.00  0.00    +0.000 A 
ATOM     20  C   UNL     1       0.662   3.187  20.287  0.00  0.00    +0.000 A 
ATOM     21  C   UNL     1       1.144   3.526  19.020  0.00  0.00    +0.000 A 
ENDBRANCH  14  16
ENDBRANCH   5  14
TORSDOF 3
ENDMDL
MODEL 3
REMARK VINA RESULT:      -7.5      2.551      4.404
REMARK  Name = 
REMARK  3 active torsions:
REMARK  status: ('A' for Active; 'I' for Inactive)
REMARK    1  A    between atoms: C_5  and  N_6
REMARK    2  A    between atoms: N_6  and  C_7
REMARK    3  A    between atoms: C_13  and  C_14
REMARK                            x       y       z     vdW  Elec       q    Type
REMARK                         _______ _______ _______ _____ _____    ______ ____
ROOT
ATOM      1  O   UNL     1       0.646   2.763  18.367  0.00  0.00    +0.000 OA
ATOM      2  C   UNL     1       1.844   2.605  18.512  0.00  0.00    +0.000 C 
ATOM      3  O   UNL     1       2.500   1.423  18.335  0.00  0.00    +0.000 OA
ATOM      4  C   UNL     1       3.887   1.621  18.598  0.00  0.00    +0.000 C 
ATOM      5  C   UNL     1       4.005   3.057  18.965  0.00  0.00    +0.000 C 
ATOM      6  C   UNL     1       2.806   3.645  18.893  0.00  0.00    +0.000 C 
ENDROOT
BRANCH   6   7
ATOM      7  C   UNL     1       2.475   5.027  19.212  0.00  0.00    +0.000 A 
ATOM      8  C   UNL     1       1.972   5.367  20.473  0.00  0.00    +0.000 A 
ATOM      9  C   UNL     1       1.636   6.692  20.764  0.00  0.00    +0.000 A 
ATOM     10  C   UNL     1       1.796   7.678  19.792  0.00  0.00    +0.000 A 
ATOM     11 BR   UNL     1       1.323   9.467  20.178  0.00  0.00    +0.000 Br
ATOM     12  C   UNL     1       2.302   7.354  18.534  0.00  0.00    +0.000 A 
ATOM     13  C   UNL     1       2.637   6.029  18.245  0.00  0.00    +0.000 A 
ENDBRANCH   6   7
BRANCH   5  14
ATOM     14  N   UNL     1       5.238   3.589  19.298  0.00  0.00    +0.000 N 
ATOM     15  H   UNL     1       5.925   2.852  19.478  0.00  0.00    +0.000 HD
BRANCH  14  16
ATOM     16  C   UNL     1       5.893   4.554  18.476  0.00  0.00    +0.000 A 
ATOM     17  C   UNL     1       6.693   5.584  18.988  0.00  0.00    +0.000 A 
ATOM     18  C   UNL     1       7.349   6.475  18.133  0.00  0.00    +0.000 A 
ATOM     19  C   UNL     1       7.237   6.329  16.753  0.00  0.00    +0.000 A 
ATOM     20  C   UNL     1       6.464   5.298  16.228  0.00  0.00    +0.000 A 
ATOM     21  C   UNL     1       5.799   4.414  17.083  0.00  0.00    +0.000 A 
ENDBRANCH  14  16
ENDBRANCH   5  14
TORSDOF 3
ENDMDL
MODEL 4
REMARK VINA RESULT:      -7.5      2.550      4.474
REMARK  Name = 
REMARK  3 active torsions:
REMARK  status: ('A' for Active; 'I' for Inactive)
REMARK    1  A    between atoms: C_5  and  N_6
REMARK    2  A    between atoms: N_6  and  C_7
REMARK    3  A    between atoms: C_13  and  C_14
REMARK                            x       y       z     vdW  Elec       q    Type
REMARK                         _______ _______ _______ _____ _____    ______ ____
ROOT
ATOM      1  O   UNL     1       0.728   2.745  18.420  0.00  0.00    +0.000 OA
ATOM      2  C   UNL     1       1.925   2.613  18.596  0.00  0.00    +0.000 C 
ATOM      3  O   UNL     1       2.592   1.425  18.547  0.00  0.00    +0.000 OA
ATOM      4  C   UNL     1       3.974   1.660  18.807  0.00  0.00    +0.000 C 
ATOM      5  C   UNL     1       4.076   3.126  19.029  0.00  0.00    +0.000 C 
ATOM      6  C   UNL     1       2.874   3.694  18.883  0.00  0.00    +0.000 C 
ENDROOT
BRANCH   6   7
ATOM      7  C   UNL     1       2.529   5.098  19.056  0.00  0.00    +0.000 A 
ATOM      8  C   UNL     1       1.991   5.556  20.264  0.00  0.00    +0.000 A 
ATOM      9  C   UNL     1       1.641   6.901  20.415  0.00  0.00    +0.000 A 
ATOM     10  C   UNL     1       1.824   7.789  19.356  0.00  0.00    +0.000 A 
ATOM     11 BR   UNL     1       1.333   9.603  19.554  0.00  0.00    +0.000 Br
ATOM     12  C   UNL     1       2.364   7.347  18.150  0.00  0.00    +0.000 A 
ATOM     13  C   UNL     1       2.713   6.002  18.001  0.00  0.00    +0.000 A 
ENDBRANCH   6   7
BRANCH   5  14
ATOM     14  N   UNL     1       5.301   3.700  19.323  0.00  0.00    +0.000 N 
ATOM     15  H   UNL     1       5.985   2.993  19.601  0.00  0.00    +0.000 HD
BRANCH  14  16
ATOM     16  C   UNL     1       5.970   4.565  18.407  0.00  0.00    +0.000 A 
ATOM     17  C   UNL     1       5.816   4.482  17.017  0.00  0.00    +0.000 A 
ATOM     18  C   UNL     1       6.460   5.386  16.167  0.00  0.00    +0.000 A 
ATOM     19  C   UNL     1       7.246   6.405  16.699  0.00  0.00    +0.000 A 
ATOM     20  C   UNL     1       7.392   6.516  18.078  0.00  0.00    +0.000 A 
ATOM     21  C   UNL     1       6.756   5.605  18.926  0.00  0.00    +0.000 A 
ENDBRANCH  14  16
ENDBRANCH   5  14
TORSDOF 3
ENDMDL
MODEL 5
REMARK VINA RESULT:      -7.5      2.544      4.601
REMARK  Name = 
REMARK  3 active torsions:
REMARK  status: ('A' for Active; 'I' for Inactive)
REMARK    1  A    between atoms: C_5  and  N_6
REMARK    2  A    between atoms: N_6  and  C_7
REMARK    3  A    between atoms: C_13  and  C_14
REMARK                            x       y       z     vdW  Elec       q    Type
REMARK                         _______ _______ _______ _____ _____    ______ ____
ROOT
ATOM      1  O   UNL     1       0.678   2.666  18.344  0.00  0.00    +0.000 OA
ATOM      2  C   UNL     1       1.881   2.538  18.484  0.00  0.00    +0.000 C 
ATOM      3  O   UNL     1       2.571   1.384  18.262  0.00  0.00    +0.000 OA
ATOM      4  C   UNL     1       3.952   1.611  18.534  0.00  0.00    +0.000 C 
ATOM      5  C   UNL     1       4.028   3.035  18.957  0.00  0.00    +0.000 C 
ATOM      6  C   UNL     1       2.812   3.590  18.907  0.00  0.00    +0.000 C 
ENDROOT
BRANCH   6   7
ATOM      7  C   UNL     1       2.441   4.948  19.279  0.00  0.00    +0.000 A 
ATOM      8  C   UNL     1       2.678   6.017  18.408  0.00  0.00    +0.000 A 
ATOM      9  C   UNL     1       2.341   7.320  18.782  0.00  0.00    +0.000 A 
ATOM     10  C   UNL     1       1.770   7.558  20.032  0.00  0.00    +0.000 A 
ATOM     11 BR   UNL     1       1.331   9.323  20.545  0.00  0.00    +0.000 Br
ATOM     12  C   UNL     1       1.523   6.502  20.907  0.00  0.00    +0.000 A 
ATOM     13  C   UNL     1       1.862   5.199  20.531  0.00  0.00    +0.000 A 
ENDBRANCH   6   7
BRANCH   5  14
ATOM     14  N   UNL     1       5.245   3.590  19.312  0.00  0.00    +0.000 N 
ATOM     15  H   UNL     1       5.924   2.867  19.561  0.00  0.00    +0.000 HD
BRANCH  14  16
ATOM     16  C   UNL     1       5.932   4.510  18.466  0.00  0.00    +0.000 A 
ATOM     17  C   UNL     1       5.782   4.535  17.074  0.00  0.00    +0.000 A 
ATOM     18  C   UNL     1       6.444   5.490  16.297  0.00  0.00    +0.000 A 
ATOM     19  C   UNL     1       7.245   6.452  16.906  0.00  0.00    +0.000 A 
ATOM     20  C   UNL     1       7.388   6.456  18.291  0.00  0.00    +0.000 A 
ATOM     21  C   UNL     1       6.733   5.494  19.065  0.00  0.00    +0.000 A 
ENDBRANCH  14  16
ENDBRANCH   5  14
TORSDOF 3
ENDMDL
MODEL 6
REMARK VINA RESULT:      -7.4      0.208      1.540
REMARK  Name = 
REMARK  3 active torsions:
REMARK  status: ('A' for Active; 'I' for Inactive)
REMARK    1  A    between atoms: C_5  and  N_6
REMARK    2  A    between atoms: N_6  and  C_7
REMARK    3  A    between atoms: C_13  and  C_14
REMARK                            x       y       z     vdW  Elec       q    Type
REMARK                         _______ _______ _______ _____ _____    ______ ____
ROOT
ATOM      1  O   UNL     1       6.186   7.316  17.068  0.00  0.00    +0.000 OA
ATOM      2  C   UNL     1       5.654   6.226  16.964  0.00  0.00    +0.000 C 
ATOM      3  O   UNL     1       6.232   5.131  16.395  0.00  0.00    +0.000 OA
ATOM      4  C   UNL     1       5.312   4.043  16.447  0.00  0.00    +0.000 C 
ATOM      5  C   UNL     1       4.100   4.600  17.104  0.00  0.00    +0.000 C 
ATOM      6  C   UNL     1       4.307   5.880  17.431  0.00  0.00    +0.000 C 
ENDROOT
BRANCH   6   7
ATOM      7  C   UNL     1       3.365   6.801  18.051  0.00  0.00    +0.000 A 
ATOM      8  C   UNL     1       2.836   7.876  17.326  0.00  0.00    +0.000 A 
ATOM      9  C   UNL     1       1.950   8.769  17.934  0.00  0.00    +0.000 A 
ATOM     10  C   UNL     1       1.595   8.592  19.271  0.00  0.00    +0.000 A 
ATOM     11 BR   UNL     1       0.411   9.810  20.099  0.00  0.00    +0.000 Br
ATOM     12  C   UNL     1       2.109   7.523  20.002  0.00  0.00    +0.000 A 
ATOM     13  C   UNL     1       2.995   6.631  19.392  0.00  0.00    +0.000 A 
ENDBRANCH   6   7
BRANCH   5  14
ATOM     14  N   UNL     1       2.989   3.799  17.305  0.00  0.00    +0.000 N 
ATOM     15  H   UNL     1       3.082   2.906  16.815  0.00  0.00    +0.000 HD
BRANCH  14  16
ATOM     16  C   UNL     1       2.505   3.491  18.611  0.00  0.00    +0.000 A 
ATOM     17  C   UNL     1       1.150   3.555  18.963  0.00  0.00    +0.000 A 
ATOM     18  C   UNL     1       0.725   3.197  20.246  0.00  0.00    +0.000 A 
ATOM     19  C   UNL     1       1.646   2.743  21.186  0.00  0.00    +0.000 A 
ATOM     20  C   UNL     1       2.992   2.653  20.846  0.00  0.00    +0.000 A 
ATOM     21  C   UNL     1       3.418   3.021  19.566  0.00  0.00    +0.000 A 
ENDBRANCH  14  16
ENDBRANCH   5  14
TORSDOF 3
ENDMDL
MODEL 7
REMARK VINA RESULT:      -7.4      2.390      4.491
REMARK  Name = 
REMARK  3 active torsions:
REMARK  status: ('A' for Active; 'I' for Inactive)
REMARK    1  A    between atoms: C_5  and  N_6
REMARK    2  A    between atoms: N_6  and  C_7
REMARK    3  A    between atoms: C_13  and  C_14
REMARK                            x       y       z     vdW  Elec       q    Type
REMARK                         _______ _______ _______ _____ _____    ______ ____
ROOT
ATOM      1  O   UNL     1       0.794   3.877  17.401  0.00  0.00    +0.000 OA
ATOM      2  C   UNL     1       1.958   3.705  17.714  0.00  0.00    +0.000 C 
ATOM      3  O   UNL     1       2.699   2.611  17.381  0.00  0.00    +0.000 OA
ATOM      4  C   UNL     1       4.009   2.757  17.924  0.00  0.00    +0.000 C 
ATOM      5  C   UNL     1       3.982   4.062  18.637  0.00  0.00    +0.000 C 
ATOM      6  C   UNL     1       2.782   4.634  18.495  0.00  0.00    +0.000 C 
ENDROOT
BRANCH   6   7
ATOM      7  C   UNL     1       2.325   5.892  19.069  0.00  0.00    +0.000 A 
ATOM      8  C   UNL     1       2.372   7.074  18.323  0.00  0.00    +0.000 A 
ATOM      9  C   UNL     1       1.954   8.282  18.888  0.00  0.00    +0.000 A 
ATOM     10  C   UNL     1       1.494   8.310  20.204  0.00  0.00    +0.000 A 
ATOM     11 BR   UNL     1       0.946   9.946  20.975  0.00  0.00    +0.000 Br
ATOM     12  C   UNL     1       1.437   7.139  20.956  0.00  0.00    +0.000 A 
ATOM     13  C   UNL     1       1.855   5.932  20.389  0.00  0.00    +0.000 A 
ENDBRANCH   6   7
BRANCH   5  14
ATOM     14  N   UNL     1       5.111   4.514  19.299  0.00  0.00    +0.000 N 
ATOM     15  H   UNL     1       5.690   3.735  19.621  0.00  0.00    +0.000 HD
BRANCH  14  16
ATOM     16  C   UNL     1       6.002   5.461  18.715  0.00  0.00    +0.000 A 
ATOM     17  C   UNL     1       5.672   6.243  17.600  0.00  0.00    +0.000 A 
ATOM     18  C   UNL     1       6.568   7.190  17.096  0.00  0.00    +0.000 A 
ATOM     19  C   UNL     1       7.797   7.389  17.719  0.00  0.00    +0.000 A 
ATOM     20  C   UNL     1       8.133   6.637  18.841  0.00  0.00    +0.000 A 
ATOM     21  C   UNL     1       7.240   5.682  19.337  0.00  0.00    +0.000 A 
ENDBRANCH  14  16
ENDBRANCH   5  14
TORSDOF 3
ENDMDL
MODEL 8
REMARK VINA RESULT:      -7.4      2.437      4.492
REMARK  Name = 
REMARK  3 active torsions:
REMARK  status: ('A' for Active; 'I' for Inactive)
REMARK    1  A    between atoms: C_5  and  N_6
REMARK    2  A    between atoms: N_6  and  C_7
REMARK    3  A    between atoms: C_13  and  C_14
REMARK                            x       y       z     vdW  Elec       q    Type
REMARK                         _______ _______ _______ _____ _____    ______ ____
ROOT
ATOM      1  O   UNL     1       0.701   3.770  20.365  0.00  0.00    +0.000 OA
ATOM      2  C   UNL     1       1.881   3.633  20.098  0.00  0.00    +0.000 C 
ATOM      3  O   UNL     1       2.569   2.461  20.197  0.00  0.00    +0.000 OA
ATOM      4  C   UNL     1       3.922   2.686  19.809  0.00  0.00    +0.000 C 
ATOM      5  C   UNL     1       3.987   4.132  19.469  0.00  0.00    +0.000 C 
ATOM      6  C   UNL     1       2.779   4.688  19.617  0.00  0.00    +0.000 C 
ENDROOT
BRANCH   6   7
ATOM      7  C   UNL     1       2.418   6.086  19.429  0.00  0.00    +0.000 A 
ATOM      8  C   UNL     1       1.968   6.858  20.506  0.00  0.00    +0.000 A 
ATOM      9  C   UNL     1       1.602   8.192  20.313  0.00  0.00    +0.000 A 
ATOM     10  C   UNL     1       1.678   8.756  19.040  0.00  0.00    +0.000 A 
ATOM     11 BR   UNL     1       1.164  10.556  18.776  0.00  0.00    +0.000 Br
ATOM     12  C   UNL     1       2.129   8.001  17.960  0.00  0.00    +0.000 A 
ATOM     13  C   UNL     1       2.496   6.666  18.155  0.00  0.00    +0.000 A 
ENDBRANCH   6   7
BRANCH   5  14
ATOM     14  N   UNL     1       5.181   4.695  19.057  0.00  0.00    +0.000 N 
ATOM     15  H   UNL     1       5.957   4.403  19.657  0.00  0.00    +0.000 HD
BRANCH  14  16
ATOM     16  C   UNL     1       5.649   4.580  17.714  0.00  0.00    +0.000 A 
ATOM     17  C   UNL     1       4.798   4.390  16.617  0.00  0.00    +0.000 A 
ATOM     18  C   UNL     1       5.306   4.331  15.316  0.00  0.00    +0.000 A 
ATOM     19  C   UNL     1       6.671   4.489  15.092  0.00  0.00    +0.000 A 
ATOM     20  C   UNL     1       7.528   4.701  16.168  0.00  0.00    +0.000 A 
ATOM     21  C   UNL     1       7.020   4.749  17.470  0.00  0.00    +0.000 A 
ENDBRANCH  14  16
ENDBRANCH   5  14
TORSDOF 3
ENDMDL
MODEL 9
REMARK VINA RESULT:      -7.4      2.426      4.406
REMARK  Name = 
REMARK  3 active torsions:
REMARK  status: ('A' for Active; 'I' for Inactive)
REMARK    1  A    between atoms: C_5  and  N_6
REMARK    2  A    between atoms: N_6  and  C_7
REMARK    3  A    between atoms: C_13  and  C_14
REMARK                            x       y       z     vdW  Elec       q    Type
REMARK                         _______ _______ _______ _____ _____    ______ ____
ROOT
ATOM      1  O   UNL     1       0.756   3.359  17.716  0.00  0.00    +0.000 OA
ATOM      2  C   UNL     1       1.932   3.190  17.982  0.00  0.00    +0.000 C 
ATOM      3  O   UNL     1       2.646   2.071  17.673  0.00  0.00    +0.000 OA
ATOM      4  C   UNL     1       3.981   2.229  18.146  0.00  0.00    +0.000 C 
ATOM      5  C   UNL     1       4.002   3.570  18.788  0.00  0.00    +0.000 C 
ATOM      6  C   UNL     1       2.801   4.148  18.673  0.00  0.00    +0.000 C 
ENDROOT
BRANCH   6   7
ATOM      7  C   UNL     1       2.385   5.441  19.199  0.00  0.00    +0.000 A 
ATOM      8  C   UNL     1       2.528   6.603  18.433  0.00  0.00    +0.000 A 
ATOM      9  C   UNL     1       2.147   7.842  18.954  0.00  0.00    +0.000 A 
ATOM     10  C   UNL     1       1.629   7.923  20.246  0.00  0.00    +0.000 A 
ATOM     11 BR   UNL     1       1.132   9.601  20.958  0.00  0.00    +0.000 Br
ATOM     12  C   UNL     1       1.476   6.773  21.017  0.00  0.00    +0.000 A 
ATOM     13  C   UNL     1       1.857   5.534  20.495  0.00  0.00    +0.000 A 
ENDBRANCH   6   7
BRANCH   5  14
ATOM     14  N   UNL     1       5.164   4.043  19.371  0.00  0.00    +0.000 N 
ATOM     15  H   UNL     1       5.796   3.276  19.614  0.00  0.00    +0.000 HD
BRANCH  14  16
ATOM     16  C   UNL     1       5.969   5.044  18.751  0.00  0.00    +0.000 A 
ATOM     17  C   UNL     1       7.105   5.601  19.354  0.00  0.00    +0.000 A 
ATOM     18  C   UNL     1       7.884   6.546  18.681  0.00  0.00    +0.000 A 
ATOM     19  C   UNL     1       7.555   6.926  17.383  0.00  0.00    +0.000 A 
ATOM     20  C   UNL     1       6.444   6.366  16.760  0.00  0.00    +0.000 A 
ATOM     21  C   UNL     1       5.658   5.429  17.438  0.00  0.00    +0.000 A 
ENDBRANCH  14  16
ENDBRANCH   5  14
TORSDOF 3
ENDMDL
