MODEL 1
REMARK VINA RESULT:      -9.7      0.000      0.000
REMARK  Name = 
REMARK  5 active torsions:
REMARK  status: ('A' for Active; 'I' for Inactive)
REMARK    1  A    between atoms: C_1  and  C_2
REMARK    2  A    between atoms: C_4  and  C_5
REMARK    3  A    between atoms: N_15  and  C_16
REMARK    4  A    between atoms: C_16  and  C_17
REMARK    5  A    between atoms: C_21  and  C_22
REMARK                            x       y       z     vdW  Elec       q    Type
REMARK                         _______ _______ _______ _____ _____    ______ ____
ROOT
ATOM      1  C   UNL     1       1.238  11.936  18.909  0.00  0.00    +0.000 C 
ATOM      2  C   UNL     1       0.965  10.836  19.886  0.00  0.00    +0.000 A 
ATOM      3  C   UNL     1       0.185  11.028  21.002  0.00  0.00    +0.000 A 
ATOM      4  C   UNL     1       0.012   9.928  21.815  0.00  0.00    +0.000 A 
ATOM      5  C   UNL     1      -0.816   9.998  23.060  0.00  0.00    +0.000 C 
ATOM      6  N   UNL     1       0.574   8.732  21.548  0.00  0.00    +0.000 NA
ATOM      7  C   UNL     1       1.329   8.619  20.446  0.00  0.00    +0.000 A 
ATOM      8  N   UNL     1       1.961   7.410  20.170  0.00  0.00    +0.000 N 
ATOM      9  C   UNL     1       2.255   7.218  18.758  0.00  0.00    +0.000 C 
ATOM     10  C   UNL     1       3.271   6.106  18.617  0.00  0.00    +0.000 C 
ATOM     11  C   UNL     1       2.820   4.783  19.287  0.00  0.00    +0.000 C 
ATOM     12  C   UNL     1       1.629   4.107  18.567  0.00  0.00    +0.000 C 
ATOM     13  C   UNL     1       1.969   3.695  17.136  0.00  0.00    +0.000 C 
ATOM     14  C   UNL     1       3.238   2.858  17.123  0.00  0.00    +0.000 C 
ATOM     15  N   UNL     1       4.305   3.501  17.873  0.00  0.00    +0.000 N 
ATOM     16  C   UNL     1       4.055   3.882  19.184  0.00  0.00    +0.000 C 
ATOM     17  O   UNL     1       4.840   3.683  20.105  0.00  0.00    +0.000 OA
ATOM     18  C   UNL     1       2.468   5.086  20.759  0.00  0.00    +0.000 C 
ATOM     19  C   UNL     1       1.475   6.246  20.904  0.00  0.00    +0.000 C 
ATOM     20  N   UNL     1       1.529   9.648  19.607  0.00  0.00    +0.000 NA
ENDROOT
BRANCH  15  21
ATOM     21  C   UNL     1       5.679   3.375  17.417  0.00  0.00    +0.000 C 
BRANCH  21  22
ATOM     22  C   UNL     1       6.337   4.721  17.231  0.00  0.00    +0.000 A 
ATOM     23  N   UNL     1       6.664   5.528  18.261  0.00  0.00    +0.000 NA
ATOM     24  N   UNL     1       7.239   6.558  17.638  0.00  0.00    +0.000 N 
ATOM     25  N   UNL     1       7.320   6.525  16.303  0.00  0.00    +0.000 NA
ATOM     26  C   UNL     1       6.748   5.342  16.008  0.00  0.00    +0.000 A 
ATOM     27  H   UNL     1       7.611   7.345  18.163  0.00  0.00    +0.000 HD
BRANCH  26  28
ATOM     28  C   UNL     1       6.666   4.860  14.630  0.00  0.00    +0.000 A 
ATOM     29  C   UNL     1       7.654   5.224  13.705  0.00  0.00    +0.000 A 
ATOM     30  C   UNL     1       7.626   4.727  12.398  0.00  0.00    +0.000 A 
ATOM     31  C   UNL     1       6.609   3.864  12.005  0.00  0.00    +0.000 A 
ATOM     32  C   UNL     1       5.609   3.512  12.902  0.00  0.00    +0.000 A 
ATOM     33  C   UNL     1       5.627   4.021  14.202  0.00  0.00    +0.000 A 
ENDBRANCH  26  28
ENDBRANCH  21  22
ENDBRANCH  15  21
TORSDOF 3
ENDMDL
MODEL 2
REMARK VINA RESULT:      -9.1      1.609      2.836
REMARK  Name = 
REMARK  5 active torsions:
REMARK  status: ('A' for Active; 'I' for Inactive)
REMARK    1  A    between atoms: C_1  and  C_2
REMARK    2  A    between atoms: C_4  and  C_5
REMARK    3  A    between atoms: N_15  and  C_16
REMARK    4  A    between atoms: C_16  and  C_17
REMARK    5  A    between atoms: C_21  and  C_22
REMARK                            x       y       z     vdW  Elec       q    Type
REMARK                         _______ _______ _______ _____ _____    ______ ____
ROOT
ATOM      1  C   UNL     1       1.340  11.857  18.816  0.00  0.00    +0.000 C 
ATOM      2  C   UNL     1       1.086  10.782  19.826  0.00  0.00    +0.000 A 
ATOM      3  C   UNL     1       0.371  11.016  20.977  0.00  0.00    +0.000 A 
ATOM      4  C   UNL     1       0.208   9.935  21.818  0.00  0.00    +0.000 A 
ATOM      5  C   UNL     1      -0.551  10.051  23.102  0.00  0.00    +0.000 C 
ATOM      6  N   UNL     1       0.719   8.718  21.543  0.00  0.00    +0.000 NA
ATOM      7  C   UNL     1       1.411   8.564  20.406  0.00  0.00    +0.000 A 
ATOM      8  N   UNL     1       1.992   7.333  20.119  0.00  0.00    +0.000 N 
ATOM      9  C   UNL     1       2.206   7.109  18.697  0.00  0.00    +0.000 C 
ATOM     10  C   UNL     1       3.179   5.963  18.523  0.00  0.00    +0.000 C 
ATOM     11  C   UNL     1       2.724   4.666  19.240  0.00  0.00    +0.000 C 
ATOM     12  C   UNL     1       1.478   4.015  18.595  0.00  0.00    +0.000 C 
ATOM     13  C   UNL     1       1.730   3.570  17.156  0.00  0.00    +0.000 C 
ATOM     14  C   UNL     1       2.971   2.694  17.091  0.00  0.00    +0.000 C 
ATOM     15  N   UNL     1       4.094   3.316  17.774  0.00  0.00    +0.000 N 
ATOM     16  C   UNL     1       3.925   3.725  19.089  0.00  0.00    +0.000 C 
ATOM     17  O   UNL     1       4.750   3.517  19.972  0.00  0.00    +0.000 OA
ATOM     18  C   UNL     1       2.459   5.004  20.722  0.00  0.00    +0.000 C 
ATOM     19  C   UNL     1       1.510   6.196  20.899  0.00  0.00    +0.000 C 
ATOM     20  N   UNL     1       1.599   9.574  19.540  0.00  0.00    +0.000 NA
ENDROOT
BRANCH  15  21
ATOM     21  C   UNL     1       5.438   3.141  17.250  0.00  0.00    +0.000 C 
BRANCH  21  22
ATOM     22  C   UNL     1       5.689   4.007  16.039  0.00  0.00    +0.000 A 
ATOM     23  N   UNL     1       5.216   3.709  14.811  0.00  0.00    +0.000 NA
ATOM     24  N   UNL     1       5.643   4.746  14.088  0.00  0.00    +0.000 N 
ATOM     25  N   UNL     1       6.358   5.695  14.703  0.00  0.00    +0.000 NA
ATOM     26  C   UNL     1       6.402   5.247  15.972  0.00  0.00    +0.000 A 
ATOM     27  H   UNL     1       5.426   4.816  13.098  0.00  0.00    +0.000 HD
BRANCH  26  28
ATOM     28  C   UNL     1       7.057   6.018  17.028  0.00  0.00    +0.000 A 
ATOM     29  C   UNL     1       7.502   5.369  18.189  0.00  0.00    +0.000 A 
ATOM     30  C   UNL     1       8.181   6.077  19.186  0.00  0.00    +0.000 A 
ATOM     31  C   UNL     1       8.420   7.438  19.031  0.00  0.00    +0.000 A 
ATOM     32  C   UNL     1       7.966   8.099  17.898  0.00  0.00    +0.000 A 
ATOM     33  C   UNL     1       7.273   7.398  16.910  0.00  0.00    +0.000 A 
ENDBRANCH  26  28
ENDBRANCH  21  22
ENDBRANCH  15  21
TORSDOF 3
ENDMDL
MODEL 3
REMARK VINA RESULT:      -8.4      0.845      1.093
REMARK  Name = 
REMARK  5 active torsions:
REMARK  status: ('A' for Active; 'I' for Inactive)
REMARK    1  A    between atoms: C_1  and  C_2
REMARK    2  A    between atoms: C_4  and  C_5
REMARK    3  A    between atoms: N_15  and  C_16
REMARK    4  A    between atoms: C_16  and  C_17
REMARK    5  A    between atoms: C_21  and  C_22
REMARK                            x       y       z     vdW  Elec       q    Type
REMARK                         _______ _______ _______ _____ _____    ______ ____
ROOT
ATOM      1  C   UNL     1       1.083  11.575  18.636  0.00  0.00    +0.000 C 
ATOM      2  C   UNL     1       1.008  10.509  19.684  0.00  0.00    +0.000 A 
ATOM      3  C   UNL     1       0.404  10.724  20.901  0.00  0.00    +0.000 A 
ATOM      4  C   UNL     1       0.402   9.654  21.771  0.00  0.00    +0.000 A 
ATOM      5  C   UNL     1      -0.223   9.751  23.127  0.00  0.00    +0.000 C 
ATOM      6  N   UNL     1       0.960   8.466  21.463  0.00  0.00    +0.000 NA
ATOM      7  C   UNL     1       1.538   8.331  20.261  0.00  0.00    +0.000 A 
ATOM      8  N   UNL     1       2.164   7.132  19.934  0.00  0.00    +0.000 N 
ATOM      9  C   UNL     1       2.241   6.890  18.501  0.00  0.00    +0.000 C 
ATOM     10  C   UNL     1       3.264   5.805  18.242  0.00  0.00    +0.000 C 
ATOM     11  C   UNL     1       2.973   4.498  19.024  0.00  0.00    +0.000 C 
ATOM     12  C   UNL     1       1.711   3.755  18.526  0.00  0.00    +0.000 C 
ATOM     13  C   UNL     1       1.839   3.294  17.075  0.00  0.00    +0.000 C 
ATOM     14  C   UNL     1       3.120   2.497  16.893  0.00  0.00    +0.000 C 
ATOM     15  N   UNL     1       4.266   3.205  17.442  0.00  0.00    +0.000 N 
ATOM     16  C   UNL     1       4.210   3.632  18.761  0.00  0.00    +0.000 C 
ATOM     17  O   UNL     1       5.136   3.497  19.553  0.00  0.00    +0.000 OA
ATOM     18  C   UNL     1       2.844   4.852  20.520  0.00  0.00    +0.000 C 
ATOM     19  C   UNL     1       1.842   5.985  20.778  0.00  0.00    +0.000 C 
ATOM     20  N   UNL     1       1.566   9.330  19.364  0.00  0.00    +0.000 NA
ENDROOT
BRANCH  15  21
ATOM     21  C   UNL     1       5.556   3.103  16.780  0.00  0.00    +0.000 C 
BRANCH  21  22
ATOM     22  C   UNL     1       6.011   4.430  16.223  0.00  0.00    +0.000 A 
ATOM     23  N   UNL     1       6.440   5.446  17.000  0.00  0.00    +0.000 NA
ATOM     24  N   UNL     1       6.764   6.373  16.097  0.00  0.00    +0.000 N 
ATOM     25  N   UNL     1       6.586   6.084  14.803  0.00  0.00    +0.000 NA
ATOM     26  C   UNL     1       6.102   4.828  14.850  0.00  0.00    +0.000 A 
ATOM     27  H   UNL     1       7.141   7.272  16.383  0.00  0.00    +0.000 HD
BRANCH  26  28
ATOM     28  C   UNL     1       5.806   4.080  13.629  0.00  0.00    +0.000 A 
ATOM     29  C   UNL     1       6.811   3.314  13.021  0.00  0.00    +0.000 A 
ATOM     30  C   UNL     1       6.534   2.546  11.886  0.00  0.00    +0.000 A 
ATOM     31  C   UNL     1       5.252   2.537  11.349  0.00  0.00    +0.000 A 
ATOM     32  C   UNL     1       4.251   3.308  11.925  0.00  0.00    +0.000 A 
ATOM     33  C   UNL     1       4.531   4.089  13.048  0.00  0.00    +0.000 A 
ENDBRANCH  26  28
ENDBRANCH  21  22
ENDBRANCH  15  21
TORSDOF 3
ENDMDL
MODEL 4
REMARK VINA RESULT:      -8.4      3.813     10.838
REMARK  Name = 
REMARK  5 active torsions:
REMARK  status: ('A' for Active; 'I' for Inactive)
REMARK    1  A    between atoms: C_1  and  C_2
REMARK    2  A    between atoms: C_4  and  C_5
REMARK    3  A    between atoms: N_15  and  C_16
REMARK    4  A    between atoms: C_16  and  C_17
REMARK    5  A    between atoms: C_21  and  C_22
REMARK                            x       y       z     vdW  Elec       q    Type
REMARK                         _______ _______ _______ _____ _____    ______ ____
ROOT
ATOM      1  C   UNL     1       2.249   3.672  21.679  0.00  0.00    +0.000 C 
ATOM      2  C   UNL     1       2.641   4.371  20.415  0.00  0.00    +0.000 A 
ATOM      3  C   UNL     1       3.368   3.744  19.430  0.00  0.00    +0.000 A 
ATOM      4  C   UNL     1       3.656   4.504  18.316  0.00  0.00    +0.000 A 
ATOM      5  C   UNL     1       4.438   3.944  17.169  0.00  0.00    +0.000 C 
ATOM      6  N   UNL     1       3.261   5.787  18.190  0.00  0.00    +0.000 NA
ATOM      7  C   UNL     1       2.561   6.335  19.192  0.00  0.00    +0.000 A 
ATOM      8  N   UNL     1       2.182   7.672  19.112  0.00  0.00    +0.000 N 
ATOM      9  C   UNL     1       1.010   7.992  19.914  0.00  0.00    +0.000 C 
ATOM     10  C   UNL     1       0.925   9.493  20.078  0.00  0.00    +0.000 C 
ATOM     11  C   UNL     1       0.912  10.252  18.726  0.00  0.00    +0.000 C 
ATOM     12  C   UNL     1      -0.385  10.031  17.913  0.00  0.00    +0.000 C 
ATOM     13  C   UNL     1      -1.625  10.552  18.637  0.00  0.00    +0.000 C 
ATOM     14  C   UNL     1      -1.414  11.997  19.058  0.00  0.00    +0.000 C 
ATOM     15  N   UNL     1      -0.149  12.167  19.754  0.00  0.00    +0.000 N 
ATOM     16  C   UNL     1       1.012  11.726  19.134  0.00  0.00    +0.000 C 
ATOM     17  O   UNL     1       2.049  12.380  19.101  0.00  0.00    +0.000 OA
ATOM     18  C   UNL     1       2.148   9.810  17.914  0.00  0.00    +0.000 C 
ATOM     19  C   UNL     1       2.260   8.285  17.789  0.00  0.00    +0.000 C 
ATOM     20  N   UNL     1       2.239   5.648  20.300  0.00  0.00    +0.000 NA
ENDROOT
BRANCH  15  21
ATOM     21  C   UNL     1      -0.055  13.118  20.848  0.00  0.00    +0.000 C 
BRANCH  21  22
ATOM     22  C   UNL     1      -0.802  14.396  20.554  0.00  0.00    +0.000 A 
ATOM     23  N   UNL     1      -0.457  15.236  19.556  0.00  0.00    +0.000 NA
ATOM     24  N   UNL     1      -1.395  16.180  19.648  0.00  0.00    +0.000 N 
ATOM     25  N   UNL     1      -2.321  16.061  20.607  0.00  0.00    +0.000 NA
ATOM     26  C   UNL     1      -1.967  14.910  21.210  0.00  0.00    +0.000 A 
ATOM     27  H   UNL     1      -1.411  16.966  19.004  0.00  0.00    +0.000 HD
BRANCH  26  28
ATOM     28  C   UNL     1      -2.753  14.354  22.310  0.00  0.00    +0.000 A 
ATOM     29  C   UNL     1      -3.650  13.306  22.064  0.00  0.00    +0.000 A 
ATOM     30  C   UNL     1      -4.370  12.721  23.111  0.00  0.00    +0.000 A 
ATOM     31  C   UNL     1      -4.198  13.180  24.413  0.00  0.00    +0.000 A 
ATOM     32  C   UNL     1      -3.329  14.233  24.670  0.00  0.00    +0.000 A 
ATOM     33  C   UNL     1      -2.624  14.828  23.623  0.00  0.00    +0.000 A 
ENDBRANCH  26  28
ENDBRANCH  21  22
ENDBRANCH  15  21
TORSDOF 3
ENDMDL
MODEL 5
REMARK VINA RESULT:      -8.3      3.705     10.535
REMARK  Name = 
REMARK  5 active torsions:
REMARK  status: ('A' for Active; 'I' for Inactive)
REMARK    1  A    between atoms: C_1  and  C_2
REMARK    2  A    between atoms: C_4  and  C_5
REMARK    3  A    between atoms: N_15  and  C_16
REMARK    4  A    between atoms: C_16  and  C_17
REMARK    5  A    between atoms: C_21  and  C_22
REMARK                            x       y       z     vdW  Elec       q    Type
REMARK                         _______ _______ _______ _____ _____    ______ ____
ROOT
ATOM      1  C   UNL     1       2.243   3.695  21.608  0.00  0.00    +0.000 C 
ATOM      2  C   UNL     1       2.725   4.445  20.406  0.00  0.00    +0.000 A 
ATOM      3  C   UNL     1       3.598   3.888  19.500  0.00  0.00    +0.000 A 
ATOM      4  C   UNL     1       3.955   4.688  18.436  0.00  0.00    +0.000 A 
ATOM      5  C   UNL     1       4.895   4.205  17.376  0.00  0.00    +0.000 C 
ATOM      6  N   UNL     1       3.492   5.945  18.284  0.00  0.00    +0.000 NA
ATOM      7  C   UNL     1       2.650   6.426  19.210  0.00  0.00    +0.000 A 
ATOM      8  N   UNL     1       2.193   7.736  19.105  0.00  0.00    +0.000 N 
ATOM      9  C   UNL     1       0.921   7.962  19.776  0.00  0.00    +0.000 C 
ATOM     10  C   UNL     1       0.718   9.451  19.950  0.00  0.00    +0.000 C 
ATOM     11  C   UNL     1       0.804  10.236  18.616  0.00  0.00    +0.000 C 
ATOM     12  C   UNL     1      -0.378   9.948  17.660  0.00  0.00    +0.000 C 
ATOM     13  C   UNL     1      -1.722  10.372  18.248  0.00  0.00    +0.000 C 
ATOM     14  C   UNL     1      -1.656  11.819  18.709  0.00  0.00    +0.000 C 
ATOM     15  N   UNL     1      -0.490  12.055  19.545  0.00  0.00    +0.000 N 
ATOM     16  C   UNL     1       0.759  11.704  19.053  0.00  0.00    +0.000 C 
ATOM     17  O   UNL     1       1.747  12.425  19.145  0.00  0.00    +0.000 OA
ATOM     18  C   UNL     1       2.149   9.892  17.942  0.00  0.00    +0.000 C 
ATOM     19  C   UNL     1       2.376   8.381  17.808  0.00  0.00    +0.000 C 
ATOM     20  N   UNL     1       2.254   5.695  20.265  0.00  0.00    +0.000 NA
ENDROOT
BRANCH  15  21
ATOM     21  C   UNL     1      -0.582  12.987  20.656  0.00  0.00    +0.000 C 
BRANCH  21  22
ATOM     22  C   UNL     1      -1.301  12.386  21.840  0.00  0.00    +0.000 A 
ATOM     23  N   UNL     1      -0.685  11.618  22.762  0.00  0.00    +0.000 NA
ATOM     24  N   UNL     1      -1.677  11.352  23.613  0.00  0.00    +0.000 N 
ATOM     25  N   UNL     1      -2.888  11.854  23.349  0.00  0.00    +0.000 NA
ATOM     26  C   UNL     1      -2.678  12.534  22.206  0.00  0.00    +0.000 A 
ATOM     27  H   UNL     1      -1.516  10.789  24.443  0.00  0.00    +0.000 HD
BRANCH  26  28
ATOM     28  C   UNL     1      -3.746  13.302  21.569  0.00  0.00    +0.000 A 
ATOM     29  C   UNL     1      -3.852  14.679  21.808  0.00  0.00    +0.000 A 
ATOM     30  C   UNL     1      -4.831  15.442  21.164  0.00  0.00    +0.000 A 
ATOM     31  C   UNL     1      -5.712  14.835  20.277  0.00  0.00    +0.000 A 
ATOM     32  C   UNL     1      -5.636  13.468  20.046  0.00  0.00    +0.000 A 
ATOM     33  C   UNL     1      -4.670  12.702  20.702  0.00  0.00    +0.000 A 
ENDBRANCH  26  28
ENDBRANCH  21  22
ENDBRANCH  15  21
TORSDOF 3
ENDMDL
MODEL 6
REMARK VINA RESULT:      -8.2      3.644      6.584
REMARK  Name = 
REMARK  5 active torsions:
REMARK  status: ('A' for Active; 'I' for Inactive)
REMARK    1  A    between atoms: C_1  and  C_2
REMARK    2  A    between atoms: C_4  and  C_5
REMARK    3  A    between atoms: N_15  and  C_16
REMARK    4  A    between atoms: C_16  and  C_17
REMARK    5  A    between atoms: C_21  and  C_22
REMARK                            x       y       z     vdW  Elec       q    Type
REMARK                         _______ _______ _______ _____ _____    ______ ____
ROOT
ATOM      1  C   UNL     1      -6.314  12.948  20.242  0.00  0.00    +0.000 C 
ATOM      2  C   UNL     1      -4.982  13.592  20.471  0.00  0.00    +0.000 A 
ATOM      3  C   UNL     1      -4.866  14.888  20.917  0.00  0.00    +0.000 A 
ATOM      4  C   UNL     1      -3.581  15.354  21.091  0.00  0.00    +0.000 A 
ATOM      5  C   UNL     1      -3.312  16.746  21.573  0.00  0.00    +0.000 C 
ATOM      6  N   UNL     1      -2.493  14.599  20.835  0.00  0.00    +0.000 NA
ATOM      7  C   UNL     1      -2.681  13.347  20.396  0.00  0.00    +0.000 A 
ATOM      8  N   UNL     1      -1.579  12.560  20.078  0.00  0.00    +0.000 N 
ATOM      9  C   UNL     1      -1.841  11.131  20.167  0.00  0.00    +0.000 C 
ATOM     10  C   UNL     1      -0.746  10.387  19.434  0.00  0.00    +0.000 C 
ATOM     11  C   UNL     1       0.675  10.736  19.947  0.00  0.00    +0.000 C 
ATOM     12  C   UNL     1       0.954  10.216  21.377  0.00  0.00    +0.000 C 
ATOM     13  C   UNL     1       0.896   8.692  21.466  0.00  0.00    +0.000 C 
ATOM     14  C   UNL     1       1.800   8.074  20.411  0.00  0.00    +0.000 C 
ATOM     15  N   UNL     1       1.549   8.647  19.098  0.00  0.00    +0.000 N 
ATOM     16  C   UNL     1       1.605  10.027  18.957  0.00  0.00    +0.000 C 
ATOM     17  O   UNL     1       2.174  10.587  18.027  0.00  0.00    +0.000 OA
ATOM     18  C   UNL     1       0.846  12.268  19.879  0.00  0.00    +0.000 C 
ATOM     19  C   UNL     1      -0.289  13.024  20.581  0.00  0.00    +0.000 C 
ATOM     20  N   UNL     1      -3.907  12.829  20.215  0.00  0.00    +0.000 NA
ENDROOT
BRANCH  15  21
ATOM     21  C   UNL     1       1.648   7.806  17.918  0.00  0.00    +0.000 C 
BRANCH  21  22
ATOM     22  C   UNL     1       2.976   7.092  17.842  0.00  0.00    +0.000 A 
ATOM     23  N   UNL     1       4.103   7.682  17.393  0.00  0.00    +0.000 NA
ATOM     24  N   UNL     1       5.005   6.710  17.538  0.00  0.00    +0.000 N 
ATOM     25  N   UNL     1       4.594   5.534  18.027  0.00  0.00    +0.000 NA
ATOM     26  C   UNL     1       3.282   5.750  18.238  0.00  0.00    +0.000 A 
ATOM     27  H   UNL     1       5.979   6.859  17.291  0.00  0.00    +0.000 HD
BRANCH  26  28
ATOM     28  C   UNL     1       2.427   4.722  18.829  0.00  0.00    +0.000 A 
ATOM     29  C   UNL     1       2.355   4.594  20.223  0.00  0.00    +0.000 A 
ATOM     30  C   UNL     1       1.500   3.656  20.810  0.00  0.00    +0.000 A 
ATOM     31  C   UNL     1       0.710   2.839  20.009  0.00  0.00    +0.000 A 
ATOM     32  C   UNL     1       0.786   2.938  18.626  0.00  0.00    +0.000 A 
ATOM     33  C   UNL     1       1.652   3.862  18.039  0.00  0.00    +0.000 A 
ENDBRANCH  26  28
ENDBRANCH  21  22
ENDBRANCH  15  21
TORSDOF 3
ENDMDL
MODEL 7
REMARK VINA RESULT:      -8.1      3.642      9.548
REMARK  Name = 
REMARK  5 active torsions:
REMARK  status: ('A' for Active; 'I' for Inactive)
REMARK    1  A    between atoms: C_1  and  C_2
REMARK    2  A    between atoms: C_4  and  C_5
REMARK    3  A    between atoms: N_15  and  C_16
REMARK    4  A    between atoms: C_16  and  C_17
REMARK    5  A    between atoms: C_21  and  C_22
REMARK                            x       y       z     vdW  Elec       q    Type
REMARK                         _______ _______ _______ _____ _____    ______ ____
ROOT
ATOM      1  C   UNL     1       2.209   3.621  21.803  0.00  0.00    +0.000 C 
ATOM      2  C   UNL     1       2.595   4.267  20.509  0.00  0.00    +0.000 A 
ATOM      3  C   UNL     1       3.290   3.591  19.534  0.00  0.00    +0.000 A 
ATOM      4  C   UNL     1       3.575   4.306  18.390  0.00  0.00    +0.000 A 
ATOM      5  C   UNL     1       4.324   3.690  17.250  0.00  0.00    +0.000 C 
ATOM      6  N   UNL     1       3.206   5.592  18.226  0.00  0.00    +0.000 NA
ATOM      7  C   UNL     1       2.537   6.190  19.221  0.00  0.00    +0.000 A 
ATOM      8  N   UNL     1       2.186   7.531  19.101  0.00  0.00    +0.000 N 
ATOM      9  C   UNL     1       1.036   7.905  19.911  0.00  0.00    +0.000 C 
ATOM     10  C   UNL     1       0.987   9.413  20.024  0.00  0.00    +0.000 C 
ATOM     11  C   UNL     1       0.967  10.126  18.648  0.00  0.00    +0.000 C 
ATOM     12  C   UNL     1      -0.349   9.907  17.865  0.00  0.00    +0.000 C 
ATOM     13  C   UNL     1      -1.565  10.479  18.592  0.00  0.00    +0.000 C 
ATOM     14  C   UNL     1      -1.314  11.933  18.958  0.00  0.00    +0.000 C 
ATOM     15  N   UNL     1      -0.033  12.098  19.627  0.00  0.00    +0.000 N 
ATOM     16  C   UNL     1       1.106  11.610  19.003  0.00  0.00    +0.000 C 
ATOM     17  O   UNL     1       2.157  12.238  18.930  0.00  0.00    +0.000 OA
ATOM     18  C   UNL     1       2.178   9.628  17.831  0.00  0.00    +0.000 C 
ATOM     19  C   UNL     1       2.254   8.097  17.756  0.00  0.00    +0.000 C 
ATOM     20  N   UNL     1       2.219   5.549  20.357  0.00  0.00    +0.000 NA
ENDROOT
BRANCH  15  21
ATOM     21  C   UNL     1       0.101  13.083  20.686  0.00  0.00    +0.000 C 
BRANCH  21  22
ATOM     22  C   UNL     1      -0.305  14.463  20.230  0.00  0.00    +0.000 A 
ATOM     23  N   UNL     1      -1.563  14.935  20.347  0.00  0.00    +0.000 NA
ATOM     24  N   UNL     1      -1.445  16.173  19.862  0.00  0.00    +0.000 N 
ATOM     25  N   UNL     1      -0.243  16.568  19.426  0.00  0.00    +0.000 NA
ATOM     26  C   UNL     1       0.520  15.483  19.656  0.00  0.00    +0.000 A 
ATOM     27  H   UNL     1      -2.243  16.800  19.829  0.00  0.00    +0.000 HD
BRANCH  26  28
ATOM     28  C   UNL     1       1.954  15.487  19.371  0.00  0.00    +0.000 A 
ATOM     29  C   UNL     1       2.873  15.330  20.418  0.00  0.00    +0.000 A 
ATOM     30  C   UNL     1       4.246  15.273  20.161  0.00  0.00    +0.000 A 
ATOM     31  C   UNL     1       4.713  15.374  18.855  0.00  0.00    +0.000 A 
ATOM     32  C   UNL     1       3.818  15.553  17.809  0.00  0.00    +0.000 A 
ATOM     33  C   UNL     1       2.448  15.627  18.066  0.00  0.00    +0.000 A 
ENDBRANCH  26  28
ENDBRANCH  21  22
ENDBRANCH  15  21
TORSDOF 3
ENDMDL
MODEL 8
REMARK VINA RESULT:      -8.0      3.788     10.752
REMARK  Name = 
REMARK  5 active torsions:
REMARK  status: ('A' for Active; 'I' for Inactive)
REMARK    1  A    between atoms: C_1  and  C_2
REMARK    2  A    between atoms: C_4  and  C_5
REMARK    3  A    between atoms: N_15  and  C_16
REMARK    4  A    between atoms: C_16  and  C_17
REMARK    5  A    between atoms: C_21  and  C_22
REMARK                            x       y       z     vdW  Elec       q    Type
REMARK                         _______ _______ _______ _____ _____    ______ ____
ROOT
ATOM      1  C   UNL     1       2.212   3.533  21.569  0.00  0.00    +0.000 C 
ATOM      2  C   UNL     1       2.667   4.281  20.355  0.00  0.00    +0.000 A 
ATOM      3  C   UNL     1       3.474   3.703  19.402  0.00  0.00    +0.000 A 
ATOM      4  C   UNL     1       3.813   4.504  18.332  0.00  0.00    +0.000 A 
ATOM      5  C   UNL     1       4.682   4.000  17.223  0.00  0.00    +0.000 C 
ATOM      6  N   UNL     1       3.393   5.780  18.218  0.00  0.00    +0.000 NA
ATOM      7  C   UNL     1       2.615   6.280  19.188  0.00  0.00    +0.000 A 
ATOM      8  N   UNL     1       2.206   7.608  19.121  0.00  0.00    +0.000 N 
ATOM      9  C   UNL     1       0.976   7.874  19.854  0.00  0.00    +0.000 C 
ATOM     10  C   UNL     1       0.841   9.367  20.056  0.00  0.00    +0.000 C 
ATOM     11  C   UNL     1       0.895  10.167  18.729  0.00  0.00    +0.000 C 
ATOM     12  C   UNL     1      -0.340   9.939  17.826  0.00  0.00    +0.000 C 
ATOM     13  C   UNL     1      -1.638  10.406  18.482  0.00  0.00    +0.000 C 
ATOM     14  C   UNL     1      -1.494  11.843  18.957  0.00  0.00    +0.000 C 
ATOM     15  N   UNL     1      -0.281  12.022  19.740  0.00  0.00    +0.000 N 
ATOM     16  C   UNL     1       0.929  11.630  19.185  0.00  0.00    +0.000 C 
ATOM     17  O   UNL     1       1.948  12.310  19.240  0.00  0.00    +0.000 OA
ATOM     18  C   UNL     1       2.192   9.781  17.988  0.00  0.00    +0.000 C 
ATOM     19  C   UNL     1       2.354   8.264  17.825  0.00  0.00    +0.000 C 
ATOM     20  N   UNL     1       2.240   5.550  20.252  0.00  0.00    +0.000 NA
ENDROOT
BRANCH  15  21
ATOM     21  C   UNL     1      -0.284  12.941  20.866  0.00  0.00    +0.000 C 
BRANCH  21  22
ATOM     22  C   UNL     1      -1.275  12.530  21.928  0.00  0.00    +0.000 A 
ATOM     23  N   UNL     1      -1.175  11.377  22.621  0.00  0.00    +0.000 NA
ATOM     24  N   UNL     1      -2.217  11.456  23.450  0.00  0.00    +0.000 N 
ATOM     25  N   UNL     1      -3.004  12.536  23.374  0.00  0.00    +0.000 NA
ATOM     26  C   UNL     1      -2.417  13.255  22.399  0.00  0.00    +0.000 A 
ATOM     27  H   UNL     1      -2.405  10.721  24.124  0.00  0.00    +0.000 HD
BRANCH  26  28
ATOM     28  C   UNL     1      -2.927  14.569  22.010  0.00  0.00    +0.000 A 
ATOM     29  C   UNL     1      -2.246  15.726  22.411  0.00  0.00    +0.000 A 
ATOM     30  C   UNL     1      -2.684  16.990  22.003  0.00  0.00    +0.000 A 
ATOM     31  C   UNL     1      -3.806  17.107  21.190  0.00  0.00    +0.000 A 
ATOM     32  C   UNL     1      -4.505  15.972  20.802  0.00  0.00    +0.000 A 
ATOM     33  C   UNL     1      -4.079  14.711  21.224  0.00  0.00    +0.000 A 
ENDBRANCH  26  28
ENDBRANCH  21  22
ENDBRANCH  15  21
TORSDOF 3
ENDMDL
MODEL 9
REMARK VINA RESULT:      -7.9      3.941     10.285
REMARK  Name = 
REMARK  5 active torsions:
REMARK  status: ('A' for Active; 'I' for Inactive)
REMARK    1  A    between atoms: C_1  and  C_2
REMARK    2  A    between atoms: C_4  and  C_5
REMARK    3  A    between atoms: N_15  and  C_16
REMARK    4  A    between atoms: C_16  and  C_17
REMARK    5  A    between atoms: C_21  and  C_22
REMARK                            x       y       z     vdW  Elec       q    Type
REMARK                         _______ _______ _______ _____ _____    ______ ____
ROOT
ATOM      1  C   UNL     1       2.255   3.809  21.589  0.00  0.00    +0.000 C 
ATOM      2  C   UNL     1       2.592   4.527  20.319  0.00  0.00    +0.000 A 
ATOM      3  C   UNL     1       3.253   3.908  19.285  0.00  0.00    +0.000 A 
ATOM      4  C   UNL     1       3.495   4.686  18.172  0.00  0.00    +0.000 A 
ATOM      5  C   UNL     1       4.204   4.136  16.974  0.00  0.00    +0.000 C 
ATOM      6  N   UNL     1       3.118   5.978  18.092  0.00  0.00    +0.000 NA
ATOM      7  C   UNL     1       2.484   6.518  19.142  0.00  0.00    +0.000 A 
ATOM      8  N   UNL     1       2.126   7.862  19.108  0.00  0.00    +0.000 N 
ATOM      9  C   UNL     1       1.005   8.186  19.978  0.00  0.00    +0.000 C 
ATOM     10  C   UNL     1       0.957   9.686  20.176  0.00  0.00    +0.000 C 
ATOM     11  C   UNL     1       0.886  10.472  18.842  0.00  0.00    +0.000 C 
ATOM     12  C   UNL     1      -0.457  10.291  18.096  0.00  0.00    +0.000 C 
ATOM     13  C   UNL     1      -1.646  10.819  18.896  0.00  0.00    +0.000 C 
ATOM     14  C   UNL     1      -1.386  12.251  19.332  0.00  0.00    +0.000 C 
ATOM     15  N   UNL     1      -0.082  12.384  19.963  0.00  0.00    +0.000 N 
ATOM     16  C   UNL     1       1.035  11.936  19.273  0.00  0.00    +0.000 C 
ATOM     17  O   UNL     1       2.081  12.571  19.196  0.00  0.00    +0.000 OA
ATOM     18  C   UNL     1       2.068  10.025  17.956  0.00  0.00    +0.000 C 
ATOM     19  C   UNL     1       2.145   8.501  17.795  0.00  0.00    +0.000 C 
ATOM     20  N   UNL     1       2.209   5.814  20.251  0.00  0.00    +0.000 NA
ENDROOT
BRANCH  15  21
ATOM     21  C   UNL     1       0.089  13.310  21.069  0.00  0.00    +0.000 C 
BRANCH  21  22
ATOM     22  C   UNL     1      -1.069  14.272  21.185  0.00  0.00    +0.000 A 
ATOM     23  N   UNL     1      -2.127  14.055  21.993  0.00  0.00    +0.000 NA
ATOM     24  N   UNL     1      -2.857  15.155  21.801  0.00  0.00    +0.000 N 
ATOM     25  N   UNL     1      -2.401  16.075  20.943  0.00  0.00    +0.000 NA
ATOM     26  C   UNL     1      -1.239  15.534  20.529  0.00  0.00    +0.000 A 
ATOM     27  H   UNL     1      -3.733  15.294  22.296  0.00  0.00    +0.000 HD
BRANCH  26  28
ATOM     28  C   UNL     1      -0.359  16.241  19.600  0.00  0.00    +0.000 A 
ATOM     29  C   UNL     1       1.032  16.143  19.748  0.00  0.00    +0.000 A 
ATOM     30  C   UNL     1       1.892  16.764  18.837  0.00  0.00    +0.000 A 
ATOM     31  C   UNL     1       1.369  17.487  17.771  0.00  0.00    +0.000 A 
ATOM     32  C   UNL     1      -0.006  17.612  17.623  0.00  0.00    +0.000 A 
ATOM     33  C   UNL     1      -0.865  17.008  18.542  0.00  0.00    +0.000 A 
ENDBRANCH  26  28
ENDBRANCH  21  22
ENDBRANCH  15  21
TORSDOF 3
ENDMDL
