MODEL 1
REMARK VINA RESULT:      -7.6      0.000      0.000
REMARK  Name = 
REMARK  11 active torsions:
REMARK  status: ('A' for Active; 'I' for Inactive)
REMARK    1  A    between atoms: C_1  and  O_2
REMARK    2  A    between atoms: O_2  and  C_3
REMARK    3  A    between atoms: C_6  and  C_7
REMARK    4  A    between atoms: C_7  and  C_9
REMARK    5  A    between atoms: C_9  and  S_10
REMARK    6  A    between atoms: S_10  and  C_11
REMARK    7  A    between atoms: C_14  and  C_15
REMARK    8  A    between atoms: C_15  and  N_16
REMARK    9  A    between atoms: N_16  and  C_17
REMARK   10  A    between atoms: C_20  and  C_21
REMARK   11  A    between atoms: C_23  and  C_24
REMARK                            x       y       z     vdW  Elec       q    Type
REMARK                         _______ _______ _______ _____ _____    ______ ____
ROOT
ATOM      1  C   UNL     1       2.790   3.446  20.165  0.00  0.00    +0.000 A 
ATOM      2  N   UNL     1       1.534   3.055  20.206  0.00  0.00    +0.000 NA
ATOM      3  N   UNL     1       0.784   4.162  20.545  0.00  0.00    +0.000 NA
ATOM      4  C   UNL     1       1.633   5.161  20.682  0.00  0.00    +0.000 A 
ATOM      5  O   UNL     1       2.931   4.783  20.447  0.00  0.00    +0.000 OA
ENDROOT
BRANCH   1   6
ATOM      6  S   UNL     1       4.137   2.406  19.837  0.00  0.00    +0.000 S 
BRANCH   6   7
ATOM      7  C   UNL     1       3.857   2.015  18.075  0.00  0.00    +0.000 C 
BRANCH   7   8
ATOM      8  C   UNL     1       3.359   3.239  17.319  0.00  0.00    +0.000 C 
ATOM      9  O   UNL     1       2.247   3.297  16.787  0.00  0.00    +0.000 OA
BRANCH   8  13
ATOM     10  C   UNL     1       6.018   6.619  16.950  0.00  0.00    +0.000 A 
ATOM     11  C   UNL     1       6.489   5.310  16.843  0.00  0.00    +0.000 A 
ATOM     12  C   UNL     1       5.606   4.235  16.965  0.00  0.00    +0.000 A 
ATOM     13  C   UNL     1       4.243   4.446  17.210  0.00  0.00    +0.000 A 
ATOM     14  C   UNL     1       3.777   5.759  17.345  0.00  0.00    +0.000 A 
ATOM     15  C   UNL     1       4.668   6.842  17.214  0.00  0.00    +0.000 A 
BRANCH  10  17
ATOM     16  C   UNL     1       7.921   7.662  17.887  0.00  0.00    +0.000 C 
ATOM     17  O   UNL     1       6.978   7.585  16.825  0.00  0.00    +0.000 OA
ENDBRANCH  10  17
ENDBRANCH   8  13
ENDBRANCH   7   8
ENDBRANCH   6   7
ENDBRANCH   1   6
BRANCH   4  18
ATOM     18  C   UNL     1       1.387   6.545  21.202  0.00  0.00    +0.000 C 
BRANCH  18  19
ATOM     19  N   UNL     1       1.981   7.675  20.456  0.00  0.00    +0.000 N 
ATOM     20  H   UNL     1       2.932   7.875  20.748  0.00  0.00    +0.000 HD
BRANCH  19  21
ATOM     21  C   UNL     1       1.198   8.834  20.290  0.00  0.00    +0.000 A 
ATOM     22  C   UNL     1       0.404   9.324  21.347  0.00  0.00    +0.000 A 
ATOM     23  C   UNL     1      -0.422  10.440  21.211  0.00  0.00    +0.000 A 
ATOM     24  C   UNL     1      -0.506  11.106  19.995  0.00  0.00    +0.000 A 
ATOM     25  C   UNL     1      -1.374  12.318  19.835  0.00  0.00    +0.000 C 
ATOM     26  C   UNL     1       0.230  10.614  18.916  0.00  0.00    +0.000 A 
ATOM     27  C   UNL     1       1.059   9.474  19.036  0.00  0.00    +0.000 A 
ATOM     28  C   UNL     1       1.782   9.026  17.791  0.00  0.00    +0.000 C 
ENDBRANCH  19  21
ENDBRANCH  18  19
ENDBRANCH   4  18
TORSDOF 8
ENDMDL
MODEL 2
REMARK VINA RESULT:      -7.4      3.231      7.674
REMARK  Name = 
REMARK  11 active torsions:
REMARK  status: ('A' for Active; 'I' for Inactive)
REMARK    1  A    between atoms: C_1  and  O_2
REMARK    2  A    between atoms: O_2  and  C_3
REMARK    3  A    between atoms: C_6  and  C_7
REMARK    4  A    between atoms: C_7  and  C_9
REMARK    5  A    between atoms: C_9  and  S_10
REMARK    6  A    between atoms: S_10  and  C_11
REMARK    7  A    between atoms: C_14  and  C_15
REMARK    8  A    between atoms: C_15  and  N_16
REMARK    9  A    between atoms: N_16  and  C_17
REMARK   10  A    between atoms: C_20  and  C_21
REMARK   11  A    between atoms: C_23  and  C_24
REMARK                            x       y       z     vdW  Elec       q    Type
REMARK                         _______ _______ _______ _____ _____    ______ ____
ROOT
ATOM      1  C   UNL     1       2.559   6.216  19.228  0.00  0.00    +0.000 A 
ATOM      2  N   UNL     1       1.950   5.397  18.395  0.00  0.00    +0.000 NA
ATOM      3  N   UNL     1       2.756   4.287  18.266  0.00  0.00    +0.000 NA
ATOM      4  C   UNL     1       3.806   4.496  19.036  0.00  0.00    +0.000 A 
ATOM      5  O   UNL     1       3.748   5.702  19.688  0.00  0.00    +0.000 OA
ENDROOT
BRANCH   1   6
ATOM      6  S   UNL     1       1.974   7.783  19.677  0.00  0.00    +0.000 S 
BRANCH   6   7
ATOM      7  C   UNL     1       1.767   8.564  18.039  0.00  0.00    +0.000 C 
BRANCH   7   8
ATOM      8  C   UNL     1       1.335  10.017  18.181  0.00  0.00    +0.000 C 
ATOM      9  O   UNL     1       2.136  10.954  18.252  0.00  0.00    +0.000 OA
BRANCH   8  13
ATOM     10  C   UNL     1      -2.901  10.842  18.236  0.00  0.00    +0.000 A 
ATOM     11  C   UNL     1      -2.359   9.883  17.380  0.00  0.00    +0.000 A 
ATOM     12  C   UNL     1      -0.985   9.635  17.384  0.00  0.00    +0.000 A 
ATOM     13  C   UNL     1      -0.126  10.349  18.230  0.00  0.00    +0.000 A 
ATOM     14  C   UNL     1      -0.668  11.330  19.069  0.00  0.00    +0.000 A 
ATOM     15  C   UNL     1      -2.055  11.573  19.069  0.00  0.00    +0.000 A 
BRANCH  10  17
ATOM     16  C   UNL     1      -4.709  11.701  16.980  0.00  0.00    +0.000 C 
ATOM     17  O   UNL     1      -4.255  11.003  18.133  0.00  0.00    +0.000 OA
ENDBRANCH  10  17
ENDBRANCH   8  13
ENDBRANCH   7   8
ENDBRANCH   6   7
ENDBRANCH   1   6
BRANCH   4  18
ATOM     18  C   UNL     1       5.070   3.698  19.148  0.00  0.00    +0.000 C 
BRANCH  18  19
ATOM     19  N   UNL     1       6.111   3.910  18.121  0.00  0.00    +0.000 N 
ATOM     20  H   UNL     1       6.792   3.158  18.098  0.00  0.00    +0.000 HD
BRANCH  19  21
ATOM     21  C   UNL     1       6.695   5.189  18.035  0.00  0.00    +0.000 A 
ATOM     22  C   UNL     1       7.645   5.612  18.987  0.00  0.00    +0.000 A 
ATOM     23  C   UNL     1       8.212   6.886  18.967  0.00  0.00    +0.000 A 
ATOM     24  C   UNL     1       7.835   7.807  17.997  0.00  0.00    +0.000 A 
ATOM     25  C   UNL     1       8.448   9.174  17.948  0.00  0.00    +0.000 C 
ATOM     26  C   UNL     1       6.859   7.434  17.071  0.00  0.00    +0.000 A 
ATOM     27  C   UNL     1       6.264   6.150  17.091  0.00  0.00    +0.000 A 
ATOM     28  C   UNL     1       5.205   5.877  16.054  0.00  0.00    +0.000 C 
ENDBRANCH  19  21
ENDBRANCH  18  19
ENDBRANCH   4  18
TORSDOF 8
ENDMDL
MODEL 3
REMARK VINA RESULT:      -7.3      4.583      7.800
REMARK  Name = 
REMARK  11 active torsions:
REMARK  status: ('A' for Active; 'I' for Inactive)
REMARK    1  A    between atoms: C_1  and  O_2
REMARK    2  A    between atoms: O_2  and  C_3
REMARK    3  A    between atoms: C_6  and  C_7
REMARK    4  A    between atoms: C_7  and  C_9
REMARK    5  A    between atoms: C_9  and  S_10
REMARK    6  A    between atoms: S_10  and  C_11
REMARK    7  A    between atoms: C_14  and  C_15
REMARK    8  A    between atoms: C_15  and  N_16
REMARK    9  A    between atoms: N_16  and  C_17
REMARK   10  A    between atoms: C_20  and  C_21
REMARK   11  A    between atoms: C_23  and  C_24
REMARK                            x       y       z     vdW  Elec       q    Type
REMARK                         _______ _______ _______ _____ _____    ______ ____
ROOT
ATOM      1  C   UNL     1       7.473   6.623  17.521  0.00  0.00    +0.000 A 
ATOM      2  N   UNL     1       7.809   6.691  16.250  0.00  0.00    +0.000 NA
ATOM      3  N   UNL     1       7.026   5.774  15.581  0.00  0.00    +0.000 NA
ATOM      4  C   UNL     1       6.255   5.209  16.490  0.00  0.00    +0.000 A 
ATOM      5  O   UNL     1       6.476   5.704  17.749  0.00  0.00    +0.000 OA
ENDROOT
BRANCH   1   6
ATOM      6  S   UNL     1       8.212   7.544  18.788  0.00  0.00    +0.000 S 
BRANCH   6   7
ATOM      7  C   UNL     1       8.349   9.185  17.997  0.00  0.00    +0.000 C 
BRANCH   7   8
ATOM      8  C   UNL     1       9.010  10.186  18.935  0.00  0.00    +0.000 C 
ATOM      9  O   UNL     1       9.135   9.992  20.147  0.00  0.00    +0.000 OA
BRANCH   8  13
ATOM     10  C   UNL     1      10.675  13.798  17.260  0.00  0.00    +0.000 A 
ATOM     11  C   UNL     1      11.375  12.592  17.225  0.00  0.00    +0.000 A 
ATOM     12  C   UNL     1      10.812  11.438  17.773  0.00  0.00    +0.000 A 
ATOM     13  C   UNL     1       9.549  11.470  18.378  0.00  0.00    +0.000 A 
ATOM     14  C   UNL     1       8.860  12.687  18.437  0.00  0.00    +0.000 A 
ATOM     15  C   UNL     1       9.426  13.848  17.877  0.00  0.00    +0.000 A 
BRANCH  10  17
ATOM     16  C   UNL     1      10.675  16.117  16.798  0.00  0.00    +0.000 C 
ATOM     17  O   UNL     1      11.334  14.859  16.703  0.00  0.00    +0.000 OA
ENDBRANCH  10  17
ENDBRANCH   8  13
ENDBRANCH   7   8
ENDBRANCH   6   7
ENDBRANCH   1   6
BRANCH   4  18
ATOM     18  C   UNL     1       5.336   4.033  16.349  0.00  0.00    +0.000 C 
BRANCH  18  19
ATOM     19  N   UNL     1       3.886   4.271  16.508  0.00  0.00    +0.000 N 
ATOM     20  H   UNL     1       3.604   5.186  16.171  0.00  0.00    +0.000 HD
BRANCH  19  21
ATOM     21  C   UNL     1       3.298   3.931  17.742  0.00  0.00    +0.000 A 
ATOM     22  C   UNL     1       3.177   2.583  18.135  0.00  0.00    +0.000 A 
ATOM     23  C   UNL     1       2.559   2.200  19.326  0.00  0.00    +0.000 A 
ATOM     24  C   UNL     1       2.011   3.156  20.171  0.00  0.00    +0.000 A 
ATOM     25  C   UNL     1       1.361   2.765  21.464  0.00  0.00    +0.000 C 
ATOM     26  C   UNL     1       2.070   4.496  19.784  0.00  0.00    +0.000 A 
ATOM     27  C   UNL     1       2.681   4.897  18.572  0.00  0.00    +0.000 A 
ATOM     28  C   UNL     1       2.658   6.370  18.255  0.00  0.00    +0.000 C 
ENDBRANCH  19  21
ENDBRANCH  18  19
ENDBRANCH   4  18
TORSDOF 8
ENDMDL
MODEL 4
REMARK VINA RESULT:      -7.3      3.439      7.442
REMARK  Name = 
REMARK  11 active torsions:
REMARK  status: ('A' for Active; 'I' for Inactive)
REMARK    1  A    between atoms: C_1  and  O_2
REMARK    2  A    between atoms: O_2  and  C_3
REMARK    3  A    between atoms: C_6  and  C_7
REMARK    4  A    between atoms: C_7  and  C_9
REMARK    5  A    between atoms: C_9  and  S_10
REMARK    6  A    between atoms: S_10  and  C_11
REMARK    7  A    between atoms: C_14  and  C_15
REMARK    8  A    between atoms: C_15  and  N_16
REMARK    9  A    between atoms: N_16  and  C_17
REMARK   10  A    between atoms: C_20  and  C_21
REMARK   11  A    between atoms: C_23  and  C_24
REMARK                            x       y       z     vdW  Elec       q    Type
REMARK                         _______ _______ _______ _____ _____    ______ ____
ROOT
ATOM      1  C   UNL     1       5.279   4.345  18.944  0.00  0.00    +0.000 A 
ATOM      2  N   UNL     1       6.117   4.999  19.721  0.00  0.00    +0.000 NA
ATOM      3  N   UNL     1       6.763   5.920  18.924  0.00  0.00    +0.000 NA
ATOM      4  C   UNL     1       6.271   5.773  17.710  0.00  0.00    +0.000 A 
ATOM      5  O   UNL     1       5.314   4.793  17.645  0.00  0.00    +0.000 OA
ENDROOT
BRANCH   1   6
ATOM      6  S   UNL     1       4.267   3.038  19.461  0.00  0.00    +0.000 S 
BRANCH   6   7
ATOM      7  C   UNL     1       2.608   3.778  19.265  0.00  0.00    +0.000 C 
BRANCH   7   8
ATOM      8  C   UNL     1       2.377   4.874  20.297  0.00  0.00    +0.000 C 
ATOM      9  O   UNL     1       2.384   4.666  21.513  0.00  0.00    +0.000 OA
BRANCH   8  13
ATOM     10  C   UNL     1       1.719   8.875  18.820  0.00  0.00    +0.000 A 
ATOM     11  C   UNL     1       2.318   7.898  18.025  0.00  0.00    +0.000 A 
ATOM     12  C   UNL     1       2.517   6.610  18.528  0.00  0.00    +0.000 A 
ATOM     13  C   UNL     1       2.137   6.280  19.835  0.00  0.00    +0.000 A 
ATOM     14  C   UNL     1       1.561   7.270  20.640  0.00  0.00    +0.000 A 
ATOM     15  C   UNL     1       1.354   8.566  20.129  0.00  0.00    +0.000 A 
BRANCH  10  17
ATOM     16  C   UNL     1       0.859  11.073  18.959  0.00  0.00    +0.000 C 
ATOM     17  O   UNL     1       1.588  10.098  18.222  0.00  0.00    +0.000 OA
ENDBRANCH  10  17
ENDBRANCH   8  13
ENDBRANCH   7   8
ENDBRANCH   6   7
ENDBRANCH   1   6
BRANCH   4  18
ATOM     18  C   UNL     1       6.727   6.395  16.424  0.00  0.00    +0.000 C 
BRANCH  18  19
ATOM     19  N   UNL     1       7.575   5.581  15.529  0.00  0.00    +0.000 N 
ATOM     20  H   UNL     1       8.423   6.065  15.251  0.00  0.00    +0.000 HD
BRANCH  19  21
ATOM     21  C   UNL     1       6.946   4.910  14.462  0.00  0.00    +0.000 A 
ATOM     22  C   UNL     1       5.867   4.034  14.697  0.00  0.00    +0.000 A 
ATOM     23  C   UNL     1       5.247   3.315  13.676  0.00  0.00    +0.000 A 
ATOM     24  C   UNL     1       5.697   3.426  12.366  0.00  0.00    +0.000 A 
ATOM     25  C   UNL     1       5.031   2.675  11.252  0.00  0.00    +0.000 C 
ATOM     26  C   UNL     1       6.796   4.247  12.109  0.00  0.00    +0.000 A 
ATOM     27  C   UNL     1       7.444   4.970  13.139  0.00  0.00    +0.000 A 
ATOM     28  C   UNL     1       8.635   5.802  12.737  0.00  0.00    +0.000 C 
ENDBRANCH  19  21
ENDBRANCH  18  19
ENDBRANCH   4  18
TORSDOF 8
ENDMDL
MODEL 5
REMARK VINA RESULT:      -7.2      3.318      7.152
REMARK  Name = 
REMARK  11 active torsions:
REMARK  status: ('A' for Active; 'I' for Inactive)
REMARK    1  A    between atoms: C_1  and  O_2
REMARK    2  A    between atoms: O_2  and  C_3
REMARK    3  A    between atoms: C_6  and  C_7
REMARK    4  A    between atoms: C_7  and  C_9
REMARK    5  A    between atoms: C_9  and  S_10
REMARK    6  A    between atoms: S_10  and  C_11
REMARK    7  A    between atoms: C_14  and  C_15
REMARK    8  A    between atoms: C_15  and  N_16
REMARK    9  A    between atoms: N_16  and  C_17
REMARK   10  A    between atoms: C_20  and  C_21
REMARK   11  A    between atoms: C_23  and  C_24
REMARK                            x       y       z     vdW  Elec       q    Type
REMARK                         _______ _______ _______ _____ _____    ______ ____
ROOT
ATOM      1  C   UNL     1       5.199   3.822  19.276  0.00  0.00    +0.000 A 
ATOM      2  N   UNL     1       5.286   5.058  19.721  0.00  0.00    +0.000 NA
ATOM      3  N   UNL     1       6.137   5.729  18.867  0.00  0.00    +0.000 NA
ATOM      4  C   UNL     1       6.509   4.858  17.950  0.00  0.00    +0.000 A 
ATOM      5  O   UNL     1       5.945   3.622  18.139  0.00  0.00    +0.000 OA
ENDROOT
BRANCH   1   6
ATOM      6  S   UNL     1       4.289   2.561  20.039  0.00  0.00    +0.000 S 
BRANCH   6   7
ATOM      7  C   UNL     1       3.111   2.126  18.712  0.00  0.00    +0.000 C 
BRANCH   7   8
ATOM      8  C   UNL     1       1.817   2.915  18.854  0.00  0.00    +0.000 C 
ATOM      9  O   UNL     1       0.700   2.390  18.827  0.00  0.00    +0.000 OA
BRANCH   8  13
ATOM     10  C   UNL     1       1.991   7.209  19.248  0.00  0.00    +0.000 A 
ATOM     11  C   UNL     1       2.182   6.585  18.015  0.00  0.00    +0.000 A 
ATOM     12  C   UNL     1       2.119   5.194  17.916  0.00  0.00    +0.000 A 
ATOM     13  C   UNL     1       1.879   4.401  19.046  0.00  0.00    +0.000 A 
ATOM     14  C   UNL     1       1.714   5.028  20.287  0.00  0.00    +0.000 A 
ATOM     15  C   UNL     1       1.771   6.432  20.383  0.00  0.00    +0.000 A 
BRANCH  10  17
ATOM     16  C   UNL     1       2.162   9.164  17.929  0.00  0.00    +0.000 C 
ATOM     17  O   UNL     1       2.087   8.573  19.221  0.00  0.00    +0.000 OA
ENDBRANCH  10  17
ENDBRANCH   8  13
ENDBRANCH   7   8
ENDBRANCH   6   7
ENDBRANCH   1   6
BRANCH   4  18
ATOM     18  C   UNL     1       7.550   4.999  16.881  0.00  0.00    +0.000 C 
BRANCH  18  19
ATOM     19  N   UNL     1       7.182   5.740  15.657  0.00  0.00    +0.000 N 
ATOM     20  H   UNL     1       6.626   6.566  15.855  0.00  0.00    +0.000 HD
BRANCH  19  21
ATOM     21  C   UNL     1       6.698   4.997  14.562  0.00  0.00    +0.000 A 
ATOM     22  C   UNL     1       5.578   4.153  14.703  0.00  0.00    +0.000 A 
ATOM     23  C   UNL     1       5.095   3.365  13.659  0.00  0.00    +0.000 A 
ATOM     24  C   UNL     1       5.730   3.370  12.424  0.00  0.00    +0.000 A 
ATOM     25  C   UNL     1       5.214   2.545  11.284  0.00  0.00    +0.000 C 
ATOM     26  C   UNL     1       6.872   4.158  12.268  0.00  0.00    +0.000 A 
ATOM     27  C   UNL     1       7.381   4.951  13.324  0.00  0.00    +0.000 A 
ATOM     28  C   UNL     1       8.636   5.737  13.039  0.00  0.00    +0.000 C 
ENDBRANCH  19  21
ENDBRANCH  18  19
ENDBRANCH   4  18
TORSDOF 8
ENDMDL
MODEL 6
REMARK VINA RESULT:      -7.1      2.036      2.775
REMARK  Name = 
REMARK  11 active torsions:
REMARK  status: ('A' for Active; 'I' for Inactive)
REMARK    1  A    between atoms: C_1  and  O_2
REMARK    2  A    between atoms: O_2  and  C_3
REMARK    3  A    between atoms: C_6  and  C_7
REMARK    4  A    between atoms: C_7  and  C_9
REMARK    5  A    between atoms: C_9  and  S_10
REMARK    6  A    between atoms: S_10  and  C_11
REMARK    7  A    between atoms: C_14  and  C_15
REMARK    8  A    between atoms: C_15  and  N_16
REMARK    9  A    between atoms: N_16  and  C_17
REMARK   10  A    between atoms: C_20  and  C_21
REMARK   11  A    between atoms: C_23  and  C_24
REMARK                            x       y       z     vdW  Elec       q    Type
REMARK                         _______ _______ _______ _____ _____    ______ ____
ROOT
ATOM      1  C   UNL     1       2.161   4.885  18.970  0.00  0.00    +0.000 A 
ATOM      2  N   UNL     1       2.050   5.369  20.190  0.00  0.00    +0.000 NA
ATOM      3  N   UNL     1       2.151   6.740  20.084  0.00  0.00    +0.000 NA
ATOM      4  C   UNL     1       2.310   7.006  18.803  0.00  0.00    +0.000 A 
ATOM      5  O   UNL     1       2.319   5.874  18.029  0.00  0.00    +0.000 OA
ENDROOT
BRANCH   1   6
ATOM      6  S   UNL     1       2.154   3.199  18.573  0.00  0.00    +0.000 S 
BRANCH   6   7
ATOM      7  C   UNL     1       3.780   3.023  17.760  0.00  0.00    +0.000 C 
BRANCH   7   8
ATOM      8  C   UNL     1       4.903   3.458  18.692  0.00  0.00    +0.000 C 
ATOM      9  O   UNL     1       5.164   2.877  19.749  0.00  0.00    +0.000 OA
BRANCH   8  13
ATOM     10  C   UNL     1       7.231   6.897  17.517  0.00  0.00    +0.000 A 
ATOM     11  C   UNL     1       6.195   6.415  16.718  0.00  0.00    +0.000 A 
ATOM     12  C   UNL     1       5.456   5.301  17.123  0.00  0.00    +0.000 A 
ATOM     13  C   UNL     1       5.748   4.641  18.323  0.00  0.00    +0.000 A 
ATOM     14  C   UNL     1       6.807   5.109  19.111  0.00  0.00    +0.000 A 
ATOM     15  C   UNL     1       7.545   6.237  18.704  0.00  0.00    +0.000 A 
BRANCH  10  17
ATOM     16  C   UNL     1       8.133   9.043  17.926  0.00  0.00    +0.000 C 
ATOM     17  O   UNL     1       7.888   7.984  17.009  0.00  0.00    +0.000 OA
ENDBRANCH  10  17
ENDBRANCH   8  13
ENDBRANCH   7   8
ENDBRANCH   6   7
ENDBRANCH   1   6
BRANCH   4  18
ATOM     18  C   UNL     1       2.637   8.311  18.142  0.00  0.00    +0.000 C 
BRANCH  18  19
ATOM     19  N   UNL     1       1.516   9.219  17.822  0.00  0.00    +0.000 N 
ATOM     20  H   UNL     1       1.303   9.237  16.830  0.00  0.00    +0.000 HD
BRANCH  19  21
ATOM     21  C   UNL     1       1.522  10.499  18.410  0.00  0.00    +0.000 A 
ATOM     22  C   UNL     1       2.334  11.527  17.889  0.00  0.00    +0.000 A 
ATOM     23  C   UNL     1       2.406  12.794  18.468  0.00  0.00    +0.000 A 
ATOM     24  C   UNL     1       1.679  13.083  19.616  0.00  0.00    +0.000 A 
ATOM     25  C   UNL     1       1.729  14.444  20.241  0.00  0.00    +0.000 C 
ATOM     26  C   UNL     1       0.905  12.070  20.184  0.00  0.00    +0.000 A 
ATOM     27  C   UNL     1       0.836  10.776  19.615  0.00  0.00    +0.000 A 
ATOM     28  C   UNL     1      -0.015   9.762  20.337  0.00  0.00    +0.000 C 
ENDBRANCH  19  21
ENDBRANCH  18  19
ENDBRANCH   4  18
TORSDOF 8
ENDMDL
MODEL 7
REMARK VINA RESULT:      -7.1      2.508      3.630
REMARK  Name = 
REMARK  11 active torsions:
REMARK  status: ('A' for Active; 'I' for Inactive)
REMARK    1  A    between atoms: C_1  and  O_2
REMARK    2  A    between atoms: O_2  and  C_3
REMARK    3  A    between atoms: C_6  and  C_7
REMARK    4  A    between atoms: C_7  and  C_9
REMARK    5  A    between atoms: C_9  and  S_10
REMARK    6  A    between atoms: S_10  and  C_11
REMARK    7  A    between atoms: C_14  and  C_15
REMARK    8  A    between atoms: C_15  and  N_16
REMARK    9  A    between atoms: N_16  and  C_17
REMARK   10  A    between atoms: C_20  and  C_21
REMARK   11  A    between atoms: C_23  and  C_24
REMARK                            x       y       z     vdW  Elec       q    Type
REMARK                         _______ _______ _______ _____ _____    ______ ____
ROOT
ATOM      1  C   UNL     1       2.655   7.142  19.040  0.00  0.00    +0.000 A 
ATOM      2  N   UNL     1       3.209   7.356  17.866  0.00  0.00    +0.000 NA
ATOM      3  N   UNL     1       2.713   8.557  17.404  0.00  0.00    +0.000 NA
ATOM      4  C   UNL     1       1.891   9.003  18.332  0.00  0.00    +0.000 A 
ATOM      5  O   UNL     1       1.807   8.159  19.411  0.00  0.00    +0.000 OA
ENDROOT
BRANCH   1   6
ATOM      6  S   UNL     1       2.912   5.731  20.011  0.00  0.00    +0.000 S 
BRANCH   6   7
ATOM      7  C   UNL     1       2.340   4.416  18.879  0.00  0.00    +0.000 C 
BRANCH   7   8
ATOM      8  C   UNL     1       3.483   3.479  18.514  0.00  0.00    +0.000 C 
ATOM      9  O   UNL     1       3.508   2.288  18.839  0.00  0.00    +0.000 OA
BRANCH   8  13
ATOM     10  C   UNL     1       6.715   4.996  16.089  0.00  0.00    +0.000 A 
ATOM     11  C   UNL     1       5.535   4.523  15.513  0.00  0.00    +0.000 A 
ATOM     12  C   UNL     1       4.505   4.039  16.322  0.00  0.00    +0.000 A 
ATOM     13  C   UNL     1       4.639   4.004  17.716  0.00  0.00    +0.000 A 
ATOM     14  C   UNL     1       5.834   4.453  18.290  0.00  0.00    +0.000 A 
ATOM     15  C   UNL     1       6.869   4.948  17.473  0.00  0.00    +0.000 A 
BRANCH  10  17
ATOM     16  C   UNL     1       7.384   5.152  13.827  0.00  0.00    +0.000 C 
ATOM     17  O   UNL     1       7.654   5.432  15.195  0.00  0.00    +0.000 OA
ENDBRANCH  10  17
ENDBRANCH   8  13
ENDBRANCH   7   8
ENDBRANCH   6   7
ENDBRANCH   1   6
BRANCH   4  18
ATOM     18  C   UNL     1       0.955  10.173  18.283  0.00  0.00    +0.000 C 
BRANCH  18  19
ATOM     19  N   UNL     1      -0.345   9.985  17.604  0.00  0.00    +0.000 N 
ATOM     20  H   UNL     1      -0.265  10.036  16.593  0.00  0.00    +0.000 HD
BRANCH  19  21
ATOM     21  C   UNL     1      -1.455  10.692  18.107  0.00  0.00    +0.000 A 
ATOM     22  C   UNL     1      -1.364  11.407  19.318  0.00  0.00    +0.000 A 
ATOM     23  C   UNL     1      -2.451  12.081  19.876  0.00  0.00    +0.000 A 
ATOM     24  C   UNL     1      -3.692  12.049  19.252  0.00  0.00    +0.000 A 
ATOM     25  C   UNL     1      -4.866  12.782  19.826  0.00  0.00    +0.000 C 
ATOM     26  C   UNL     1      -3.825  11.306  18.077  0.00  0.00    +0.000 A 
ATOM     27  C   UNL     1      -2.734  10.606  17.509  0.00  0.00    +0.000 A 
ATOM     28  C   UNL     1      -3.012   9.820  16.253  0.00  0.00    +0.000 C 
ENDBRANCH  19  21
ENDBRANCH  18  19
ENDBRANCH   4  18
TORSDOF 8
ENDMDL
MODEL 8
REMARK VINA RESULT:      -7.1      5.867      9.238
REMARK  Name = 
REMARK  11 active torsions:
REMARK  status: ('A' for Active; 'I' for Inactive)
REMARK    1  A    between atoms: C_1  and  O_2
REMARK    2  A    between atoms: O_2  and  C_3
REMARK    3  A    between atoms: C_6  and  C_7
REMARK    4  A    between atoms: C_7  and  C_9
REMARK    5  A    between atoms: C_9  and  S_10
REMARK    6  A    between atoms: S_10  and  C_11
REMARK    7  A    between atoms: C_14  and  C_15
REMARK    8  A    between atoms: C_15  and  N_16
REMARK    9  A    between atoms: N_16  and  C_17
REMARK   10  A    between atoms: C_20  and  C_21
REMARK   11  A    between atoms: C_23  and  C_24
REMARK                            x       y       z     vdW  Elec       q    Type
REMARK                         _______ _______ _______ _____ _____    ______ ____
ROOT
ATOM      1  C   UNL     1       8.465   8.807  18.498  0.00  0.00    +0.000 A 
ATOM      2  N   UNL     1       7.798   8.770  17.363  0.00  0.00    +0.000 NA
ATOM      3  N   UNL     1       7.409   7.461  17.172  0.00  0.00    +0.000 NA
ATOM      4  C   UNL     1       7.860   6.783  18.209  0.00  0.00    +0.000 A 
ATOM      5  O   UNL     1       8.536   7.575  19.102  0.00  0.00    +0.000 OA
ENDROOT
BRANCH   1   6
ATOM      6  S   UNL     1       9.214  10.223  19.158  0.00  0.00    +0.000 S 
BRANCH   6   7
ATOM      7  C   UNL     1       9.788  11.057  17.637  0.00  0.00    +0.000 C 
BRANCH   7   8
ATOM      8  C   UNL     1      10.886  12.063  17.952  0.00  0.00    +0.000 C 
ATOM      9  O   UNL     1      12.009  11.734  18.344  0.00  0.00    +0.000 OA
BRANCH   8  13
ATOM     10  C   UNL     1      10.234  16.288  17.356  0.00  0.00    +0.000 A 
ATOM     11  C   UNL     1      11.440  15.682  17.001  0.00  0.00    +0.000 A 
ATOM     12  C   UNL     1      11.623  14.312  17.203  0.00  0.00    +0.000 A 
ATOM     13  C   UNL     1      10.615  13.528  17.777  0.00  0.00    +0.000 A 
ATOM     14  C   UNL     1       9.416  14.142  18.158  0.00  0.00    +0.000 A 
ATOM     15  C   UNL     1       9.230  15.522  17.946  0.00  0.00    +0.000 A 
BRANCH  10  17
ATOM     16  C   UNL     1       9.594  18.420  18.153  0.00  0.00    +0.000 C 
ATOM     17  O   UNL     1      10.178  17.634  17.121  0.00  0.00    +0.000 OA
ENDBRANCH  10  17
ENDBRANCH   8  13
ENDBRANCH   7   8
ENDBRANCH   6   7
ENDBRANCH   1   6
BRANCH   4  18
ATOM     18  C   UNL     1       7.870   5.301  18.437  0.00  0.00    +0.000 C 
BRANCH  18  19
ATOM     19  N   UNL     1       7.139   4.452  17.473  0.00  0.00    +0.000 N 
ATOM     20  H   UNL     1       7.417   4.629  16.513  0.00  0.00    +0.000 HD
BRANCH  19  21
ATOM     21  C   UNL     1       5.745   4.331  17.632  0.00  0.00    +0.000 A 
ATOM     22  C   UNL     1       5.175   4.205  18.915  0.00  0.00    +0.000 A 
ATOM     23  C   UNL     1       3.805   4.035  19.115  0.00  0.00    +0.000 A 
ATOM     24  C   UNL     1       2.941   3.963  18.030  0.00  0.00    +0.000 A 
ATOM     25  C   UNL     1       1.464   3.801  18.226  0.00  0.00    +0.000 C 
ATOM     26  C   UNL     1       3.482   4.035  16.745  0.00  0.00    +0.000 A 
ATOM     27  C   UNL     1       4.872   4.191  16.528  0.00  0.00    +0.000 A 
ATOM     28  C   UNL     1       5.334   4.230  15.094  0.00  0.00    +0.000 C 
ENDBRANCH  19  21
ENDBRANCH  18  19
ENDBRANCH   4  18
TORSDOF 8
ENDMDL
MODEL 9
REMARK VINA RESULT:      -7.0      1.939      2.821
REMARK  Name = 
REMARK  11 active torsions:
REMARK  status: ('A' for Active; 'I' for Inactive)
REMARK    1  A    between atoms: C_1  and  O_2
REMARK    2  A    between atoms: O_2  and  C_3
REMARK    3  A    between atoms: C_6  and  C_7
REMARK    4  A    between atoms: C_7  and  C_9
REMARK    5  A    between atoms: C_9  and  S_10
REMARK    6  A    between atoms: S_10  and  C_11
REMARK    7  A    between atoms: C_14  and  C_15
REMARK    8  A    between atoms: C_15  and  N_16
REMARK    9  A    between atoms: N_16  and  C_17
REMARK   10  A    between atoms: C_20  and  C_21
REMARK   11  A    between atoms: C_23  and  C_24
REMARK                            x       y       z     vdW  Elec       q    Type
REMARK                         _______ _______ _______ _____ _____    ______ ____
ROOT
ATOM      1  C   UNL     1       2.845   5.609  18.847  0.00  0.00    +0.000 A 
ATOM      2  N   UNL     1       2.532   6.028  20.055  0.00  0.00    +0.000 NA
ATOM      3  N   UNL     1       2.162   7.350  19.934  0.00  0.00    +0.000 NA
ATOM      4  C   UNL     1       2.267   7.652  18.656  0.00  0.00    +0.000 A 
ATOM      5  O   UNL     1       2.690   6.590  17.898  0.00  0.00    +0.000 OA
ENDROOT
BRANCH   1   6
ATOM      6  S   UNL     1       3.430   4.021  18.473  0.00  0.00    +0.000 S 
BRANCH   6   7
ATOM      7  C   UNL     1       3.807   4.196  16.695  0.00  0.00    +0.000 C 
BRANCH   7   8
ATOM      8  C   UNL     1       5.307   4.108  16.447  0.00  0.00    +0.000 C 
ATOM      9  O   UNL     1       5.820   3.257  15.715  0.00  0.00    +0.000 OA
BRANCH   8  13
ATOM     10  C   UNL     1       7.852   7.073  18.279  0.00  0.00    +0.000 A 
ATOM     11  C   UNL     1       6.949   7.414  17.272  0.00  0.00    +0.000 A 
ATOM     12  C   UNL     1       6.136   6.434  16.697  0.00  0.00    +0.000 A 
ATOM     13  C   UNL     1       6.220   5.097  17.106  0.00  0.00    +0.000 A 
ATOM     14  C   UNL     1       7.146   4.752  18.098  0.00  0.00    +0.000 A 
ATOM     15  C   UNL     1       7.959   5.743  18.682  0.00  0.00    +0.000 A 
BRANCH  10  17
ATOM     16  C   UNL     1       8.414   9.362  18.097  0.00  0.00    +0.000 C 
ATOM     17  O   UNL     1       8.600   8.114  18.755  0.00  0.00    +0.000 OA
ENDBRANCH  10  17
ENDBRANCH   8  13
ENDBRANCH   7   8
ENDBRANCH   6   7
ENDBRANCH   1   6
BRANCH   4  18
ATOM     18  C   UNL     1       2.152   8.990  17.988  0.00  0.00    +0.000 C 
BRANCH  18  19
ATOM     19  N   UNL     1       0.818   9.404  17.504  0.00  0.00    +0.000 N 
ATOM     20  H   UNL     1       0.833   9.707  16.536  0.00  0.00    +0.000 HD
BRANCH  19  21
ATOM     21  C   UNL     1       0.053  10.245  18.336  0.00  0.00    +0.000 A 
ATOM     22  C   UNL     1       0.590  10.755  19.535  0.00  0.00    +0.000 A 
ATOM     23  C   UNL     1      -0.148  11.552  20.410  0.00  0.00    +0.000 A 
ATOM     24  C   UNL     1      -1.474  11.858  20.131  0.00  0.00    +0.000 A 
ATOM     25  C   UNL     1      -2.277  12.729  21.050  0.00  0.00    +0.000 C 
ATOM     26  C   UNL     1      -2.049  11.326  18.976  0.00  0.00    +0.000 A 
ATOM     27  C   UNL     1      -1.316  10.504  18.088  0.00  0.00    +0.000 A 
ATOM     28  C   UNL     1      -2.057   9.970  16.888  0.00  0.00    +0.000 C 
ENDBRANCH  19  21
ENDBRANCH  18  19
ENDBRANCH   4  18
TORSDOF 8
ENDMDL
