MODEL 1
REMARK VINA RESULT:      -8.5      0.000      0.000
REMARK  Name = 
REMARK  12 active torsions:
REMARK  status: ('A' for Active; 'I' for Inactive)
REMARK    1  A    between atoms: C_1  and  C_2
REMARK    2  A    between atoms: C_2  and  C_3
REMARK    3  A    between atoms: C_2  and  C_4
REMARK    4  A    between atoms: C_8  and  C_9
REMARK    5  A    between atoms: C_9  and  C_10
REMARK    6  A    between atoms: C_9  and  C_11
REMARK    7  A    between atoms: C_12  and  N_13
REMARK    8  A    between atoms: N_16  and  C_17
REMARK    9  A    between atoms: C_17  and  C_18
REMARK   10  A    between atoms: C_18  and  N_19
REMARK   11  A    between atoms: C_18  and  C_32
REMARK   12  A    between atoms: C_20  and  C_22
REMARK                            x       y       z     vdW  Elec       q    Type
REMARK                         _______ _______ _______ _____ _____    ______ ____
ROOT
ATOM      1  C   UNL     1       0.441  10.999  18.615  0.00  0.00    +0.000 C 
ENDROOT
BRANCH   1   2
ATOM      2  C   UNL     1       1.531  12.009  19.026  0.00  0.00    +0.000 A 
ATOM      3  C   UNL     1       1.571  12.507  20.342  0.00  0.00    +0.000 A 
ATOM      4  C   UNL     1       2.415  13.572  20.689  0.00  0.00    +0.000 A 
ATOM      5  C   UNL     1       3.231  14.160  19.725  0.00  0.00    +0.000 A 
ATOM      6  C   UNL     1       3.233  13.670  18.428  0.00  0.00    +0.000 A 
ATOM      7  C   UNL     1       2.399  12.599  18.086  0.00  0.00    +0.000 A 
ENDBRANCH   1   2
BRANCH   1   8
ATOM      8  N   UNL     1      -0.955  11.462  18.803  0.00  0.00    +0.000 N 
ATOM      9  C   UNL     1      -1.994  11.132  17.960  0.00  0.00    +0.000 C 
ATOM     10  O   UNL     1      -1.815  10.451  16.951  0.00  0.00    +0.000 OA
ATOM     11  H   UNL     1      -1.134  12.164  19.513  0.00  0.00    +0.000 HD
BRANCH   9  12
ATOM     12  C   UNL     1      -3.408  11.574  18.259  0.00  0.00    +0.000 A 
ATOM     13  C   UNL     1      -4.318  11.287  17.249  0.00  0.00    +0.000 A 
ATOM     14  C   UNL     1      -5.620  11.738  17.351  0.00  0.00    +0.000 A 
ATOM     15  C   UNL     1      -6.026  12.369  18.516  0.00  0.00    +0.000 A 
ATOM     16  C   UNL     1      -7.387  12.686  18.659  0.00  0.00    +0.000 A 
ATOM     17  C   UNL     1      -7.863  13.187  19.859  0.00  0.00    +0.000 A 
ATOM     18  C   UNL     1      -6.961  13.442  20.883  0.00  0.00    +0.000 A 
ATOM     19  C   UNL     1      -5.586  13.180  20.706  0.00  0.00    +0.000 A 
ATOM     20  C   UNL     1      -5.071  12.599  19.540  0.00  0.00    +0.000 A 
ATOM     21  N   UNL     1      -3.751  12.233  19.406  0.00  0.00    +0.000 NA
ENDBRANCH   9  12
ENDBRANCH   1   8
BRANCH   1  22
ATOM     22  C   UNL     1       0.783   9.628  19.283  0.00  0.00    +0.000 C 
BRANCH  22  26
ATOM     23  N   UNL     1       2.624   6.743  18.027  0.00  0.00    +0.000 N 
ATOM     24  C   UNL     1       2.224   7.639  19.008  0.00  0.00    +0.000 C 
ATOM     25  O   UNL     1       2.489   7.586  20.196  0.00  0.00    +0.000 OA
ATOM     26  N   UNL     1       1.460   8.646  18.453  0.00  0.00    +0.000 N 
ATOM     27  H   UNL     1       1.919   6.604  17.325  0.00  0.00    +0.000 HD
ATOM     28  H   UNL     1       1.012   8.446  17.573  0.00  0.00    +0.000 HD
BRANCH  23  34
ATOM     29  C   UNL     1       4.846   5.667  17.899  0.00  0.00    +0.000 A 
ATOM     30  C   UNL     1       5.619   4.513  18.123  0.00  0.00    +0.000 A 
ATOM     31  C   UNL     1       5.065   3.364  18.676  0.00  0.00    +0.000 A 
ATOM     32  C   UNL     1       3.715   3.328  19.002  0.00  0.00    +0.000 A 
ATOM     33  C   UNL     1       2.889   4.449  18.814  0.00  0.00    +0.000 A 
ATOM     34  C   UNL     1       3.472   5.636  18.281  0.00  0.00    +0.000 A 
BRANCH  29  36
ATOM     35  C   UNL     1       6.938   7.131  17.401  0.00  0.00    +0.000 C 
ATOM     36  C   UNL     1       5.459   6.831  17.109  0.00  0.00    +0.000 C 
ATOM     37  C   UNL     1       5.282   6.596  15.604  0.00  0.00    +0.000 C 
ENDBRANCH  29  36
BRANCH  33  38
ATOM     38  C   UNL     1       1.401   4.337  19.164  0.00  0.00    +0.000 C 
ATOM     39  C   UNL     1       0.815   3.058  18.557  0.00  0.00    +0.000 C 
ATOM     40  C   UNL     1       1.081   4.372  20.668  0.00  0.00    +0.000 C 
ENDBRANCH  33  38
ENDBRANCH  23  34
ENDBRANCH  22  26
ENDBRANCH   1  22
TORSDOF 8
ENDMDL
MODEL 2
REMARK VINA RESULT:      -8.2      1.769      9.960
REMARK  Name = 
REMARK  12 active torsions:
REMARK  status: ('A' for Active; 'I' for Inactive)
REMARK    1  A    between atoms: C_1  and  C_2
REMARK    2  A    between atoms: C_2  and  C_3
REMARK    3  A    between atoms: C_2  and  C_4
REMARK    4  A    between atoms: C_8  and  C_9
REMARK    5  A    between atoms: C_9  and  C_10
REMARK    6  A    between atoms: C_9  and  C_11
REMARK    7  A    between atoms: C_12  and  N_13
REMARK    8  A    between atoms: N_16  and  C_17
REMARK    9  A    between atoms: C_17  and  C_18
REMARK   10  A    between atoms: C_18  and  N_19
REMARK   11  A    between atoms: C_18  and  C_32
REMARK   12  A    between atoms: C_20  and  C_22
REMARK                            x       y       z     vdW  Elec       q    Type
REMARK                         _______ _______ _______ _____ _____    ______ ____
ROOT
ATOM      1  C   UNL     1       0.657  10.152  18.453  0.00  0.00    +0.000 C 
ENDROOT
BRANCH   1   2
ATOM      2  C   UNL     1       1.395  11.405  18.965  0.00  0.00    +0.000 A 
ATOM      3  C   UNL     1       1.139  11.894  20.260  0.00  0.00    +0.000 A 
ATOM      4  C   UNL     1       1.636  13.138  20.676  0.00  0.00    +0.000 A 
ATOM      5  C   UNL     1       2.394  13.915  19.804  0.00  0.00    +0.000 A 
ATOM      6  C   UNL     1       2.686  13.445  18.533  0.00  0.00    +0.000 A 
ATOM      7  C   UNL     1       2.200  12.198  18.123  0.00  0.00    +0.000 A 
ENDBRANCH   1   2
BRANCH   1   8
ATOM      8  N   UNL     1       1.529   9.074  17.928  0.00  0.00    +0.000 N 
ATOM      9  C   UNL     1       2.076   8.080  18.710  0.00  0.00    +0.000 C 
ATOM     10  O   UNL     1       1.907   8.050  19.929  0.00  0.00    +0.000 OA
ATOM     11  H   UNL     1       1.847   9.142  16.968  0.00  0.00    +0.000 HD
BRANCH   9  12
ATOM     12  C   UNL     1       2.889   6.965  18.093  0.00  0.00    +0.000 A 
ATOM     13  C   UNL     1       2.358   5.697  18.295  0.00  0.00    +0.000 A 
ATOM     14  C   UNL     1       3.063   4.584  17.878  0.00  0.00    +0.000 A 
ATOM     15  C   UNL     1       4.235   4.758  17.159  0.00  0.00    +0.000 A 
ATOM     16  C   UNL     1       4.856   3.621  16.618  0.00  0.00    +0.000 A 
ATOM     17  C   UNL     1       5.947   3.758  15.776  0.00  0.00    +0.000 A 
ATOM     18  C   UNL     1       6.459   5.028  15.545  0.00  0.00    +0.000 A 
ATOM     19  C   UNL     1       5.866   6.158  16.145  0.00  0.00    +0.000 A 
ATOM     20  C   UNL     1       4.715   6.076  16.938  0.00  0.00    +0.000 A 
ATOM     21  N   UNL     1       4.063   7.184  17.429  0.00  0.00    +0.000 NA
ENDBRANCH   9  12
ENDBRANCH   1   8
BRANCH   1  22
ATOM     22  C   UNL     1      -0.474  10.626  17.485  0.00  0.00    +0.000 C 
BRANCH  22  26
ATOM     23  N   UNL     1      -2.795  12.715  19.366  0.00  0.00    +0.000 N 
ATOM     24  C   UNL     1      -2.213  11.509  19.003  0.00  0.00    +0.000 C 
ATOM     25  O   UNL     1      -2.421  10.419  19.505  0.00  0.00    +0.000 OA
ATOM     26  N   UNL     1      -1.334  11.699  17.956  0.00  0.00    +0.000 N 
ATOM     27  H   UNL     1      -2.156  13.487  19.290  0.00  0.00    +0.000 HD
ATOM     28  H   UNL     1      -0.968  12.629  17.830  0.00  0.00    +0.000 HD
BRANCH  23  34
ATOM     29  C   UNL     1      -3.420  12.964  21.744  0.00  0.00    +0.000 A 
ATOM     30  C   UNL     1      -4.452  13.012  22.700  0.00  0.00    +0.000 A 
ATOM     31  C   UNL     1      -5.788  12.909  22.332  0.00  0.00    +0.000 A 
ATOM     32  C   UNL     1      -6.133  12.732  20.999  0.00  0.00    +0.000 A 
ATOM     33  C   UNL     1      -5.153  12.687  19.992  0.00  0.00    +0.000 A 
ATOM     34  C   UNL     1      -3.786  12.831  20.372  0.00  0.00    +0.000 A 
BRANCH  29  36
ATOM     35  C   UNL     1      -1.486  14.053  23.101  0.00  0.00    +0.000 C 
ATOM     36  C   UNL     1      -1.965  12.885  22.224  0.00  0.00    +0.000 C 
ATOM     37  C   UNL     1      -1.728  11.567  22.971  0.00  0.00    +0.000 C 
ENDBRANCH  29  36
BRANCH  33  38
ATOM     38  C   UNL     1      -5.594  12.459  18.541  0.00  0.00    +0.000 C 
ATOM     39  C   UNL     1      -6.334  11.122  18.423  0.00  0.00    +0.000 C 
ATOM     40  C   UNL     1      -6.470  13.573  17.944  0.00  0.00    +0.000 C 
ENDBRANCH  33  38
ENDBRANCH  23  34
ENDBRANCH  22  26
ENDBRANCH   1  22
TORSDOF 8
ENDMDL
MODEL 3
REMARK VINA RESULT:      -8.2      2.227      5.881
REMARK  Name = 
REMARK  12 active torsions:
REMARK  status: ('A' for Active; 'I' for Inactive)
REMARK    1  A    between atoms: C_1  and  C_2
REMARK    2  A    between atoms: C_2  and  C_3
REMARK    3  A    between atoms: C_2  and  C_4
REMARK    4  A    between atoms: C_8  and  C_9
REMARK    5  A    between atoms: C_9  and  C_10
REMARK    6  A    between atoms: C_9  and  C_11
REMARK    7  A    between atoms: C_12  and  N_13
REMARK    8  A    between atoms: N_16  and  C_17
REMARK    9  A    between atoms: C_17  and  C_18
REMARK   10  A    between atoms: C_18  and  N_19
REMARK   11  A    between atoms: C_18  and  C_32
REMARK   12  A    between atoms: C_20  and  C_22
REMARK                            x       y       z     vdW  Elec       q    Type
REMARK                         _______ _______ _______ _____ _____    ______ ____
ROOT
ATOM      1  C   UNL     1       0.251  10.480  19.227  0.00  0.00    +0.000 C 
ENDROOT
BRANCH   1   2
ATOM      2  C   UNL     1      -1.156  10.567  18.604  0.00  0.00    +0.000 A 
ATOM      3  C   UNL     1      -1.452   9.852  17.428  0.00  0.00    +0.000 A 
ATOM      4  C   UNL     1      -2.648  10.071  16.728  0.00  0.00    +0.000 A 
ATOM      5  C   UNL     1      -3.567  11.009  17.191  0.00  0.00    +0.000 A 
ATOM      6  C   UNL     1      -3.314  11.706  18.362  0.00  0.00    +0.000 A 
ATOM      7  C   UNL     1      -2.126  11.479  19.066  0.00  0.00    +0.000 A 
ENDBRANCH   1   2
BRANCH   1   8
ATOM      8  N   UNL     1       0.933  11.780  19.435  0.00  0.00    +0.000 N 
ATOM      9  C   UNL     1       1.231  12.302  20.675  0.00  0.00    +0.000 C 
ATOM     10  O   UNL     1       0.901  11.728  21.712  0.00  0.00    +0.000 OA
ATOM     11  H   UNL     1       1.073  12.380  18.629  0.00  0.00    +0.000 HD
BRANCH   9  12
ATOM     12  C   UNL     1       2.002  13.595  20.809  0.00  0.00    +0.000 A 
ATOM     13  C   UNL     1       2.838  13.872  19.734  0.00  0.00    +0.000 A 
ATOM     14  C   UNL     1       3.680  14.966  19.786  0.00  0.00    +0.000 A 
ATOM     15  C   UNL     1       3.591  15.837  20.860  0.00  0.00    +0.000 A 
ATOM     16  C   UNL     1       4.349  17.019  20.821  0.00  0.00    +0.000 A 
ATOM     17  C   UNL     1       4.186  17.983  21.801  0.00  0.00    +0.000 A 
ATOM     18  C   UNL     1       3.325  17.723  22.859  0.00  0.00    +0.000 A 
ATOM     19  C   UNL     1       2.617  16.505  22.922  0.00  0.00    +0.000 A 
ATOM     20  C   UNL     1       2.689  15.536  21.913  0.00  0.00    +0.000 A 
ATOM     21  N   UNL     1       1.913  14.399  21.910  0.00  0.00    +0.000 NA
ENDBRANCH   9  12
ENDBRANCH   1   8
BRANCH   1  22
ATOM     22  C   UNL     1       1.067   9.421  18.418  0.00  0.00    +0.000 C 
BRANCH  22  26
ATOM     23  N   UNL     1       3.298   6.750  19.504  0.00  0.00    +0.000 N 
ATOM     24  C   UNL     1       2.393   7.347  18.638  0.00  0.00    +0.000 C 
ATOM     25  O   UNL     1       2.042   6.929  17.549  0.00  0.00    +0.000 OA
ATOM     26  N   UNL     1       1.911   8.520  19.184  0.00  0.00    +0.000 N 
ATOM     27  H   UNL     1       3.859   7.423  19.995  0.00  0.00    +0.000 HD
ATOM     28  H   UNL     1       2.477   8.959  19.892  0.00  0.00    +0.000 HD
BRANCH  23  34
ATOM     29  C   UNL     1       5.011   5.404  18.336  0.00  0.00    +0.000 A 
ATOM     30  C   UNL     1       5.540   4.126  18.077  0.00  0.00    +0.000 A 
ATOM     31  C   UNL     1       5.005   2.985  18.663  0.00  0.00    +0.000 A 
ATOM     32  C   UNL     1       3.910   3.085  19.511  0.00  0.00    +0.000 A 
ATOM     33  C   UNL     1       3.339   4.331  19.821  0.00  0.00    +0.000 A 
ATOM     34  C   UNL     1       3.916   5.501  19.246  0.00  0.00    +0.000 A 
BRANCH  29  36
ATOM     35  C   UNL     1       7.022   6.877  17.593  0.00  0.00    +0.000 C 
ATOM     36  C   UNL     1       5.512   6.598  17.514  0.00  0.00    +0.000 C 
ATOM     37  C   UNL     1       5.110   6.430  16.044  0.00  0.00    +0.000 C 
ENDBRANCH  29  36
BRANCH  33  38
ATOM     38  C   UNL     1       2.112   4.373  20.739  0.00  0.00    +0.000 C 
ATOM     39  C   UNL     1       0.834   4.184  19.914  0.00  0.00    +0.000 C 
ATOM     40  C   UNL     1       2.123   3.353  21.890  0.00  0.00    +0.000 C 
ENDBRANCH  33  38
ENDBRANCH  23  34
ENDBRANCH  22  26
ENDBRANCH   1  22
TORSDOF 8
ENDMDL
MODEL 4
REMARK VINA RESULT:      -8.2      2.244      6.216
REMARK  Name = 
REMARK  12 active torsions:
REMARK  status: ('A' for Active; 'I' for Inactive)
REMARK    1  A    between atoms: C_1  and  C_2
REMARK    2  A    between atoms: C_2  and  C_3
REMARK    3  A    between atoms: C_2  and  C_4
REMARK    4  A    between atoms: C_8  and  C_9
REMARK    5  A    between atoms: C_9  and  C_10
REMARK    6  A    between atoms: C_9  and  C_11
REMARK    7  A    between atoms: C_12  and  N_13
REMARK    8  A    between atoms: N_16  and  C_17
REMARK    9  A    between atoms: C_17  and  C_18
REMARK   10  A    between atoms: C_18  and  N_19
REMARK   11  A    between atoms: C_18  and  C_32
REMARK   12  A    between atoms: C_20  and  C_22
REMARK                            x       y       z     vdW  Elec       q    Type
REMARK                         _______ _______ _______ _____ _____    ______ ____
ROOT
ATOM      1  C   UNL     1       0.402  10.597  19.162  0.00  0.00    +0.000 C 
ENDROOT
BRANCH   1   2
ATOM      2  C   UNL     1      -1.017  10.796  18.594  0.00  0.00    +0.000 A 
ATOM      3  C   UNL     1      -1.897  11.713  19.199  0.00  0.00    +0.000 A 
ATOM      4  C   UNL     1      -3.251  11.767  18.836  0.00  0.00    +0.000 A 
ATOM      5  C   UNL     1      -3.748  10.904  17.863  0.00  0.00    +0.000 A 
ATOM      6  C   UNL     1      -2.897  10.011  17.230  0.00  0.00    +0.000 A 
ATOM      7  C   UNL     1      -1.544   9.965  17.584  0.00  0.00    +0.000 A 
ENDBRANCH   1   2
BRANCH   1   8
ATOM      8  N   UNL     1       1.228  11.826  19.250  0.00  0.00    +0.000 N 
ATOM      9  C   UNL     1       1.448  12.522  20.418  0.00  0.00    +0.000 C 
ATOM     10  O   UNL     1       0.924  12.183  21.479  0.00  0.00    +0.000 OA
ATOM     11  H   UNL     1       1.541  12.252  18.385  0.00  0.00    +0.000 HD
BRANCH   9  12
ATOM     12  C   UNL     1       2.368  13.720  20.447  0.00  0.00    +0.000 A 
ATOM     13  C   UNL     1       2.293  14.465  21.618  0.00  0.00    +0.000 A 
ATOM     14  C   UNL     1       3.001  15.647  21.724  0.00  0.00    +0.000 A 
ATOM     15  C   UNL     1       3.867  16.009  20.705  0.00  0.00    +0.000 A 
ATOM     16  C   UNL     1       4.686  17.134  20.898  0.00  0.00    +0.000 A 
ATOM     17  C   UNL     1       5.664  17.451  19.971  0.00  0.00    +0.000 A 
ATOM     18  C   UNL     1       5.764  16.687  18.816  0.00  0.00    +0.000 A 
ATOM     19  C   UNL     1       4.893  15.597  18.602  0.00  0.00    +0.000 A 
ATOM     20  C   UNL     1       3.943  15.192  19.547  0.00  0.00    +0.000 A 
ATOM     21  N   UNL     1       3.173  14.061  19.397  0.00  0.00    +0.000 NA
ENDBRANCH   9  12
ENDBRANCH   1   8
BRANCH   1  22
ATOM     22  C   UNL     1       1.060   9.404  18.397  0.00  0.00    +0.000 C 
BRANCH  22  26
ATOM     23  N   UNL     1       3.303   6.755  19.513  0.00  0.00    +0.000 N 
ATOM     24  C   UNL     1       2.386   7.334  18.647  0.00  0.00    +0.000 C 
ATOM     25  O   UNL     1       2.019   6.891  17.572  0.00  0.00    +0.000 OA
ATOM     26  N   UNL     1       1.914   8.519  19.172  0.00  0.00    +0.000 N 
ATOM     27  H   UNL     1       3.872   7.439  19.981  0.00  0.00    +0.000 HD
ATOM     28  H   UNL     1       2.490   8.974  19.862  0.00  0.00    +0.000 HD
BRANCH  23  34
ATOM     29  C   UNL     1       5.020   5.386  18.380  0.00  0.00    +0.000 A 
ATOM     30  C   UNL     1       5.544   4.102  18.140  0.00  0.00    +0.000 A 
ATOM     31  C   UNL     1       4.995   2.971  18.733  0.00  0.00    +0.000 A 
ATOM     32  C   UNL     1       3.891   3.087  19.567  0.00  0.00    +0.000 A 
ATOM     33  C   UNL     1       3.324   4.340  19.858  0.00  0.00    +0.000 A 
ATOM     34  C   UNL     1       3.916   5.500  19.276  0.00  0.00    +0.000 A 
BRANCH  29  36
ATOM     35  C   UNL     1       7.055   6.808  17.605  0.00  0.00    +0.000 C 
ATOM     36  C   UNL     1       5.538   6.567  17.550  0.00  0.00    +0.000 C 
ATOM     37  C   UNL     1       5.107   6.412  16.087  0.00  0.00    +0.000 C 
ENDBRANCH  29  36
BRANCH  33  38
ATOM     38  C   UNL     1       2.087   4.400  20.761  0.00  0.00    +0.000 C 
ATOM     39  C   UNL     1       0.817   4.229  19.921  0.00  0.00    +0.000 C 
ATOM     40  C   UNL     1       2.070   3.380  21.912  0.00  0.00    +0.000 C 
ENDBRANCH  33  38
ENDBRANCH  23  34
ENDBRANCH  22  26
ENDBRANCH   1  22
TORSDOF 8
ENDMDL
MODEL 5
REMARK VINA RESULT:      -8.2      2.236      6.113
REMARK  Name = 
REMARK  12 active torsions:
REMARK  status: ('A' for Active; 'I' for Inactive)
REMARK    1  A    between atoms: C_1  and  C_2
REMARK    2  A    between atoms: C_2  and  C_3
REMARK    3  A    between atoms: C_2  and  C_4
REMARK    4  A    between atoms: C_8  and  C_9
REMARK    5  A    between atoms: C_9  and  C_10
REMARK    6  A    between atoms: C_9  and  C_11
REMARK    7  A    between atoms: C_12  and  N_13
REMARK    8  A    between atoms: N_16  and  C_17
REMARK    9  A    between atoms: C_17  and  C_18
REMARK   10  A    between atoms: C_18  and  N_19
REMARK   11  A    between atoms: C_18  and  C_32
REMARK   12  A    between atoms: C_20  and  C_22
REMARK                            x       y       z     vdW  Elec       q    Type
REMARK                         _______ _______ _______ _____ _____    ______ ____
ROOT
ATOM      1  C   UNL     1       0.312  10.544  19.154  0.00  0.00    +0.000 C 
ENDROOT
BRANCH   1   2
ATOM      2  C   UNL     1      -1.081  10.745  18.524  0.00  0.00    +0.000 A 
ATOM      3  C   UNL     1      -2.004  11.627  19.120  0.00  0.00    +0.000 A 
ATOM      4  C   UNL     1      -3.339  11.675  18.692  0.00  0.00    +0.000 A 
ATOM      5  C   UNL     1      -3.775  10.843  17.665  0.00  0.00    +0.000 A 
ATOM      6  C   UNL     1      -2.881   9.987  17.041  0.00  0.00    +0.000 A 
ATOM      7  C   UNL     1      -1.546   9.946  17.460  0.00  0.00    +0.000 A 
ENDBRANCH   1   2
BRANCH   1   8
ATOM      8  N   UNL     1       1.108  11.781  19.339  0.00  0.00    +0.000 N 
ATOM      9  C   UNL     1       1.333  12.374  20.562  0.00  0.00    +0.000 C 
ATOM     10  O   UNL     1       0.839  11.927  21.597  0.00  0.00    +0.000 OA
ATOM     11  H   UNL     1       1.394  12.292  18.511  0.00  0.00    +0.000 HD
BRANCH   9  12
ATOM     12  C   UNL     1       2.224  13.588  20.684  0.00  0.00    +0.000 A 
ATOM     13  C   UNL     1       1.970  14.576  19.740  0.00  0.00    +0.000 A 
ATOM     14  C   UNL     1       2.789  15.687  19.675  0.00  0.00    +0.000 A 
ATOM     15  C   UNL     1       3.779  15.854  20.629  0.00  0.00    +0.000 A 
ATOM     16  C   UNL     1       4.501  17.059  20.634  0.00  0.00    +0.000 A 
ATOM     17  C   UNL     1       5.399  17.329  21.652  0.00  0.00    +0.000 A 
ATOM     18  C   UNL     1       5.630  16.357  22.617  0.00  0.00    +0.000 A 
ATOM     19  C   UNL     1       4.946  15.123  22.566  0.00  0.00    +0.000 A 
ATOM     20  C   UNL     1       3.971  14.838  21.602  0.00  0.00    +0.000 A 
ATOM     21  N   UNL     1       3.218  13.687  21.617  0.00  0.00    +0.000 NA
ENDBRANCH   9  12
ENDBRANCH   1   8
BRANCH   1  22
ATOM     22  C   UNL     1       1.029   9.399  18.369  0.00  0.00    +0.000 C 
BRANCH  22  26
ATOM     23  N   UNL     1       3.281   6.752  19.471  0.00  0.00    +0.000 N 
ATOM     24  C   UNL     1       2.371   7.337  18.602  0.00  0.00    +0.000 C 
ATOM     25  O   UNL     1       2.023   6.910  17.515  0.00  0.00    +0.000 OA
ATOM     26  N   UNL     1       1.880   8.509  19.141  0.00  0.00    +0.000 N 
ATOM     27  H   UNL     1       3.836   7.433  19.959  0.00  0.00    +0.000 HD
ATOM     28  H   UNL     1       2.443   8.957  19.846  0.00  0.00    +0.000 HD
BRANCH  23  34
ATOM     29  C   UNL     1       5.030   5.418  18.345  0.00  0.00    +0.000 A 
ATOM     30  C   UNL     1       5.569   4.144  18.090  0.00  0.00    +0.000 A 
ATOM     31  C   UNL     1       5.018   2.997  18.650  0.00  0.00    +0.000 A 
ATOM     32  C   UNL     1       3.898   3.088  19.465  0.00  0.00    +0.000 A 
ATOM     33  C   UNL     1       3.315   4.330  19.769  0.00  0.00    +0.000 A 
ATOM     34  C   UNL     1       3.908   5.506  19.221  0.00  0.00    +0.000 A 
BRANCH  29  36
ATOM     35  C   UNL     1       7.075   6.838  17.590  0.00  0.00    +0.000 C 
ATOM     36  C   UNL     1       5.554   6.620  17.548  0.00  0.00    +0.000 C 
ATOM     37  C   UNL     1       5.102   6.520  16.086  0.00  0.00    +0.000 C 
ENDBRANCH  29  36
BRANCH  33  38
ATOM     38  C   UNL     1       2.062   4.363  20.650  0.00  0.00    +0.000 C 
ATOM     39  C   UNL     1       0.829   3.991  19.820  0.00  0.00    +0.000 C 
ATOM     40  C   UNL     1       2.118   3.466  21.898  0.00  0.00    +0.000 C 
ENDBRANCH  33  38
ENDBRANCH  23  34
ENDBRANCH  22  26
ENDBRANCH   1  22
TORSDOF 8
ENDMDL
MODEL 6
REMARK VINA RESULT:      -8.1      1.719     10.093
REMARK  Name = 
REMARK  12 active torsions:
REMARK  status: ('A' for Active; 'I' for Inactive)
REMARK    1  A    between atoms: C_1  and  C_2
REMARK    2  A    between atoms: C_2  and  C_3
REMARK    3  A    between atoms: C_2  and  C_4
REMARK    4  A    between atoms: C_8  and  C_9
REMARK    5  A    between atoms: C_9  and  C_10
REMARK    6  A    between atoms: C_9  and  C_11
REMARK    7  A    between atoms: C_12  and  N_13
REMARK    8  A    between atoms: N_16  and  C_17
REMARK    9  A    between atoms: C_17  and  C_18
REMARK   10  A    between atoms: C_18  and  N_19
REMARK   11  A    between atoms: C_18  and  C_32
REMARK   12  A    between atoms: C_20  and  C_22
REMARK                            x       y       z     vdW  Elec       q    Type
REMARK                         _______ _______ _______ _____ _____    ______ ____
ROOT
ATOM      1  C   UNL     1       0.747  10.220  18.455  0.00  0.00    +0.000 C 
ENDROOT
BRANCH   1   2
ATOM      2  C   UNL     1       1.496  11.465  18.971  0.00  0.00    +0.000 A 
ATOM      3  C   UNL     1       1.223  11.970  20.256  0.00  0.00    +0.000 A 
ATOM      4  C   UNL     1       1.732  13.209  20.671  0.00  0.00    +0.000 A 
ATOM      5  C   UNL     1       2.521  13.965  19.809  0.00  0.00    +0.000 A 
ATOM      6  C   UNL     1       2.830  13.478  18.548  0.00  0.00    +0.000 A 
ATOM      7  C   UNL     1       2.331  12.236  18.138  0.00  0.00    +0.000 A 
ENDBRANCH   1   2
BRANCH   1   8
ATOM      8  N   UNL     1       1.608   9.141  17.914  0.00  0.00    +0.000 N 
ATOM      9  C   UNL     1       2.108   8.105  18.671  0.00  0.00    +0.000 C 
ATOM     10  O   UNL     1       1.901   8.032  19.882  0.00  0.00    +0.000 OA
ATOM     11  H   UNL     1       1.957   9.239  16.966  0.00  0.00    +0.000 HD
BRANCH   9  12
ATOM     12  C   UNL     1       2.912   6.995  18.035  0.00  0.00    +0.000 A 
ATOM     13  C   UNL     1       2.372   5.727  18.216  0.00  0.00    +0.000 A 
ATOM     14  C   UNL     1       3.070   4.617  17.779  0.00  0.00    +0.000 A 
ATOM     15  C   UNL     1       4.242   4.794  17.063  0.00  0.00    +0.000 A 
ATOM     16  C   UNL     1       4.855   3.662  16.502  0.00  0.00    +0.000 A 
ATOM     17  C   UNL     1       5.947   3.806  15.662  0.00  0.00    +0.000 A 
ATOM     18  C   UNL     1       6.467   5.076  15.451  0.00  0.00    +0.000 A 
ATOM     19  C   UNL     1       5.882   6.200  16.071  0.00  0.00    +0.000 A 
ATOM     20  C   UNL     1       4.731   6.112  16.864  0.00  0.00    +0.000 A 
ATOM     21  N   UNL     1       4.088   7.216  17.374  0.00  0.00    +0.000 NA
ENDBRANCH   9  12
ENDBRANCH   1   8
BRANCH   1  22
ATOM     22  C   UNL     1      -0.389  10.708  17.500  0.00  0.00    +0.000 C 
BRANCH  22  26
ATOM     23  N   UNL     1      -2.811  12.658  19.404  0.00  0.00    +0.000 N 
ATOM     24  C   UNL     1      -2.215  11.481  18.976  0.00  0.00    +0.000 C 
ATOM     25  O   UNL     1      -2.462  10.354  19.369  0.00  0.00    +0.000 OA
ATOM     26  N   UNL     1      -1.270  11.747  18.006  0.00  0.00    +0.000 N 
ATOM     27  H   UNL     1      -2.163  13.426  19.434  0.00  0.00    +0.000 HD
ATOM     28  H   UNL     1      -0.891  12.680  17.984  0.00  0.00    +0.000 HD
BRANCH  23  34
ATOM     29  C   UNL     1      -5.225  12.639  19.932  0.00  0.00    +0.000 A 
ATOM     30  C   UNL     1      -6.224  12.747  20.917  0.00  0.00    +0.000 A 
ATOM     31  C   UNL     1      -5.906  12.934  22.257  0.00  0.00    +0.000 A 
ATOM     32  C   UNL     1      -4.578  13.039  22.650  0.00  0.00    +0.000 A 
ATOM     33  C   UNL     1      -3.530  12.929  21.720  0.00  0.00    +0.000 A 
ATOM     34  C   UNL     1      -3.863  12.700  20.352  0.00  0.00    +0.000 A 
BRANCH  29  36
ATOM     35  C   UNL     1      -5.863  11.245  17.830  0.00  0.00    +0.000 C 
ATOM     36  C   UNL     1      -5.636  12.632  18.454  0.00  0.00    +0.000 C 
ATOM     37  C   UNL     1      -6.894  13.485  18.253  0.00  0.00    +0.000 C 
ENDBRANCH  29  36
BRANCH  33  38
ATOM     38  C   UNL     1      -2.087  13.085  22.211  0.00  0.00    +0.000 C 
ATOM     39  C   UNL     1      -1.987  14.270  23.176  0.00  0.00    +0.000 C 
ATOM     40  C   UNL     1      -1.489  11.837  22.882  0.00  0.00    +0.000 C 
ENDBRANCH  33  38
ENDBRANCH  23  34
ENDBRANCH  22  26
ENDBRANCH   1  22
TORSDOF 8
ENDMDL
MODEL 7
REMARK VINA RESULT:      -8.1      2.252      6.805
REMARK  Name = 
REMARK  12 active torsions:
REMARK  status: ('A' for Active; 'I' for Inactive)
REMARK    1  A    between atoms: C_1  and  C_2
REMARK    2  A    between atoms: C_2  and  C_3
REMARK    3  A    between atoms: C_2  and  C_4
REMARK    4  A    between atoms: C_8  and  C_9
REMARK    5  A    between atoms: C_9  and  C_10
REMARK    6  A    between atoms: C_9  and  C_11
REMARK    7  A    between atoms: C_12  and  N_13
REMARK    8  A    between atoms: N_16  and  C_17
REMARK    9  A    between atoms: C_17  and  C_18
REMARK   10  A    between atoms: C_18  and  N_19
REMARK   11  A    between atoms: C_18  and  C_32
REMARK   12  A    between atoms: C_20  and  C_22
REMARK                            x       y       z     vdW  Elec       q    Type
REMARK                         _______ _______ _______ _____ _____    ______ ____
ROOT
ATOM      1  C   UNL     1       0.476  10.632  18.867  0.00  0.00    +0.000 C 
ENDROOT
BRANCH   1   2
ATOM      2  C   UNL     1      -0.973  10.803  18.366  0.00  0.00    +0.000 A 
ATOM      3  C   UNL     1      -1.835  11.717  19.000  0.00  0.00    +0.000 A 
ATOM      4  C   UNL     1      -3.206  11.746  18.703  0.00  0.00    +0.000 A 
ATOM      5  C   UNL     1      -3.738  10.861  17.769  0.00  0.00    +0.000 A 
ATOM      6  C   UNL     1      -2.906   9.970  17.108  0.00  0.00    +0.000 A 
ATOM      7  C   UNL     1      -1.536   9.949  17.396  0.00  0.00    +0.000 A 
ENDBRANCH   1   2
BRANCH   1   8
ATOM      8  N   UNL     1       1.313  11.854  18.812  0.00  0.00    +0.000 N 
ATOM      9  C   UNL     1       1.797  12.505  19.926  0.00  0.00    +0.000 C 
ATOM     10  O   UNL     1       1.521  12.127  21.064  0.00  0.00    +0.000 OA
ATOM     11  H   UNL     1       1.429  12.313  17.915  0.00  0.00    +0.000 HD
BRANCH   9  12
ATOM     12  C   UNL     1       2.713  13.699  19.792  0.00  0.00    +0.000 A 
ATOM     13  C   UNL     1       2.865  14.154  18.487  0.00  0.00    +0.000 A 
ATOM     14  C   UNL     1       3.763  15.169  18.216  0.00  0.00    +0.000 A 
ATOM     15  C   UNL     1       4.412  15.795  19.268  0.00  0.00    +0.000 A 
ATOM     16  C   UNL     1       5.205  16.919  18.984  0.00  0.00    +0.000 A 
ATOM     17  C   UNL     1       5.757  17.661  20.015  0.00  0.00    +0.000 A 
ATOM     18  C   UNL     1       5.578  17.227  21.322  0.00  0.00    +0.000 A 
ATOM     19  C   UNL     1       4.832  16.060  21.592  0.00  0.00    +0.000 A 
ATOM     20  C   UNL     1       4.190  15.324  20.588  0.00  0.00    +0.000 A 
ATOM     21  N   UNL     1       3.366  14.255  20.856  0.00  0.00    +0.000 NA
ENDBRANCH   9  12
ENDBRANCH   1   8
BRANCH   1  22
ATOM     22  C   UNL     1       1.081   9.377  18.160  0.00  0.00    +0.000 C 
BRANCH  22  26
ATOM     23  N   UNL     1       3.211   6.692  19.403  0.00  0.00    +0.000 N 
ATOM     24  C   UNL     1       2.318   7.266  18.510  0.00  0.00    +0.000 C 
ATOM     25  O   UNL     1       1.931   6.789  17.457  0.00  0.00    +0.000 OA
ATOM     26  N   UNL     1       1.897   8.495  18.977  0.00  0.00    +0.000 N 
ATOM     27  H   UNL     1       3.809   7.373  19.838  0.00  0.00    +0.000 HD
ATOM     28  H   UNL     1       2.494   8.957  19.644  0.00  0.00    +0.000 HD
BRANCH  23  34
ATOM     29  C   UNL     1       3.234   4.275  19.919  0.00  0.00    +0.000 A 
ATOM     30  C   UNL     1       3.873   3.032  19.748  0.00  0.00    +0.000 A 
ATOM     31  C   UNL     1       5.004   2.900  18.952  0.00  0.00    +0.000 A 
ATOM     32  C   UNL     1       5.545   4.011  18.319  0.00  0.00    +0.000 A 
ATOM     33  C   UNL     1       4.952   5.280  18.438  0.00  0.00    +0.000 A 
ATOM     34  C   UNL     1       3.770   5.401  19.226  0.00  0.00    +0.000 A 
BRANCH  29  36
ATOM     35  C   UNL     1       0.689   4.518  20.395  0.00  0.00    +0.000 C 
ATOM     36  C   UNL     1       2.114   4.399  20.959  0.00  0.00    +0.000 C 
ATOM     37  C   UNL     1       2.170   3.218  21.936  0.00  0.00    +0.000 C 
ENDBRANCH  29  36
BRANCH  33  38
ATOM     38  C   UNL     1       5.613   6.474  17.740  0.00  0.00    +0.000 C 
ATOM     39  C   UNL     1       7.134   6.403  17.912  0.00  0.00    +0.000 C 
ATOM     40  C   UNL     1       5.281   6.621  16.246  0.00  0.00    +0.000 C 
ENDBRANCH  33  38
ENDBRANCH  23  34
ENDBRANCH  22  26
ENDBRANCH   1  22
TORSDOF 8
ENDMDL
MODEL 8
REMARK VINA RESULT:      -8.1      2.275      6.753
REMARK  Name = 
REMARK  12 active torsions:
REMARK  status: ('A' for Active; 'I' for Inactive)
REMARK    1  A    between atoms: C_1  and  C_2
REMARK    2  A    between atoms: C_2  and  C_3
REMARK    3  A    between atoms: C_2  and  C_4
REMARK    4  A    between atoms: C_8  and  C_9
REMARK    5  A    between atoms: C_9  and  C_10
REMARK    6  A    between atoms: C_9  and  C_11
REMARK    7  A    between atoms: C_12  and  N_13
REMARK    8  A    between atoms: N_16  and  C_17
REMARK    9  A    between atoms: C_17  and  C_18
REMARK   10  A    between atoms: C_18  and  N_19
REMARK   11  A    between atoms: C_18  and  C_32
REMARK   12  A    between atoms: C_20  and  C_22
REMARK                            x       y       z     vdW  Elec       q    Type
REMARK                         _______ _______ _______ _____ _____    ______ ____
ROOT
ATOM      1  C   UNL     1       0.378  10.601  19.000  0.00  0.00    +0.000 C 
ENDROOT
BRANCH   1   2
ATOM      2  C   UNL     1      -1.036  10.749  18.405  0.00  0.00    +0.000 A 
ATOM      3  C   UNL     1      -1.959  11.636  18.991  0.00  0.00    +0.000 A 
ATOM      4  C   UNL     1      -3.307  11.641  18.603  0.00  0.00    +0.000 A 
ATOM      5  C   UNL     1      -3.756  10.758  17.625  0.00  0.00    +0.000 A 
ATOM      6  C   UNL     1      -2.863   9.894  17.010  0.00  0.00    +0.000 A 
ATOM      7  C   UNL     1      -1.515   9.897  17.389  0.00  0.00    +0.000 A 
ENDBRANCH   1   2
BRANCH   1   8
ATOM      8  N   UNL     1       1.150  11.862  19.120  0.00  0.00    +0.000 N 
ATOM      9  C   UNL     1       1.437  12.476  20.320  0.00  0.00    +0.000 C 
ATOM     10  O   UNL     1       1.023  12.028  21.389  0.00  0.00    +0.000 OA
ATOM     11  H   UNL     1       1.368  12.371  18.270  0.00  0.00    +0.000 HD
BRANCH   9  12
ATOM     12  C   UNL     1       2.299  13.716  20.372  0.00  0.00    +0.000 A 
ATOM     13  C   UNL     1       2.102  14.497  21.504  0.00  0.00    +0.000 A 
ATOM     14  C   UNL     1       2.747  15.714  21.618  0.00  0.00    +0.000 A 
ATOM     15  C   UNL     1       3.672  16.080  20.653  0.00  0.00    +0.000 A 
ATOM     16  C   UNL     1       4.423  17.248  20.864  0.00  0.00    +0.000 A 
ATOM     17  C   UNL     1       5.455  17.577  20.001  0.00  0.00    +0.000 A 
ATOM     18  C   UNL     1       5.676  16.779  18.887  0.00  0.00    +0.000 A 
ATOM     19  C   UNL     1       4.874  15.643  18.650  0.00  0.00    +0.000 A 
ATOM     20  C   UNL     1       3.873  15.227  19.537  0.00  0.00    +0.000 A 
ATOM     21  N   UNL     1       3.166  14.057  19.373  0.00  0.00    +0.000 NA
ENDBRANCH   9  12
ENDBRANCH   1   8
BRANCH   1  22
ATOM     22  C   UNL     1       1.101   9.448  18.233  0.00  0.00    +0.000 C 
BRANCH  22  26
ATOM     23  N   UNL     1       3.205   6.713  19.409  0.00  0.00    +0.000 N 
ATOM     24  C   UNL     1       2.315   7.316  18.532  0.00  0.00    +0.000 C 
ATOM     25  O   UNL     1       1.919   6.866  17.472  0.00  0.00    +0.000 OA
ATOM     26  N   UNL     1       1.911   8.539  19.027  0.00  0.00    +0.000 N 
ATOM     27  H   UNL     1       3.813   7.377  19.856  0.00  0.00    +0.000 HD
ATOM     28  H   UNL     1       2.515   8.980  19.702  0.00  0.00    +0.000 HD
BRANCH  23  34
ATOM     29  C   UNL     1       3.211   4.287  19.884  0.00  0.00    +0.000 A 
ATOM     30  C   UNL     1       3.834   3.041  19.683  0.00  0.00    +0.000 A 
ATOM     31  C   UNL     1       4.953   2.912  18.868  0.00  0.00    +0.000 A 
ATOM     32  C   UNL     1       5.496   4.028  18.246  0.00  0.00    +0.000 A 
ATOM     33  C   UNL     1       4.917   5.300  18.396  0.00  0.00    +0.000 A 
ATOM     34  C   UNL     1       3.748   5.420  19.203  0.00  0.00    +0.000 A 
BRANCH  29  36
ATOM     35  C   UNL     1       0.673   4.522  20.402  0.00  0.00    +0.000 C 
ATOM     36  C   UNL     1       2.107   4.404  20.942  0.00  0.00    +0.000 C 
ATOM     37  C   UNL     1       2.182   3.220  21.914  0.00  0.00    +0.000 C 
ENDBRANCH  29  36
BRANCH  33  38
ATOM     38  C   UNL     1       5.581   6.499  17.708  0.00  0.00    +0.000 C 
ATOM     39  C   UNL     1       7.103   6.415  17.864  0.00  0.00    +0.000 C 
ATOM     40  C   UNL     1       5.236   6.670  16.220  0.00  0.00    +0.000 C 
ENDBRANCH  33  38
ENDBRANCH  23  34
ENDBRANCH  22  26
ENDBRANCH   1  22
TORSDOF 8
ENDMDL
MODEL 9
REMARK VINA RESULT:      -8.1      1.798      9.643
REMARK  Name = 
REMARK  12 active torsions:
REMARK  status: ('A' for Active; 'I' for Inactive)
REMARK    1  A    between atoms: C_1  and  C_2
REMARK    2  A    between atoms: C_2  and  C_3
REMARK    3  A    between atoms: C_2  and  C_4
REMARK    4  A    between atoms: C_8  and  C_9
REMARK    5  A    between atoms: C_9  and  C_10
REMARK    6  A    between atoms: C_9  and  C_11
REMARK    7  A    between atoms: C_12  and  N_13
REMARK    8  A    between atoms: N_16  and  C_17
REMARK    9  A    between atoms: C_17  and  C_18
REMARK   10  A    between atoms: C_18  and  N_19
REMARK   11  A    between atoms: C_18  and  C_32
REMARK   12  A    between atoms: C_20  and  C_22
REMARK                            x       y       z     vdW  Elec       q    Type
REMARK                         _______ _______ _______ _____ _____    ______ ____
ROOT
ATOM      1  C   UNL     1       0.714  11.492  19.239  0.00  0.00    +0.000 C 
ENDROOT
BRANCH   1   2
ATOM      2  C   UNL     1       1.802  12.578  19.345  0.00  0.00    +0.000 A 
ATOM      3  C   UNL     1       2.072  13.188  20.585  0.00  0.00    +0.000 A 
ATOM      4  C   UNL     1       2.904  14.314  20.673  0.00  0.00    +0.000 A 
ATOM      5  C   UNL     1       3.479  14.850  19.524  0.00  0.00    +0.000 A 
ATOM      6  C   UNL     1       3.254  14.252  18.294  0.00  0.00    +0.000 A 
ATOM      7  C   UNL     1       2.432  13.122  18.207  0.00  0.00    +0.000 A 
ENDBRANCH   1   2
BRANCH   1   8
ATOM      8  N   UNL     1       1.215  10.109  19.050  0.00  0.00    +0.000 N 
ATOM      9  C   UNL     1       1.370   9.201  20.075  0.00  0.00    +0.000 C 
ATOM     10  O   UNL     1       1.138   9.504  21.245  0.00  0.00    +0.000 OA
ATOM     11  H   UNL     1       1.588   9.856  18.141  0.00  0.00    +0.000 HD
BRANCH   9  12
ATOM     12  C   UNL     1       1.809   7.782  19.796  0.00  0.00    +0.000 A 
ATOM     13  C   UNL     1       2.417   7.608  18.559  0.00  0.00    +0.000 A 
ATOM     14  C   UNL     1       2.762   6.338  18.138  0.00  0.00    +0.000 A 
ATOM     15  C   UNL     1       2.603   5.272  19.008  0.00  0.00    +0.000 A 
ATOM     16  C   UNL     1       3.096   4.017  18.616  0.00  0.00    +0.000 A 
ATOM     17  C   UNL     1       3.087   2.956  19.507  0.00  0.00    +0.000 A 
ATOM     18  C   UNL     1       2.511   3.137  20.757  0.00  0.00    +0.000 A 
ATOM     19  C   UNL     1       1.960   4.385  21.117  0.00  0.00    +0.000 A 
ATOM     20  C   UNL     1       2.018   5.506  20.280  0.00  0.00    +0.000 A 
ATOM     21  N   UNL     1       1.590   6.755  20.670  0.00  0.00    +0.000 NA
ENDBRANCH   9  12
ENDBRANCH   1   8
BRANCH   1  22
ATOM     22  C   UNL     1      -0.337  11.969  18.186  0.00  0.00    +0.000 C 
BRANCH  22  26
ATOM     23  N   UNL     1      -3.255  13.332  19.894  0.00  0.00    +0.000 N 
ATOM     24  C   UNL     1      -2.454  12.305  19.417  0.00  0.00    +0.000 C 
ATOM     25  O   UNL     1      -2.612  11.111  19.602  0.00  0.00    +0.000 OA
ATOM     26  N   UNL     1      -1.412  12.818  18.671  0.00  0.00    +0.000 N 
ATOM     27  H   UNL     1      -2.725  14.149  20.141  0.00  0.00    +0.000 HD
ATOM     28  H   UNL     1      -1.157  13.778  18.843  0.00  0.00    +0.000 HD
BRANCH  23  34
ATOM     29  C   UNL     1      -4.419  13.166  22.068  0.00  0.00    +0.000 A 
ATOM     30  C   UNL     1      -5.614  12.880  22.755  0.00  0.00    +0.000 A 
ATOM     31  C   UNL     1      -6.776  12.532  22.076  0.00  0.00    +0.000 A 
ATOM     32  C   UNL     1      -6.773  12.439  20.691  0.00  0.00    +0.000 A 
ATOM     33  C   UNL     1      -5.617  12.722  19.942  0.00  0.00    +0.000 A 
ATOM     34  C   UNL     1      -4.439  13.114  20.643  0.00  0.00    +0.000 A 
BRANCH  29  36
ATOM     35  C   UNL     1      -3.254  14.169  24.166  0.00  0.00    +0.000 C 
ATOM     36  C   UNL     1      -3.125  13.350  22.872  0.00  0.00    +0.000 C 
ATOM     37  C   UNL     1      -2.511  11.984  23.201  0.00  0.00    +0.000 C 
ENDBRANCH  29  36
BRANCH  33  38
ATOM     38  C   UNL     1      -5.669  12.571  18.418  0.00  0.00    +0.000 C 
ATOM     39  C   UNL     1      -6.040  11.132  18.046  0.00  0.00    +0.000 C 
ATOM     40  C   UNL     1      -6.624  13.539  17.699  0.00  0.00    +0.000 C 
ENDBRANCH  33  38
ENDBRANCH  23  34
ENDBRANCH  22  26
ENDBRANCH   1  22
TORSDOF 8
ENDMDL
