MODEL 1
REMARK VINA RESULT:      -8.7      0.000      0.000
REMARK  Name = 
REMARK  6 active torsions:
REMARK  status: ('A' for Active; 'I' for Inactive)
REMARK    1  A    between atoms: N_1  and  C_2
REMARK    2  A    between atoms: C_5  and  C_6
REMARK    3  A    between atoms: C_8  and  C_9
REMARK    4  A    between atoms: C_12  and  N_13
REMARK    5  A    between atoms: C_22  and  C_23
REMARK    6  A    between atoms: C_26  and  N_27
REMARK                            x       y       z     vdW  Elec       q    Type
REMARK                         _______ _______ _______ _____ _____    ______ ____
ROOT
ATOM      1  C   UNL     1      -1.202  11.702  18.467  0.00  0.00    +0.000 A 
ATOM      2  C   UNL     1      -0.507  10.521  18.722  0.00  0.00    +0.000 A 
ATOM      3  C   UNL     1       0.891  10.384  18.935  0.00  0.00    +0.000 A 
ATOM      4  C   UNL     1       1.750  11.506  18.949  0.00  0.00    +0.000 A 
ATOM      5  C   UNL     1       1.329  12.844  18.759  0.00  0.00    +0.000 A 
ATOM      6 SE   UNL     1      -0.401  13.309  18.441  0.00  0.00    +0.000 Se
ENDROOT
BRANCH   1  10
ATOM      7  C   UNL     1      -5.453  11.738  17.722  0.00  0.00    +0.000 A 
ATOM      8  C   UNL     1      -4.569  11.317  16.719  0.00  0.00    +0.000 A 
ATOM      9  C   UNL     1      -3.189  11.316  16.944  0.00  0.00    +0.000 A 
ATOM     10  C   UNL     1      -2.669  11.712  18.190  0.00  0.00    +0.000 A 
ATOM     11  C   UNL     1      -3.574  12.121  19.196  0.00  0.00    +0.000 A 
ATOM     12  C   UNL     1      -4.947  12.144  18.959  0.00  0.00    +0.000 A 
BRANCH   7  13
ATOM     13  N   UNL     1      -6.850  11.754  17.490  0.00  0.00    +0.000 N 
ATOM     14  H   UNL     1      -7.439  10.962  17.783  0.00  0.00    +0.000 HD
ATOM     15  H   UNL     1      -7.295  12.555  17.019  0.00  0.00    +0.000 HD
ENDBRANCH   7  13
ENDBRANCH   1  10
BRANCH   3  16
ATOM     16  C   UNL     1       1.438   8.974  19.076  0.00  0.00    +0.000 A 
ATOM     17  C   UNL     1       1.316   8.345  20.322  0.00  0.00    +0.000 A 
ATOM     18  C   UNL     1       1.788   7.072  20.558  0.00  0.00    +0.000 A 
ATOM     19  C   UNL     1       2.440   6.311  19.567  0.00  0.00    +0.000 A 
ATOM     20  C   UNL     1       2.560   6.909  18.285  0.00  0.00    +0.000 A 
ATOM     21  C   UNL     1       2.052   8.223  18.037  0.00  0.00    +0.000 A 
BRANCH  19  22
ATOM     22  N   UNL     1       2.949   4.987  19.906  0.00  0.00    +0.000 N 
ATOM     23  C   UNL     1       4.063   4.464  19.100  0.00  0.00    +0.000 C 
ATOM     24  C   UNL     1       4.557   3.080  19.501  0.00  0.00    +0.000 C 
ATOM     25  O   UNL     1       3.462   2.258  19.835  0.00  0.00    +0.000 OA
ATOM     26  C   UNL     1       2.955   2.751  21.058  0.00  0.00    +0.000 C 
ATOM     27  C   UNL     1       2.246   4.109  20.856  0.00  0.00    +0.000 C 
ENDBRANCH  19  22
ENDBRANCH   3  16
BRANCH   5  28
ATOM     28  C   UNL     1       2.270  14.009  18.663  0.00  0.00    +0.000 A 
ATOM     29  C   UNL     1       1.908  15.296  19.089  0.00  0.00    +0.000 A 
ATOM     30  C   UNL     1       2.854  16.333  19.085  0.00  0.00    +0.000 A 
ATOM     31  C   UNL     1       4.164  16.103  18.633  0.00  0.00    +0.000 A 
ATOM     32  C   UNL     1       4.521  14.837  18.182  0.00  0.00    +0.000 A 
ATOM     33  C   UNL     1       3.595  13.804  18.201  0.00  0.00    +0.000 A 
BRANCH  31  34
ATOM     34  N   UNL     1       5.127  17.140  18.644  0.00  0.00    +0.000 N 
ATOM     35  H   UNL     1       6.120  16.940  18.462  0.00  0.00    +0.000 HD
ATOM     36  H   UNL     1       4.839  18.117  18.805  0.00  0.00    +0.000 HD
ENDBRANCH  31  34
ENDBRANCH   5  28
TORSDOF 6
ENDMDL
MODEL 2
REMARK VINA RESULT:      -8.5      0.631      1.368
REMARK  Name = 
REMARK  6 active torsions:
REMARK  status: ('A' for Active; 'I' for Inactive)
REMARK    1  A    between atoms: N_1  and  C_2
REMARK    2  A    between atoms: C_5  and  C_6
REMARK    3  A    between atoms: C_8  and  C_9
REMARK    4  A    between atoms: C_12  and  N_13
REMARK    5  A    between atoms: C_22  and  C_23
REMARK    6  A    between atoms: C_26  and  N_27
REMARK                            x       y       z     vdW  Elec       q    Type
REMARK                         _______ _______ _______ _____ _____    ______ ____
ROOT
ATOM      1  C   UNL     1      -1.173  11.703  18.544  0.00  0.00    +0.000 A 
ATOM      2  C   UNL     1      -0.473  10.519  18.772  0.00  0.00    +0.000 A 
ATOM      3  C   UNL     1       0.927  10.383  18.975  0.00  0.00    +0.000 A 
ATOM      4  C   UNL     1       1.782  11.508  19.006  0.00  0.00    +0.000 A 
ATOM      5  C   UNL     1       1.356  12.848  18.844  0.00  0.00    +0.000 A 
ATOM      6 SE   UNL     1      -0.378  13.313  18.544  0.00  0.00    +0.000 Se
ENDROOT
BRANCH   1  10
ATOM      7  C   UNL     1      -5.407  11.726  17.707  0.00  0.00    +0.000 A 
ATOM      8  C   UNL     1      -4.939  12.138  18.962  0.00  0.00    +0.000 A 
ATOM      9  C   UNL     1      -3.570  12.120  19.249  0.00  0.00    +0.000 A 
ATOM     10  C   UNL     1      -2.642  11.713  18.274  0.00  0.00    +0.000 A 
ATOM     11  C   UNL     1      -3.129  11.314  17.009  0.00  0.00    +0.000 A 
ATOM     12  C   UNL     1      -4.494  11.310  16.734  0.00  0.00    +0.000 A 
BRANCH   7  13
ATOM     13  N   UNL     1      -6.794  11.730  17.420  0.00  0.00    +0.000 N 
ATOM     14  H   UNL     1      -7.479  11.983  18.147  0.00  0.00    +0.000 HD
ATOM     15  H   UNL     1      -7.138  11.473  16.483  0.00  0.00    +0.000 HD
ENDBRANCH   7  13
ENDBRANCH   1  10
BRANCH   3  16
ATOM     16  C   UNL     1       1.479   8.973  19.086  0.00  0.00    +0.000 A 
ATOM     17  C   UNL     1       2.043   8.398  17.939  0.00  0.00    +0.000 A 
ATOM     18  C   UNL     1       2.562   7.122  17.930  0.00  0.00    +0.000 A 
ATOM     19  C   UNL     1       2.553   6.293  19.070  0.00  0.00    +0.000 A 
ATOM     20  C   UNL     1       2.010   6.853  20.256  0.00  0.00    +0.000 A 
ATOM     21  C   UNL     1       1.490   8.184  20.269  0.00  0.00    +0.000 A 
BRANCH  19  22
ATOM     22  N   UNL     1       3.083   4.938  18.969  0.00  0.00    +0.000 N 
ATOM     23  C   UNL     1       3.472   4.463  17.632  0.00  0.00    +0.000 C 
ATOM     24  C   UNL     1       4.021   3.043  17.584  0.00  0.00    +0.000 C 
ATOM     25  O   UNL     1       3.288   2.215  18.458  0.00  0.00    +0.000 OA
ATOM     26  C   UNL     1       3.632   2.617  19.767  0.00  0.00    +0.000 C 
ATOM     27  C   UNL     1       3.025   3.998  20.100  0.00  0.00    +0.000 C 
ENDBRANCH  19  22
ENDBRANCH   3  16
BRANCH   5  28
ATOM     28  C   UNL     1       2.292  14.018  18.766  0.00  0.00    +0.000 A 
ATOM     29  C   UNL     1       2.023  15.233  19.414  0.00  0.00    +0.000 A 
ATOM     30  C   UNL     1       2.975  16.263  19.407  0.00  0.00    +0.000 A 
ATOM     31  C   UNL     1       4.197  16.101  18.732  0.00  0.00    +0.000 A 
ATOM     32  C   UNL     1       4.458  14.911  18.064  0.00  0.00    +0.000 A 
ATOM     33  C   UNL     1       3.527  13.882  18.082  0.00  0.00    +0.000 A 
BRANCH  31  34
ATOM     34  N   UNL     1       5.169  17.130  18.738  0.00  0.00    +0.000 N 
ATOM     35  H   UNL     1       4.978  18.034  19.192  0.00  0.00    +0.000 HD
ATOM     36  H   UNL     1       6.096  16.975  18.314  0.00  0.00    +0.000 HD
ENDBRANCH  31  34
ENDBRANCH   5  28
TORSDOF 6
ENDMDL
MODEL 3
REMARK VINA RESULT:      -8.4      0.691      1.385
REMARK  Name = 
REMARK  6 active torsions:
REMARK  status: ('A' for Active; 'I' for Inactive)
REMARK    1  A    between atoms: N_1  and  C_2
REMARK    2  A    between atoms: C_5  and  C_6
REMARK    3  A    between atoms: C_8  and  C_9
REMARK    4  A    between atoms: C_12  and  N_13
REMARK    5  A    between atoms: C_22  and  C_23
REMARK    6  A    between atoms: C_26  and  N_27
REMARK                            x       y       z     vdW  Elec       q    Type
REMARK                         _______ _______ _______ _____ _____    ______ ____
ROOT
ATOM      1  C   UNL     1      -1.122  11.685  18.596  0.00  0.00    +0.000 A 
ATOM      2  C   UNL     1      -0.451  10.494  18.866  0.00  0.00    +0.000 A 
ATOM      3  C   UNL     1       0.932  10.343  19.155  0.00  0.00    +0.000 A 
ATOM      4  C   UNL     1       1.795  11.458  19.240  0.00  0.00    +0.000 A 
ATOM      5  C   UNL     1       1.395  12.802  19.053  0.00  0.00    +0.000 A 
ATOM      6 SE   UNL     1      -0.312  13.286  18.647  0.00  0.00    +0.000 Se
ENDROOT
BRANCH   1  10
ATOM      7  C   UNL     1      -5.324  11.768  17.611  0.00  0.00    +0.000 A 
ATOM      8  C   UNL     1      -4.387  11.361  16.650  0.00  0.00    +0.000 A 
ATOM      9  C   UNL     1      -3.022  11.346  16.954  0.00  0.00    +0.000 A 
ATOM     10  C   UNL     1      -2.571  11.712  18.236  0.00  0.00    +0.000 A 
ATOM     11  C   UNL     1      -3.530  12.106  19.197  0.00  0.00    +0.000 A 
ATOM     12  C   UNL     1      -4.887  12.144  18.883  0.00  0.00    +0.000 A 
BRANCH   7  13
ATOM     13  N   UNL     1      -6.706  11.798  17.300  0.00  0.00    +0.000 N 
ATOM     14  H   UNL     1      -7.163  12.681  17.029  0.00  0.00    +0.000 HD
ATOM     15  H   UNL     1      -7.274  10.940  17.347  0.00  0.00    +0.000 HD
ENDBRANCH   7  13
ENDBRANCH   1  10
BRANCH   3  16
ATOM     16  C   UNL     1       1.461   8.926  19.299  0.00  0.00    +0.000 A 
ATOM     17  C   UNL     1       2.093   8.348  18.190  0.00  0.00    +0.000 A 
ATOM     18  C   UNL     1       2.599   7.066  18.212  0.00  0.00    +0.000 A 
ATOM     19  C   UNL     1       2.506   6.235  19.347  0.00  0.00    +0.000 A 
ATOM     20  C   UNL     1       1.892   6.799  20.496  0.00  0.00    +0.000 A 
ATOM     21  C   UNL     1       1.385   8.136  20.477  0.00  0.00    +0.000 A 
BRANCH  19  22
ATOM     22  N   UNL     1       3.027   4.875  19.278  0.00  0.00    +0.000 N 
ATOM     23  C   UNL     1       2.887   4.035  20.477  0.00  0.00    +0.000 C 
ATOM     24  C   UNL     1       3.445   2.624  20.348  0.00  0.00    +0.000 C 
ATOM     25  O   UNL     1       4.655   2.651  19.625  0.00  0.00    +0.000 OA
ATOM     26  C   UNL     1       4.311   2.952  18.289  0.00  0.00    +0.000 C 
ATOM     27  C   UNL     1       3.860   4.423  18.151  0.00  0.00    +0.000 C 
ENDBRANCH  19  22
ENDBRANCH   3  16
BRANCH   5  28
ATOM     28  C   UNL     1       2.347  13.962  19.034  0.00  0.00    +0.000 A 
ATOM     29  C   UNL     1       3.049  14.370  20.179  0.00  0.00    +0.000 A 
ATOM     30  C   UNL     1       4.011  15.388  20.092  0.00  0.00    +0.000 A 
ATOM     31  C   UNL     1       4.266  16.027  18.867  0.00  0.00    +0.000 A 
ATOM     32  C   UNL     1       3.553  15.648  17.735  0.00  0.00    +0.000 A 
ATOM     33  C   UNL     1       2.613  14.630  17.811  0.00  0.00    +0.000 A 
BRANCH  31  34
ATOM     34  N   UNL     1       5.248  17.041  18.770  0.00  0.00    +0.000 N 
ATOM     35  H   UNL     1       5.072  17.895  18.223  0.00  0.00    +0.000 HD
ATOM     36  H   UNL     1       6.143  16.951  19.275  0.00  0.00    +0.000 HD
ENDBRANCH  31  34
ENDBRANCH   5  28
TORSDOF 6
ENDMDL
MODEL 4
REMARK VINA RESULT:      -8.3      0.449      6.200
REMARK  Name = 
REMARK  6 active torsions:
REMARK  status: ('A' for Active; 'I' for Inactive)
REMARK    1  A    between atoms: N_1  and  C_2
REMARK    2  A    between atoms: C_5  and  C_6
REMARK    3  A    between atoms: C_8  and  C_9
REMARK    4  A    between atoms: C_12  and  N_13
REMARK    5  A    between atoms: C_22  and  C_23
REMARK    6  A    between atoms: C_26  and  N_27
REMARK                            x       y       z     vdW  Elec       q    Type
REMARK                         _______ _______ _______ _____ _____    ______ ____
ROOT
ATOM      1  C   UNL     1       1.072  12.804  18.617  0.00  0.00    +0.000 A 
ATOM      2  C   UNL     1       1.469  11.481  18.800  0.00  0.00    +0.000 A 
ATOM      3  C   UNL     1       0.627  10.338  18.856  0.00  0.00    +0.000 A 
ATOM      4  C   UNL     1      -0.771  10.441  18.680  0.00  0.00    +0.000 A 
ATOM      5  C   UNL     1      -1.464  11.651  18.437  0.00  0.00    +0.000 A 
ATOM      6 SE   UNL     1      -0.640  13.270  18.340  0.00  0.00    +0.000 Se
ENDROOT
BRANCH   1  10
ATOM      7  C   UNL     1       3.936  16.032  18.691  0.00  0.00    +0.000 A 
ATOM      8  C   UNL     1       2.615  16.258  19.103  0.00  0.00    +0.000 A 
ATOM      9  C   UNL     1       1.675  15.223  19.069  0.00  0.00    +0.000 A 
ATOM     10  C   UNL     1       2.047  13.934  18.645  0.00  0.00    +0.000 A 
ATOM     11  C   UNL     1       3.386  13.720  18.246  0.00  0.00    +0.000 A 
ATOM     12  C   UNL     1       4.314  14.759  18.259  0.00  0.00    +0.000 A 
BRANCH   7  13
ATOM     13  N   UNL     1       4.884  17.084  18.712  0.00  0.00    +0.000 N 
ATOM     14  H   UNL     1       5.784  16.969  19.201  0.00  0.00    +0.000 HD
ATOM     15  H   UNL     1       4.685  17.980  18.244  0.00  0.00    +0.000 HD
ENDBRANCH   7  13
ENDBRANCH   1  10
BRANCH   3  16
ATOM     16  C   UNL     1       1.282   9.008  19.185  0.00  0.00    +0.000 A 
ATOM     17  C   UNL     1       1.986   8.353  18.165  0.00  0.00    +0.000 A 
ATOM     18  C   UNL     1       2.607   7.138  18.357  0.00  0.00    +0.000 A 
ATOM     19  C   UNL     1       2.570   6.455  19.590  0.00  0.00    +0.000 A 
ATOM     20  C   UNL     1       1.884   7.101  20.651  0.00  0.00    +0.000 A 
ATOM     21  C   UNL     1       1.257   8.371  20.456  0.00  0.00    +0.000 A 
BRANCH  19  22
ATOM     22  N   UNL     1       3.216   5.152  19.700  0.00  0.00    +0.000 N 
ATOM     23  C   UNL     1       4.465   4.951  18.949  0.00  0.00    +0.000 C 
ATOM     24  C   UNL     1       5.098   3.575  19.104  0.00  0.00    +0.000 C 
ATOM     25  O   UNL     1       4.095   2.584  19.113  0.00  0.00    +0.000 OA
ATOM     26  C   UNL     1       3.407   2.727  20.338  0.00  0.00    +0.000 C 
ATOM     27  C   UNL     1       2.546   4.010  20.342  0.00  0.00    +0.000 C 
ENDBRANCH  19  22
ENDBRANCH   3  16
BRANCH   5  28
ATOM     28  C   UNL     1      -2.959  11.756  18.366  0.00  0.00    +0.000 A 
ATOM     29  C   UNL     1      -3.724  12.258  19.430  0.00  0.00    +0.000 A 
ATOM     30  C   UNL     1      -5.107  12.443  19.282  0.00  0.00    +0.000 A 
ATOM     31  C   UNL     1      -5.747  12.105  18.077  0.00  0.00    +0.000 A 
ATOM     32  C   UNL     1      -5.001  11.581  17.028  0.00  0.00    +0.000 A 
ATOM     33  C   UNL     1      -3.630  11.412  17.164  0.00  0.00    +0.000 A 
BRANCH  31  34
ATOM     34  N   UNL     1      -7.138  12.308  17.915  0.00  0.00    +0.000 N 
ATOM     35  H   UNL     1      -7.495  13.087  17.346  0.00  0.00    +0.000 HD
ATOM     36  H   UNL     1      -7.813  11.655  18.341  0.00  0.00    +0.000 HD
ENDBRANCH  31  34
ENDBRANCH   5  28
TORSDOF 6
ENDMDL
MODEL 5
REMARK VINA RESULT:      -8.3      0.610      6.270
REMARK  Name = 
REMARK  6 active torsions:
REMARK  status: ('A' for Active; 'I' for Inactive)
REMARK    1  A    between atoms: N_1  and  C_2
REMARK    2  A    between atoms: C_5  and  C_6
REMARK    3  A    between atoms: C_8  and  C_9
REMARK    4  A    between atoms: C_12  and  N_13
REMARK    5  A    between atoms: C_22  and  C_23
REMARK    6  A    between atoms: C_26  and  N_27
REMARK                            x       y       z     vdW  Elec       q    Type
REMARK                         _______ _______ _______ _____ _____    ______ ____
ROOT
ATOM      1  C   UNL     1       1.215  12.768  18.822  0.00  0.00    +0.000 A 
ATOM      2  C   UNL     1       1.600  11.437  18.975  0.00  0.00    +0.000 A 
ATOM      3  C   UNL     1       0.764  10.293  18.877  0.00  0.00    +0.000 A 
ATOM      4  C   UNL     1      -0.608  10.405  18.558  0.00  0.00    +0.000 A 
ATOM      5  C   UNL     1      -1.279  11.625  18.309  0.00  0.00    +0.000 A 
ATOM      6 SE   UNL     1      -0.460  13.248  18.390  0.00  0.00    +0.000 Se
ENDROOT
BRANCH   1  10
ATOM      7  C   UNL     1       4.010  16.019  19.332  0.00  0.00    +0.000 A 
ATOM      8  C   UNL     1       3.335  15.494  20.443  0.00  0.00    +0.000 A 
ATOM      9  C   UNL     1       2.416  14.451  20.287  0.00  0.00    +0.000 A 
ATOM     10  C   UNL     1       2.175  13.896  19.017  0.00  0.00    +0.000 A 
ATOM     11  C   UNL     1       2.873  14.427  17.909  0.00  0.00    +0.000 A 
ATOM     12  C   UNL     1       3.769  15.483  18.064  0.00  0.00    +0.000 A 
BRANCH   7  13
ATOM     13  N   UNL     1       4.929  17.085  19.486  0.00  0.00    +0.000 N 
ATOM     14  H   UNL     1       5.898  16.995  19.148  0.00  0.00    +0.000 HD
ATOM     15  H   UNL     1       4.644  17.962  19.945  0.00  0.00    +0.000 HD
ENDBRANCH   7  13
ENDBRANCH   1  10
BRANCH   3  16
ATOM     16  C   UNL     1       1.388   8.947  19.201  0.00  0.00    +0.000 A 
ATOM     17  C   UNL     1       2.098   8.292  18.185  0.00  0.00    +0.000 A 
ATOM     18  C   UNL     1       2.693   7.063  18.372  0.00  0.00    +0.000 A 
ATOM     19  C   UNL     1       2.622   6.366  19.596  0.00  0.00    +0.000 A 
ATOM     20  C   UNL     1       1.930   7.012  20.653  0.00  0.00    +0.000 A 
ATOM     21  C   UNL     1       1.330   8.295  20.463  0.00  0.00    +0.000 A 
BRANCH  19  22
ATOM     22  N   UNL     1       3.242   5.050  19.701  0.00  0.00    +0.000 N 
ATOM     23  C   UNL     1       4.442   4.801  18.888  0.00  0.00    +0.000 C 
ATOM     24  C   UNL     1       5.049   3.413  19.039  0.00  0.00    +0.000 C 
ATOM     25  O   UNL     1       4.026   2.448  19.127  0.00  0.00    +0.000 OA
ATOM     26  C   UNL     1       3.411   2.636  20.384  0.00  0.00    +0.000 C 
ATOM     27  C   UNL     1       2.582   3.939  20.406  0.00  0.00    +0.000 C 
ENDBRANCH  19  22
ENDBRANCH   3  16
BRANCH   5  28
ATOM     28  C   UNL     1      -2.759  11.734  18.084  0.00  0.00    +0.000 A 
ATOM     29  C   UNL     1      -3.353  11.400  16.857  0.00  0.00    +0.000 A 
ATOM     30  C   UNL     1      -4.750  11.410  16.723  0.00  0.00    +0.000 A 
ATOM     31  C   UNL     1      -5.569  11.776  17.805  0.00  0.00    +0.000 A 
ATOM     32  C   UNL     1      -4.985  12.136  19.014  0.00  0.00    +0.000 A 
ATOM     33  C   UNL     1      -3.605  12.111  19.157  0.00  0.00    +0.000 A 
BRANCH  31  34
ATOM     34  N   UNL     1      -6.979  11.770  17.681  0.00  0.00    +0.000 N 
ATOM     35  H   UNL     1      -7.427  11.566  16.777  0.00  0.00    +0.000 HD
ATOM     36  H   UNL     1      -7.576  11.938  18.504  0.00  0.00    +0.000 HD
ENDBRANCH  31  34
ENDBRANCH   5  28
TORSDOF 6
ENDMDL
MODEL 6
REMARK VINA RESULT:      -8.2      0.970      1.375
REMARK  Name = 
REMARK  6 active torsions:
REMARK  status: ('A' for Active; 'I' for Inactive)
REMARK    1  A    between atoms: N_1  and  C_2
REMARK    2  A    between atoms: C_5  and  C_6
REMARK    3  A    between atoms: C_8  and  C_9
REMARK    4  A    between atoms: C_12  and  N_13
REMARK    5  A    between atoms: C_22  and  C_23
REMARK    6  A    between atoms: C_26  and  N_27
REMARK                            x       y       z     vdW  Elec       q    Type
REMARK                         _______ _______ _______ _____ _____    ______ ____
ROOT
ATOM      1  C   UNL     1      -1.245  11.733  18.760  0.00  0.00    +0.000 A 
ATOM      2  C   UNL     1      -0.513  10.557  18.918  0.00  0.00    +0.000 A 
ATOM      3  C   UNL     1       0.873  10.450  19.212  0.00  0.00    +0.000 A 
ATOM      4  C   UNL     1       1.674  11.594  19.422  0.00  0.00    +0.000 A 
ATOM      5  C   UNL     1       1.204  12.928  19.366  0.00  0.00    +0.000 A 
ATOM      6 SE   UNL     1      -0.522  13.361  18.986  0.00  0.00    +0.000 Se
ENDROOT
BRANCH   1  10
ATOM      7  C   UNL     1      -5.436  11.705  17.724  0.00  0.00    +0.000 A 
ATOM      8  C   UNL     1      -4.482  11.260  16.798  0.00  0.00    +0.000 A 
ATOM      9  C   UNL     1      -3.120  11.279  17.118  0.00  0.00    +0.000 A 
ATOM     10  C   UNL     1      -2.690  11.721  18.382  0.00  0.00    +0.000 A 
ATOM     11  C   UNL     1      -3.665  12.154  19.309  0.00  0.00    +0.000 A 
ATOM     12  C   UNL     1      -5.018  12.157  18.979  0.00  0.00    +0.000 A 
BRANCH   7  13
ATOM     13  N   UNL     1      -6.813  11.701  17.396  0.00  0.00    +0.000 N 
ATOM     14  H   UNL     1      -7.119  11.593  16.418  0.00  0.00    +0.000 HD
ATOM     15  H   UNL     1      -7.528  11.811  18.130  0.00  0.00    +0.000 HD
ENDBRANCH   7  13
ENDBRANCH   1  10
BRANCH   3  16
ATOM     16  C   UNL     1       1.475   9.056  19.219  0.00  0.00    +0.000 A 
ATOM     17  C   UNL     1       2.105   8.609  18.050  0.00  0.00    +0.000 A 
ATOM     18  C   UNL     1       2.675   7.358  17.948  0.00  0.00    +0.000 A 
ATOM     19  C   UNL     1       2.654   6.429  19.008  0.00  0.00    +0.000 A 
ATOM     20  C   UNL     1       2.044   6.858  20.216  0.00  0.00    +0.000 A 
ATOM     21  C   UNL     1       1.471   8.164  20.325  0.00  0.00    +0.000 A 
BRANCH  19  22
ATOM     22  N   UNL     1       3.241   5.108  18.808  0.00  0.00    +0.000 N 
ATOM     23  C   UNL     1       3.655   4.753  17.442  0.00  0.00    +0.000 C 
ATOM     24  C   UNL     1       4.264   3.365  17.291  0.00  0.00    +0.000 C 
ATOM     25  O   UNL     1       3.561   2.443  18.093  0.00  0.00    +0.000 OA
ATOM     26  C   UNL     1       3.882   2.758  19.432  0.00  0.00    +0.000 C 
ATOM     27  C   UNL     1       3.215   4.083  19.864  0.00  0.00    +0.000 C 
ENDBRANCH  19  22
ENDBRANCH   3  16
BRANCH   5  28
ATOM     28  C   UNL     1       2.093  14.132  19.480  0.00  0.00    +0.000 A 
ATOM     29  C   UNL     1       1.898  15.279  18.695  0.00  0.00    +0.000 A 
ATOM     30  C   UNL     1       2.682  16.423  18.910  0.00  0.00    +0.000 A 
ATOM     31  C   UNL     1       3.685  16.426  19.895  0.00  0.00    +0.000 A 
ATOM     32  C   UNL     1       3.902  15.284  20.656  0.00  0.00    +0.000 A 
ATOM     33  C   UNL     1       3.118  14.156  20.459  0.00  0.00    +0.000 A 
BRANCH  31  34
ATOM     34  N   UNL     1       4.466  17.584  20.128  0.00  0.00    +0.000 N 
ATOM     35  H   UNL     1       4.135  18.511  19.831  0.00  0.00    +0.000 HD
ATOM     36  H   UNL     1       5.364  17.514  20.630  0.00  0.00    +0.000 HD
ENDBRANCH  31  34
ENDBRANCH   5  28
TORSDOF 6
ENDMDL
MODEL 7
REMARK VINA RESULT:      -8.1      1.018      6.326
REMARK  Name = 
REMARK  6 active torsions:
REMARK  status: ('A' for Active; 'I' for Inactive)
REMARK    1  A    between atoms: N_1  and  C_2
REMARK    2  A    between atoms: C_5  and  C_6
REMARK    3  A    between atoms: C_8  and  C_9
REMARK    4  A    between atoms: C_12  and  N_13
REMARK    5  A    between atoms: C_22  and  C_23
REMARK    6  A    between atoms: C_26  and  N_27
REMARK                            x       y       z     vdW  Elec       q    Type
REMARK                         _______ _______ _______ _____ _____    ______ ____
ROOT
ATOM      1  C   UNL     1       1.079  13.004  19.000  0.00  0.00    +0.000 A 
ATOM      2  C   UNL     1       1.546  11.691  18.986  0.00  0.00    +0.000 A 
ATOM      3  C   UNL     1       0.773  10.514  18.791  0.00  0.00    +0.000 A 
ATOM      4  C   UNL     1      -0.616  10.575  18.540  0.00  0.00    +0.000 A 
ATOM      5  C   UNL     1      -1.367  11.772  18.456  0.00  0.00    +0.000 A 
ATOM      6 SE   UNL     1      -0.639  13.424  18.688  0.00  0.00    +0.000 Se
ENDROOT
BRANCH   1  10
ATOM      7  C   UNL     1       3.702  16.320  19.870  0.00  0.00    +0.000 A 
ATOM      8  C   UNL     1       2.708  16.451  18.890  0.00  0.00    +0.000 A 
ATOM      9  C   UNL     1       1.862  15.378  18.589  0.00  0.00    +0.000 A 
ATOM     10  C   UNL     1       1.980  14.160  19.284  0.00  0.00    +0.000 A 
ATOM     11  C   UNL     1       2.978  14.049  20.278  0.00  0.00    +0.000 A 
ATOM     12  C   UNL     1       3.834  15.111  20.558  0.00  0.00    +0.000 A 
BRANCH   7  13
ATOM     13  N   UNL     1       4.568  17.401  20.164  0.00  0.00    +0.000 N 
ATOM     14  H   UNL     1       4.529  18.270  19.612  0.00  0.00    +0.000 HD
ATOM     15  H   UNL     1       5.253  17.331  20.931  0.00  0.00    +0.000 HD
ENDBRANCH   7  13
ENDBRANCH   1  10
BRANCH   3  16
ATOM     16  C   UNL     1       1.488   9.182  18.937  0.00  0.00    +0.000 A 
ATOM     17  C   UNL     1       2.252   8.726  17.854  0.00  0.00    +0.000 A 
ATOM     18  C   UNL     1       2.931   7.527  17.881  0.00  0.00    +0.000 A 
ATOM     19  C   UNL     1       2.897   6.662  18.993  0.00  0.00    +0.000 A 
ATOM     20  C   UNL     1       2.151   7.104  20.117  0.00  0.00    +0.000 A 
ATOM     21  C   UNL     1       1.463   8.358  20.095  0.00  0.00    +0.000 A 
BRANCH  19  22
ATOM     22  N   UNL     1       3.607   5.390  18.927  0.00  0.00    +0.000 N 
ATOM     23  C   UNL     1       2.835   4.169  19.206  0.00  0.00    +0.000 C 
ATOM     24  C   UNL     1       3.624   2.870  19.120  0.00  0.00    +0.000 C 
ATOM     25  O   UNL     1       4.908   3.052  19.672  0.00  0.00    +0.000 OA
ATOM     26  C   UNL     1       5.613   3.881  18.772  0.00  0.00    +0.000 C 
ATOM     27  C   UNL     1       5.073   5.328  18.815  0.00  0.00    +0.000 C 
ENDBRANCH  19  22
ENDBRANCH   3  16
BRANCH   5  28
ATOM     28  C   UNL     1      -2.859  11.812  18.301  0.00  0.00    +0.000 A 
ATOM     29  C   UNL     1      -3.499  11.384  17.128  0.00  0.00    +0.000 A 
ATOM     30  C   UNL     1      -4.900  11.335  17.066  0.00  0.00    +0.000 A 
ATOM     31  C   UNL     1      -5.678  11.735  18.165  0.00  0.00    +0.000 A 
ATOM     32  C   UNL     1      -5.051  12.187  19.320  0.00  0.00    +0.000 A 
ATOM     33  C   UNL     1      -3.666  12.222  19.393  0.00  0.00    +0.000 A 
BRANCH  31  34
ATOM     34  N   UNL     1      -7.091  11.669  18.114  0.00  0.00    +0.000 N 
ATOM     35  H   UNL     1      -7.618  11.120  18.807  0.00  0.00    +0.000 HD
ATOM     36  H   UNL     1      -7.613  12.198  17.399  0.00  0.00    +0.000 HD
ENDBRANCH  31  34
ENDBRANCH   5  28
TORSDOF 6
ENDMDL
MODEL 8
REMARK VINA RESULT:      -8.1      0.844      1.684
REMARK  Name = 
REMARK  6 active torsions:
REMARK  status: ('A' for Active; 'I' for Inactive)
REMARK    1  A    between atoms: N_1  and  C_2
REMARK    2  A    between atoms: C_5  and  C_6
REMARK    3  A    between atoms: C_8  and  C_9
REMARK    4  A    between atoms: C_12  and  N_13
REMARK    5  A    between atoms: C_22  and  C_23
REMARK    6  A    between atoms: C_26  and  N_27
REMARK                            x       y       z     vdW  Elec       q    Type
REMARK                         _______ _______ _______ _____ _____    ______ ____
ROOT
ATOM      1  C   UNL     1      -1.356  11.824  18.878  0.00  0.00    +0.000 A 
ATOM      2  C   UNL     1      -0.636  10.648  19.083  0.00  0.00    +0.000 A 
ATOM      3  C   UNL     1       0.754  10.536  19.354  0.00  0.00    +0.000 A 
ATOM      4  C   UNL     1       1.575  11.679  19.487  0.00  0.00    +0.000 A 
ATOM      5  C   UNL     1       1.121  13.014  19.370  0.00  0.00    +0.000 A 
ATOM      6 SE   UNL     1      -0.607  13.451  19.002  0.00  0.00    +0.000 Se
ENDROOT
BRANCH   1  10
ATOM      7  C   UNL     1      -5.540  11.779  17.817  0.00  0.00    +0.000 A 
ATOM      8  C   UNL     1      -5.141  12.252  19.075  0.00  0.00    +0.000 A 
ATOM      9  C   UNL     1      -3.789  12.257  19.435  0.00  0.00    +0.000 A 
ATOM     10  C   UNL     1      -2.808  11.812  18.530  0.00  0.00    +0.000 A 
ATOM     11  C   UNL     1      -3.225  11.350  17.261  0.00  0.00    +0.000 A 
ATOM     12  C   UNL     1      -4.575  11.324  16.915  0.00  0.00    +0.000 A 
BRANCH   7  13
ATOM     13  N   UNL     1      -6.909  11.759  17.458  0.00  0.00    +0.000 N 
ATOM     14  H   UNL     1      -7.406  10.866  17.332  0.00  0.00    +0.000 HD
ATOM     15  H   UNL     1      -7.426  12.639  17.311  0.00  0.00    +0.000 HD
ENDBRANCH   7  13
ENDBRANCH   1  10
BRANCH   3  16
ATOM     16  C   UNL     1       1.338   9.136  19.423  0.00  0.00    +0.000 A 
ATOM     17  C   UNL     1       1.969   8.633  18.276  0.00  0.00    +0.000 A 
ATOM     18  C   UNL     1       2.523   7.371  18.231  0.00  0.00    +0.000 A 
ATOM     19  C   UNL     1       2.485   6.488  19.329  0.00  0.00    +0.000 A 
ATOM     20  C   UNL     1       1.873   6.975  20.513  0.00  0.00    +0.000 A 
ATOM     21  C   UNL     1       1.317   8.291  20.565  0.00  0.00    +0.000 A 
BRANCH  19  22
ATOM     22  N   UNL     1       3.055   5.153  19.187  0.00  0.00    +0.000 N 
ATOM     23  C   UNL     1       2.899   4.227  20.320  0.00  0.00    +0.000 C 
ATOM     24  C   UNL     1       3.510   2.848  20.117  0.00  0.00    +0.000 C 
ATOM     25  O   UNL     1       4.744   2.963  19.447  0.00  0.00    +0.000 OA
ATOM     26  C   UNL     1       4.441   3.345  18.121  0.00  0.00    +0.000 C 
ATOM     27  C   UNL     1       3.945   4.807  18.067  0.00  0.00    +0.000 C 
ENDBRANCH  19  22
ENDBRANCH   3  16
BRANCH   5  28
ATOM     28  C   UNL     1       2.027  14.210  19.402  0.00  0.00    +0.000 A 
ATOM     29  C   UNL     1       1.639  15.454  18.882  0.00  0.00    +0.000 A 
ATOM     30  C   UNL     1       2.473  16.573  19.031  0.00  0.00    +0.000 A 
ATOM     31  C   UNL     1       3.714  16.457  19.679  0.00  0.00    +0.000 A 
ATOM     32  C   UNL     1       4.118  15.221  20.170  0.00  0.00    +0.000 A 
ATOM     33  C   UNL     1       3.290  14.115  20.041  0.00  0.00    +0.000 A 
BRANCH  31  34
ATOM     34  N   UNL     1       4.551  17.587  19.848  0.00  0.00    +0.000 N 
ATOM     35  H   UNL     1       4.959  17.806  20.767  0.00  0.00    +0.000 HD
ATOM     36  H   UNL     1       4.787  18.186  19.044  0.00  0.00    +0.000 HD
ENDBRANCH  31  34
ENDBRANCH   5  28
TORSDOF 6
ENDMDL
MODEL 9
REMARK VINA RESULT:      -8.1      0.806      6.146
REMARK  Name = 
REMARK  6 active torsions:
REMARK  status: ('A' for Active; 'I' for Inactive)
REMARK    1  A    between atoms: N_1  and  C_2
REMARK    2  A    between atoms: C_5  and  C_6
REMARK    3  A    between atoms: C_8  and  C_9
REMARK    4  A    between atoms: C_12  and  N_13
REMARK    5  A    between atoms: C_22  and  C_23
REMARK    6  A    between atoms: C_26  and  N_27
REMARK                            x       y       z     vdW  Elec       q    Type
REMARK                         _______ _______ _______ _____ _____    ______ ____
ROOT
ATOM      1  C   UNL     1       1.398  12.855  18.922  0.00  0.00    +0.000 A 
ATOM      2  C   UNL     1       1.722  11.499  18.916  0.00  0.00    +0.000 A 
ATOM      3  C   UNL     1       0.816  10.407  18.970  0.00  0.00    +0.000 A 
ATOM      4  C   UNL     1      -0.582  10.607  18.996  0.00  0.00    +0.000 A 
ATOM      5  C   UNL     1      -1.215  11.873  18.972  0.00  0.00    +0.000 A 
ATOM      6 SE   UNL     1      -0.298  13.445  18.928  0.00  0.00    +0.000 Se
ENDROOT
BRANCH   1  10
ATOM      7  C   UNL     1       4.428  15.929  18.892  0.00  0.00    +0.000 A 
ATOM      8  C   UNL     1       4.141  15.240  20.079  0.00  0.00    +0.000 A 
ATOM      9  C   UNL     1       3.150  14.253  20.103  0.00  0.00    +0.000 A 
ATOM     10  C   UNL     1       2.446  13.919  18.932  0.00  0.00    +0.000 A 
ATOM     11  C   UNL     1       2.757  14.613  17.741  0.00  0.00    +0.000 A 
ATOM     12  C   UNL     1       3.727  15.613  17.726  0.00  0.00    +0.000 A 
BRANCH   7  13
ATOM     13  N   UNL     1       5.420  16.940  18.870  0.00  0.00    +0.000 N 
ATOM     14  H   UNL     1       5.321  17.758  18.252  0.00  0.00    +0.000 HD
ATOM     15  H   UNL     1       6.258  16.867  19.466  0.00  0.00    +0.000 HD
ENDBRANCH   7  13
ENDBRANCH   1  10
BRANCH   3  16
ATOM     16  C   UNL     1       1.412   9.014  19.072  0.00  0.00    +0.000 A 
ATOM     17  C   UNL     1       1.306   8.344  20.299  0.00  0.00    +0.000 A 
ATOM     18  C   UNL     1       1.821   7.082  20.500  0.00  0.00    +0.000 A 
ATOM     19  C   UNL     1       2.506   6.375  19.491  0.00  0.00    +0.000 A 
ATOM     20  C   UNL     1       2.612   7.015  18.228  0.00  0.00    +0.000 A 
ATOM     21  C   UNL     1       2.059   8.316  18.016  0.00  0.00    +0.000 A 
BRANCH  19  22
ATOM     22  N   UNL     1       3.061   5.061  19.795  0.00  0.00    +0.000 N 
ATOM     23  C   UNL     1       4.192   4.598  18.976  0.00  0.00    +0.000 C 
ATOM     24  C   UNL     1       4.733   3.222  19.338  0.00  0.00    +0.000 C 
ATOM     25  O   UNL     1       3.667   2.354  19.649  0.00  0.00    +0.000 OA
ATOM     26  C   UNL     1       3.144   2.795  20.885  0.00  0.00    +0.000 C 
ATOM     27  C   UNL     1       2.389   4.133  20.719  0.00  0.00    +0.000 C 
ENDBRANCH  19  22
ENDBRANCH   3  16
BRANCH   5  28
ATOM     28  C   UNL     1      -2.695  12.070  19.115  0.00  0.00    +0.000 A 
ATOM     29  C   UNL     1      -3.255  12.770  20.195  0.00  0.00    +0.000 A 
ATOM     30  C   UNL     1      -4.634  13.026  20.233  0.00  0.00    +0.000 A 
ATOM     31  C   UNL     1      -5.474  12.565  19.205  0.00  0.00    +0.000 A 
ATOM     32  C   UNL     1      -4.931  11.847  18.147  0.00  0.00    +0.000 A 
ATOM     33  C   UNL     1      -3.565  11.606  18.095  0.00  0.00    +0.000 A 
BRANCH  31  34
ATOM     34  N   UNL     1      -6.863  12.838  19.229  0.00  0.00    +0.000 N 
ATOM     35  H   UNL     1      -7.291  13.456  18.527  0.00  0.00    +0.000 HD
ATOM     36  H   UNL     1      -7.470  12.392  19.934  0.00  0.00    +0.000 HD
ENDBRANCH  31  34
ENDBRANCH   5  28
TORSDOF 6
ENDMDL
