MODEL 1
REMARK VINA RESULT:      -7.1      0.000      0.000
REMARK  Name = 
REMARK  7 active torsions:
REMARK  status: ('A' for Active; 'I' for Inactive)
REMARK    1  A    between atoms: N_3  and  O_4
REMARK    2  A    between atoms: N_3  and  C_5
REMARK    3  A    between atoms: C_5  and  C_6
REMARK    4  A    between atoms: C_6  and  C_7
REMARK    5  A    between atoms: C_6  and  C_13
REMARK    6  A    between atoms: C_7  and  C_8
REMARK    7  A    between atoms: C_21  and  C_23
REMARK                            x       y       z     vdW  Elec       q    Type
REMARK                         _______ _______ _______ _____ _____    ______ ____
ROOT
ATOM      1  C   UNL     1       5.818   4.711  18.795  0.00  0.00    +0.000 C 
ATOM      2  O   UNL     1       6.670   4.801  19.686  0.00  0.00    +0.000 OA
ATOM      3  N   UNL     1       4.749   3.839  18.937  0.00  0.00    +0.000 N 
ATOM      4  C   UNL     1       4.515   3.070  20.168  0.00  0.00    +0.000 C 
ATOM      5  C   UNL     1       4.508   1.568  19.914  0.00  0.00    +0.000 C 
ATOM      6  C   UNL     1       3.554   1.238  18.767  0.00  0.00    +0.000 C 
ATOM      7  C   UNL     1       3.865   2.123  17.557  0.00  0.00    +0.000 C 
ATOM      8  N   UNL     1       3.809   3.546  17.928  0.00  0.00    +0.000 N 
ATOM      9  C   UNL     1       2.647   4.298  17.684  0.00  0.00    +0.000 C 
ATOM     10  O   UNL     1       1.740   3.864  16.970  0.00  0.00    +0.000 OA
ENDROOT
BRANCH   9  11
ATOM     11  C   UNL     1       2.489   5.693  18.207  0.00  0.00    +0.000 A 
ATOM     12  C   UNL     1       2.236   5.840  19.581  0.00  0.00    +0.000 A 
ATOM     13  C   UNL     1       2.011   7.108  20.130  0.00  0.00    +0.000 A 
ATOM     14  C   UNL     1       2.034   8.226  19.307  0.00  0.00    +0.000 A 
ATOM     15  F   UNL     1       1.799   9.438  19.824  0.00  0.00    +0.000 F 
ATOM     16  C   UNL     1       2.307   8.105  17.954  0.00  0.00    +0.000 A 
ATOM     17  C   UNL     1       2.560   6.844  17.413  0.00  0.00    +0.000 A 
ENDBRANCH   9  11
BRANCH   1  18
ATOM     18  C   UNL     1       5.901   5.628  17.570  0.00  0.00    +0.000 C 
BRANCH  18  19
ATOM     19  C   UNL     1       5.930   7.085  18.091  0.00  0.00    +0.000 C 
BRANCH  19  22
ATOM     20  O   UNL     1       8.770   9.363  17.821  0.00  0.00    +0.000 OA
ATOM     21  C   UNL     1       7.662   8.875  17.624  0.00  0.00    +0.000 C 
ATOM     22  N   UNL     1       7.260   7.662  18.104  0.00  0.00    +0.000 N 
BRANCH  22  23
ATOM     23  O   UNL     1       8.189   6.927  18.869  0.00  0.00    +0.000 OA
ATOM     24  H   UNL     1       7.839   6.014  18.793  0.00  0.00    +0.000 HD
ENDBRANCH  22  23
ENDBRANCH  19  22
ENDBRANCH  18  19
BRANCH  18  25
ATOM     25  C   UNL     1       7.001   5.286  16.548  0.00  0.00    +0.000 C 
BRANCH  25  26
ATOM     26  C   UNL     1       6.569   4.416  15.370  0.00  0.00    +0.000 C 
ATOM     27  C   UNL     1       5.130   4.607  14.909  0.00  0.00    +0.000 C 
ATOM     28  C   UNL     1       5.101   3.870  13.575  0.00  0.00    +0.000 C 
ATOM     29  C   UNL     1       6.528   3.946  13.026  0.00  0.00    +0.000 C 
ATOM     30  C   UNL     1       7.335   4.705  14.078  0.00  0.00    +0.000 C 
ENDBRANCH  25  26
ENDBRANCH  18  25
ENDBRANCH   1  18
TORSDOF 7
ENDMDL
MODEL 2
REMARK VINA RESULT:      -6.3      6.807      9.964
REMARK  Name = 
REMARK  7 active torsions:
REMARK  status: ('A' for Active; 'I' for Inactive)
REMARK    1  A    between atoms: N_3  and  O_4
REMARK    2  A    between atoms: N_3  and  C_5
REMARK    3  A    between atoms: C_5  and  C_6
REMARK    4  A    between atoms: C_6  and  C_7
REMARK    5  A    between atoms: C_6  and  C_13
REMARK    6  A    between atoms: C_7  and  C_8
REMARK    7  A    between atoms: C_21  and  C_23
REMARK                            x       y       z     vdW  Elec       q    Type
REMARK                         _______ _______ _______ _____ _____    ______ ____
ROOT
ATOM      1  C   UNL     1      -0.612  11.011  20.857  0.00  0.00    +0.000 C 
ATOM      2  O   UNL     1      -0.164  10.043  21.480  0.00  0.00    +0.000 OA
ATOM      3  N   UNL     1      -1.292  12.017  21.527  0.00  0.00    +0.000 N 
ATOM      4  C   UNL     1      -1.424  12.043  22.991  0.00  0.00    +0.000 C 
ATOM      5  C   UNL     1      -2.879  12.035  23.438  0.00  0.00    +0.000 C 
ATOM      6  C   UNL     1      -3.654  13.133  22.710  0.00  0.00    +0.000 C 
ATOM      7  C   UNL     1      -3.412  13.032  21.202  0.00  0.00    +0.000 C 
ATOM      8  N   UNL     1      -1.972  13.083  20.903  0.00  0.00    +0.000 N 
ATOM      9  C   UNL     1      -1.369  14.294  20.522  0.00  0.00    +0.000 C 
ATOM     10  O   UNL     1      -2.045  15.279  20.216  0.00  0.00    +0.000 OA
ENDROOT
BRANCH   9  11
ATOM     11  C   UNL     1       0.117  14.423  20.384  0.00  0.00    +0.000 A 
ATOM     12  C   UNL     1       0.627  14.648  19.094  0.00  0.00    +0.000 A 
ATOM     13  C   UNL     1       2.008  14.713  18.877  0.00  0.00    +0.000 A 
ATOM     14  C   UNL     1       2.879  14.548  19.946  0.00  0.00    +0.000 A 
ATOM     15  F   UNL     1       4.200  14.590  19.740  0.00  0.00    +0.000 F 
ATOM     16  C   UNL     1       2.396  14.352  21.230  0.00  0.00    +0.000 A 
ATOM     17  C   UNL     1       1.019  14.316  21.450  0.00  0.00    +0.000 A 
ENDBRANCH   9  11
BRANCH   1  18
ATOM     18  C   UNL     1      -0.342  11.139  19.354  0.00  0.00    +0.000 C 
BRANCH  18  19
ATOM     19  C   UNL     1       1.193  11.098  19.161  0.00  0.00    +0.000 C 
BRANCH  19  22
ATOM     20  O   UNL     1       2.046   7.585  18.649  0.00  0.00    +0.000 OA
ATOM     21  C   UNL     1       1.796   8.637  19.229  0.00  0.00    +0.000 C 
ATOM     22  N   UNL     1       1.668   9.845  18.606  0.00  0.00    +0.000 N 
BRANCH  22  23
ATOM     23  O   UNL     1       1.843   9.876  17.207  0.00  0.00    +0.000 OA
ATOM     24  H   UNL     1       0.918   9.910  16.885  0.00  0.00    +0.000 HD
ENDBRANCH  22  23
ENDBRANCH  19  22
ENDBRANCH  18  19
BRANCH  18  25
ATOM     25  C   UNL     1      -1.133  10.180  18.445  0.00  0.00    +0.000 C 
BRANCH  25  26
ATOM     26  C   UNL     1      -2.066  10.839  17.433  0.00  0.00    +0.000 C 
ATOM     27  C   UNL     1      -2.421   9.989  16.220  0.00  0.00    +0.000 C 
ATOM     28  C   UNL     1      -3.570  10.764  15.587  0.00  0.00    +0.000 C 
ATOM     29  C   UNL     1      -4.254  11.508  16.738  0.00  0.00    +0.000 C 
ATOM     30  C   UNL     1      -3.455  11.153  17.991  0.00  0.00    +0.000 C 
ENDBRANCH  25  26
ENDBRANCH  18  25
ENDBRANCH   1  18
TORSDOF 7
ENDMDL
MODEL 3
REMARK VINA RESULT:      -6.2      7.047     10.131
REMARK  Name = 
REMARK  7 active torsions:
REMARK  status: ('A' for Active; 'I' for Inactive)
REMARK    1  A    between atoms: N_3  and  O_4
REMARK    2  A    between atoms: N_3  and  C_5
REMARK    3  A    between atoms: C_5  and  C_6
REMARK    4  A    between atoms: C_6  and  C_7
REMARK    5  A    between atoms: C_6  and  C_13
REMARK    6  A    between atoms: C_7  and  C_8
REMARK    7  A    between atoms: C_21  and  C_23
REMARK                            x       y       z     vdW  Elec       q    Type
REMARK                         _______ _______ _______ _____ _____    ______ ____
ROOT
ATOM      1  C   UNL     1      -0.863  11.117  21.130  0.00  0.00    +0.000 C 
ATOM      2  O   UNL     1      -0.411  10.182  21.799  0.00  0.00    +0.000 OA
ATOM      3  N   UNL     1      -1.580  12.133  21.744  0.00  0.00    +0.000 N 
ATOM      4  C   UNL     1      -1.749  12.210  23.202  0.00  0.00    +0.000 C 
ATOM      5  C   UNL     1      -3.215  12.188  23.613  0.00  0.00    +0.000 C 
ATOM      6  C   UNL     1      -3.992  13.243  22.825  0.00  0.00    +0.000 C 
ATOM      7  C   UNL     1      -3.710  13.091  21.328  0.00  0.00    +0.000 C 
ATOM      8  N   UNL     1      -2.264  13.161  21.064  0.00  0.00    +0.000 N 
ATOM      9  C   UNL     1      -1.675  14.369  20.653  0.00  0.00    +0.000 C 
ATOM     10  O   UNL     1      -2.362  15.328  20.294  0.00  0.00    +0.000 OA
ENDROOT
BRANCH   9  11
ATOM     11  C   UNL     1      -0.189  14.523  20.547  0.00  0.00    +0.000 A 
ATOM     12  C   UNL     1       0.537  14.597  21.748  0.00  0.00    +0.000 A 
ATOM     13  C   UNL     1       1.920  14.808  21.731  0.00  0.00    +0.000 A 
ATOM     14  C   UNL     1       2.577  14.950  20.515  0.00  0.00    +0.000 A 
ATOM     15  F   UNL     1       3.897  15.172  20.494  0.00  0.00    +0.000 F 
ATOM     16  C   UNL     1       1.884  14.853  19.319  0.00  0.00    +0.000 A 
ATOM     17  C   UNL     1       0.510  14.615  19.337  0.00  0.00    +0.000 A 
ENDBRANCH   9  11
BRANCH   1  18
ATOM     18  C   UNL     1      -0.556  11.195  19.630  0.00  0.00    +0.000 C 
BRANCH  18  19
ATOM     19  C   UNL     1       0.979  11.076  19.471  0.00  0.00    +0.000 C 
BRANCH  19  22
ATOM     20  O   UNL     1       2.421   8.447  17.388  0.00  0.00    +0.000 OA
ATOM     21  C   UNL     1       1.934   9.527  17.707  0.00  0.00    +0.000 C 
ATOM     22  N   UNL     1       1.402   9.796  18.935  0.00  0.00    +0.000 N 
BRANCH  22  23
ATOM     23  O   UNL     1       1.412   8.759  19.889  0.00  0.00    +0.000 OA
ATOM     24  H   UNL     1       2.338   8.442  19.838  0.00  0.00    +0.000 HD
ENDBRANCH  22  23
ENDBRANCH  19  22
ENDBRANCH  18  19
BRANCH  18  25
ATOM     25  C   UNL     1      -1.374  10.253  18.727  0.00  0.00    +0.000 C 
BRANCH  25  26
ATOM     26  C   UNL     1      -2.216  10.928  17.648  0.00  0.00    +0.000 C 
ATOM     27  C   UNL     1      -2.393  10.131  16.362  0.00  0.00    +0.000 C 
ATOM     28  C   UNL     1      -3.498  10.893  15.640  0.00  0.00    +0.000 C 
ATOM     29  C   UNL     1      -4.339  11.548  16.740  0.00  0.00    +0.000 C 
ATOM     30  C   UNL     1      -3.671  11.158  18.058  0.00  0.00    +0.000 C 
ENDBRANCH  25  26
ENDBRANCH  18  25
ENDBRANCH   1  18
TORSDOF 7
ENDMDL
MODEL 4
REMARK VINA RESULT:      -6.0      8.176     11.481
REMARK  Name = 
REMARK  7 active torsions:
REMARK  status: ('A' for Active; 'I' for Inactive)
REMARK    1  A    between atoms: N_3  and  O_4
REMARK    2  A    between atoms: N_3  and  C_5
REMARK    3  A    between atoms: C_5  and  C_6
REMARK    4  A    between atoms: C_6  and  C_7
REMARK    5  A    between atoms: C_6  and  C_13
REMARK    6  A    between atoms: C_7  and  C_8
REMARK    7  A    between atoms: C_21  and  C_23
REMARK                            x       y       z     vdW  Elec       q    Type
REMARK                         _______ _______ _______ _____ _____    ______ ____
ROOT
ATOM      1  C   UNL     1      -1.610  12.996  19.928  0.00  0.00    +0.000 C 
ATOM      2  O   UNL     1      -0.967  13.596  19.060  0.00  0.00    +0.000 OA
ATOM      3  N   UNL     1      -1.905  13.617  21.132  0.00  0.00    +0.000 N 
ATOM      4  C   UNL     1      -1.571  15.023  21.399  0.00  0.00    +0.000 C 
ATOM      5  C   UNL     1      -0.657  15.178  22.607  0.00  0.00    +0.000 C 
ATOM      6  C   UNL     1      -1.240  14.426  23.802  0.00  0.00    +0.000 C 
ATOM      7  C   UNL     1      -1.585  12.990  23.398  0.00  0.00    +0.000 C 
ATOM      8  N   UNL     1      -2.496  12.980  22.243  0.00  0.00    +0.000 N 
ATOM      9  C   UNL     1      -3.882  12.842  22.433  0.00  0.00    +0.000 C 
ATOM     10  O   UNL     1      -4.350  12.509  23.525  0.00  0.00    +0.000 OA
ENDROOT
BRANCH   9  11
ATOM     11  C   UNL     1      -4.851  13.007  21.303  0.00  0.00    +0.000 A 
ATOM     12  C   UNL     1      -4.990  14.294  20.757  0.00  0.00    +0.000 A 
ATOM     13  C   UNL     1      -5.924  14.539  19.744  0.00  0.00    +0.000 A 
ATOM     14  C   UNL     1      -6.721  13.501  19.280  0.00  0.00    +0.000 A 
ATOM     15  F   UNL     1      -7.629  13.735  18.325  0.00  0.00    +0.000 F 
ATOM     16  C   UNL     1      -6.581  12.219  19.786  0.00  0.00    +0.000 A 
ATOM     17  C   UNL     1      -5.630  11.969  20.776  0.00  0.00    +0.000 A 
ENDBRANCH   9  11
BRANCH   1  18
ATOM     18  C   UNL     1      -2.153  11.593  19.636  0.00  0.00    +0.000 C 
BRANCH  18  19
ATOM     19  C   UNL     1      -3.134  11.721  18.446  0.00  0.00    +0.000 C 
BRANCH  19  22
ATOM     20  O   UNL     1      -2.598   9.798  15.389  0.00  0.00    +0.000 OA
ATOM     21  C   UNL     1      -2.987  10.084  16.517  0.00  0.00    +0.000 C 
ATOM     22  N   UNL     1      -2.598  11.198  17.203  0.00  0.00    +0.000 N 
BRANCH  22  23
ATOM     23  O   UNL     1      -1.686  12.066  16.570  0.00  0.00    +0.000 OA
ATOM     24  H   UNL     1      -1.847  12.911  17.041  0.00  0.00    +0.000 HD
ENDBRANCH  22  23
ENDBRANCH  19  22
ENDBRANCH  18  19
BRANCH  18  25
ATOM     25  C   UNL     1      -1.098  10.481  19.487  0.00  0.00    +0.000 C 
BRANCH  25  26
ATOM     26  C   UNL     1      -0.165  10.283  20.678  0.00  0.00    +0.000 C 
ATOM     27  C   UNL     1      -0.839   9.837  21.970  0.00  0.00    +0.000 C 
ATOM     28  C   UNL     1       0.340   9.432  22.845  0.00  0.00    +0.000 C 
ATOM     29  C   UNL     1       1.439   8.978  21.879  0.00  0.00    +0.000 C 
ATOM     30  C   UNL     1       0.859   9.165  20.478  0.00  0.00    +0.000 C 
ENDBRANCH  25  26
ENDBRANCH  18  25
ENDBRANCH   1  18
TORSDOF 7
ENDMDL
MODEL 5
REMARK VINA RESULT:      -5.9      0.805      1.169
REMARK  Name = 
REMARK  7 active torsions:
REMARK  status: ('A' for Active; 'I' for Inactive)
REMARK    1  A    between atoms: N_3  and  O_4
REMARK    2  A    between atoms: N_3  and  C_5
REMARK    3  A    between atoms: C_5  and  C_6
REMARK    4  A    between atoms: C_6  and  C_7
REMARK    5  A    between atoms: C_6  and  C_13
REMARK    6  A    between atoms: C_7  and  C_8
REMARK    7  A    between atoms: C_21  and  C_23
REMARK                            x       y       z     vdW  Elec       q    Type
REMARK                         _______ _______ _______ _____ _____    ______ ____
ROOT
ATOM      1  C   UNL     1       5.636   4.548  18.695  0.00  0.00    +0.000 C 
ATOM      2  O   UNL     1       6.592   4.655  19.470  0.00  0.00    +0.000 OA
ATOM      3  N   UNL     1       4.583   3.698  18.999  0.00  0.00    +0.000 N 
ATOM      4  C   UNL     1       4.494   2.976  20.276  0.00  0.00    +0.000 C 
ATOM      5  C   UNL     1       4.438   1.467  20.080  0.00  0.00    +0.000 C 
ATOM      6  C   UNL     1       3.346   1.113  19.071  0.00  0.00    +0.000 C 
ATOM      7  C   UNL     1       3.515   1.950  17.801  0.00  0.00    +0.000 C 
ATOM      8  N   UNL     1       3.522   3.386  18.124  0.00  0.00    +0.000 N 
ATOM      9  C   UNL     1       2.347   4.147  17.998  0.00  0.00    +0.000 C 
ATOM     10  O   UNL     1       1.354   3.704  17.417  0.00  0.00    +0.000 OA
ENDROOT
BRANCH   9  11
ATOM     11  C   UNL     1       2.271   5.562  18.486  0.00  0.00    +0.000 A 
ATOM     12  C   UNL     1       2.039   5.758  19.858  0.00  0.00    +0.000 A 
ATOM     13  C   UNL     1       1.890   7.050  20.375  0.00  0.00    +0.000 A 
ATOM     14  C   UNL     1       1.967   8.144  19.522  0.00  0.00    +0.000 A 
ATOM     15  F   UNL     1       1.804   9.380  20.009  0.00  0.00    +0.000 F 
ATOM     16  C   UNL     1       2.221   7.973  18.171  0.00  0.00    +0.000 A 
ATOM     17  C   UNL     1       2.398   6.687  17.661  0.00  0.00    +0.000 A 
ENDBRANCH   9  11
BRANCH   1  18
ATOM     18  C   UNL     1       5.578   5.420  17.436  0.00  0.00    +0.000 C 
BRANCH  18  19
ATOM     19  C   UNL     1       6.990   6.017  17.229  0.00  0.00    +0.000 C 
BRANCH  19  22
ATOM     20  O   UNL     1       8.097   9.411  17.994  0.00  0.00    +0.000 OA
ATOM     21  C   UNL     1       8.058   8.185  17.994  0.00  0.00    +0.000 C 
ATOM     22  N   UNL     1       7.044   7.450  17.449  0.00  0.00    +0.000 N 
BRANCH  22  23
ATOM     23  O   UNL     1       5.976   8.154  16.858  0.00  0.00    +0.000 OA
ATOM     24  H   UNL     1       5.940   7.758  15.962  0.00  0.00    +0.000 HD
ENDBRANCH  22  23
ENDBRANCH  19  22
ENDBRANCH  18  19
BRANCH  18  25
ATOM     25  C   UNL     1       4.967   4.758  16.187  0.00  0.00    +0.000 C 
BRANCH  25  26
ATOM     26  C   UNL     1       5.724   4.976  14.880  0.00  0.00    +0.000 C 
ATOM     27  C   UNL     1       7.235   4.800  14.962  0.00  0.00    +0.000 C 
ATOM     28  C   UNL     1       7.653   4.765  13.497  0.00  0.00    +0.000 C 
ATOM     29  C   UNL     1       6.448   4.207  12.734  0.00  0.00    +0.000 C 
ATOM     30  C   UNL     1       5.369   3.965  13.788  0.00  0.00    +0.000 C 
ENDBRANCH  25  26
ENDBRANCH  18  25
ENDBRANCH   1  18
TORSDOF 7
ENDMDL
MODEL 6
REMARK VINA RESULT:      -5.9      6.723      9.851
REMARK  Name = 
REMARK  7 active torsions:
REMARK  status: ('A' for Active; 'I' for Inactive)
REMARK    1  A    between atoms: N_3  and  O_4
REMARK    2  A    between atoms: N_3  and  C_5
REMARK    3  A    between atoms: C_5  and  C_6
REMARK    4  A    between atoms: C_6  and  C_7
REMARK    5  A    between atoms: C_6  and  C_13
REMARK    6  A    between atoms: C_7  and  C_8
REMARK    7  A    between atoms: C_21  and  C_23
REMARK                            x       y       z     vdW  Elec       q    Type
REMARK                         _______ _______ _______ _____ _____    ______ ____
ROOT
ATOM      1  C   UNL     1      -0.858  10.763  21.002  0.00  0.00    +0.000 C 
ATOM      2  O   UNL     1      -0.397   9.837  21.676  0.00  0.00    +0.000 OA
ATOM      3  N   UNL     1      -1.484  11.834  21.623  0.00  0.00    +0.000 N 
ATOM      4  C   UNL     1      -1.540  11.977  23.085  0.00  0.00    +0.000 C 
ATOM      5  C   UNL     1      -2.971  12.037  23.601  0.00  0.00    +0.000 C 
ATOM      6  C   UNL     1      -3.760  13.093  22.829  0.00  0.00    +0.000 C 
ATOM      7  C   UNL     1      -3.598  12.869  21.323  0.00  0.00    +0.000 C 
ATOM      8  N   UNL     1      -2.174  12.864  20.950  0.00  0.00    +0.000 N 
ATOM      9  C   UNL     1      -1.568  14.027  20.446  0.00  0.00    +0.000 C 
ATOM     10  O   UNL     1      -2.239  15.001  20.097  0.00  0.00    +0.000 OA
ENDROOT
BRANCH   9  11
ATOM     11  C   UNL     1      -0.088  14.111  20.226  0.00  0.00    +0.000 A 
ATOM     12  C   UNL     1       0.356  14.314  18.909  0.00  0.00    +0.000 A 
ATOM     13  C   UNL     1       1.724  14.337  18.615  0.00  0.00    +0.000 A 
ATOM     14  C   UNL     1       2.647  14.152  19.636  0.00  0.00    +0.000 A 
ATOM     15  F   UNL     1       3.956  14.152  19.357  0.00  0.00    +0.000 F 
ATOM     16  C   UNL     1       2.231  13.976  20.946  0.00  0.00    +0.000 A 
ATOM     17  C   UNL     1       0.867  13.982  21.242  0.00  0.00    +0.000 A 
ENDBRANCH   9  11
BRANCH   1  18
ATOM     18  C   UNL     1      -0.661  10.768  19.482  0.00  0.00    +0.000 C 
BRANCH  18  19
ATOM     19  C   UNL     1       0.860  10.870  19.219  0.00  0.00    +0.000 C 
BRANCH  19  22
ATOM     20  O   UNL     1       2.728   8.192  17.585  0.00  0.00    +0.000 OA
ATOM     21  C   UNL     1       2.090   9.230  17.728  0.00  0.00    +0.000 C 
ATOM     22  N   UNL     1       1.472   9.597  18.889  0.00  0.00    +0.000 N 
BRANCH  22  23
ATOM     23  O   UNL     1       1.573   8.717  19.985  0.00  0.00    +0.000 OA
ATOM     24  H   UNL     1       2.426   8.986  20.386  0.00  0.00    +0.000 HD
ENDBRANCH  22  23
ENDBRANCH  19  22
ENDBRANCH  18  19
BRANCH  18  25
ATOM     25  C   UNL     1      -1.376   9.645  18.708  0.00  0.00    +0.000 C 
BRANCH  25  26
ATOM     26  C   UNL     1      -2.618  10.061  17.925  0.00  0.00    +0.000 C 
ATOM     27  C   UNL     1      -2.981  11.538  18.011  0.00  0.00    +0.000 C 
ATOM     28  C   UNL     1      -4.027  11.694  16.914  0.00  0.00    +0.000 C 
ATOM     29  C   UNL     1      -3.696  10.627  15.867  0.00  0.00    +0.000 C 
ATOM     30  C   UNL     1      -2.482   9.877  16.413  0.00  0.00    +0.000 C 
ENDBRANCH  25  26
ENDBRANCH  18  25
ENDBRANCH   1  18
TORSDOF 7
ENDMDL
MODEL 7
REMARK VINA RESULT:      -5.9      7.152     10.417
REMARK  Name = 
REMARK  7 active torsions:
REMARK  status: ('A' for Active; 'I' for Inactive)
REMARK    1  A    between atoms: N_3  and  O_4
REMARK    2  A    between atoms: N_3  and  C_5
REMARK    3  A    between atoms: C_5  and  C_6
REMARK    4  A    between atoms: C_6  and  C_7
REMARK    5  A    between atoms: C_6  and  C_13
REMARK    6  A    between atoms: C_7  and  C_8
REMARK    7  A    between atoms: C_21  and  C_23
REMARK                            x       y       z     vdW  Elec       q    Type
REMARK                         _______ _______ _______ _____ _____    ______ ____
ROOT
ATOM      1  C   UNL     1      -0.536  11.995  21.419  0.00  0.00    +0.000 C 
ATOM      2  O   UNL     1      -0.144  11.160  22.239  0.00  0.00    +0.000 OA
ATOM      3  N   UNL     1      -1.016  13.223  21.848  0.00  0.00    +0.000 N 
ATOM      4  C   UNL     1      -0.988  13.633  23.259  0.00  0.00    +0.000 C 
ATOM      5  C   UNL     1      -2.379  13.946  23.795  0.00  0.00    +0.000 C 
ATOM      6  C   UNL     1      -3.088  14.926  22.862  0.00  0.00    +0.000 C 
ATOM      7  C   UNL     1      -3.021  14.418  21.420  0.00  0.00    +0.000 C 
ATOM      8  N   UNL     1      -1.625  14.186  21.016  0.00  0.00    +0.000 N 
ATOM      9  C   UNL     1      -0.925  15.163  20.289  0.00  0.00    +0.000 C 
ATOM     10  O   UNL     1      -1.505  16.127  19.785  0.00  0.00    +0.000 OA
ENDROOT
BRANCH   9  11
ATOM     11  C   UNL     1       0.544  15.040  20.018  0.00  0.00    +0.000 A 
ATOM     12  C   UNL     1       0.937  14.858  18.681  0.00  0.00    +0.000 A 
ATOM     13  C   UNL     1       2.285  14.669  18.357  0.00  0.00    +0.000 A 
ATOM     14  C   UNL     1       3.238  14.655  19.367  0.00  0.00    +0.000 A 
ATOM     15  F   UNL     1       4.526  14.454  19.064  0.00  0.00    +0.000 F 
ATOM     16  C   UNL     1       2.874  14.858  20.688  0.00  0.00    +0.000 A 
ATOM     17  C   UNL     1       1.533  15.076  21.007  0.00  0.00    +0.000 A 
ENDBRANCH   9  11
BRANCH   1  18
ATOM     18  C   UNL     1      -0.412  11.703  19.919  0.00  0.00    +0.000 C 
BRANCH  18  19
ATOM     19  C   UNL     1       1.069  11.349  19.644  0.00  0.00    +0.000 C 
BRANCH  19  22
ATOM     20  O   UNL     1       1.964   8.307  17.834  0.00  0.00    +0.000 OA
ATOM     21  C   UNL     1       1.662   9.478  18.040  0.00  0.00    +0.000 C 
ATOM     22  N   UNL     1       1.263   9.966  19.251  0.00  0.00    +0.000 N 
BRANCH  22  23
ATOM     23  O   UNL     1       1.191   9.057  20.326  0.00  0.00    +0.000 OA
ATOM     24  H   UNL     1       1.442   9.620  21.088  0.00  0.00    +0.000 HD
ENDBRANCH  22  23
ENDBRANCH  19  22
ENDBRANCH  18  19
BRANCH  18  25
ATOM     25  C   UNL     1      -1.433  10.705  19.342  0.00  0.00    +0.000 C 
BRANCH  25  26
ATOM     26  C   UNL     1      -1.998  11.050  17.967  0.00  0.00    +0.000 C 
ATOM     27  C   UNL     1      -1.927   9.934  16.932  0.00  0.00    +0.000 C 
ATOM     28  C   UNL     1      -2.821  10.452  15.812  0.00  0.00    +0.000 C 
ATOM     29  C   UNL     1      -3.853  11.359  16.490  0.00  0.00    +0.000 C 
ATOM     30  C   UNL     1      -3.498  11.349  17.976  0.00  0.00    +0.000 C 
ENDBRANCH  25  26
ENDBRANCH  18  25
ENDBRANCH   1  18
TORSDOF 7
ENDMDL
MODEL 8
REMARK VINA RESULT:      -5.9      8.492     11.553
REMARK  Name = 
REMARK  7 active torsions:
REMARK  status: ('A' for Active; 'I' for Inactive)
REMARK    1  A    between atoms: N_3  and  O_4
REMARK    2  A    between atoms: N_3  and  C_5
REMARK    3  A    between atoms: C_5  and  C_6
REMARK    4  A    between atoms: C_6  and  C_7
REMARK    5  A    between atoms: C_6  and  C_13
REMARK    6  A    between atoms: C_7  and  C_8
REMARK    7  A    between atoms: C_21  and  C_23
REMARK                            x       y       z     vdW  Elec       q    Type
REMARK                         _______ _______ _______ _____ _____    ______ ____
ROOT
ATOM      1  C   UNL     1      -1.909  13.028  19.870  0.00  0.00    +0.000 C 
ATOM      2  O   UNL     1      -1.669  13.968  19.106  0.00  0.00    +0.000 OA
ATOM      3  N   UNL     1      -0.870  12.355  20.497  0.00  0.00    +0.000 N 
ATOM      4  C   UNL     1       0.532  12.779  20.375  0.00  0.00    +0.000 C 
ATOM      5  C   UNL     1       1.414  11.686  19.787  0.00  0.00    +0.000 C 
ATOM      6  C   UNL     1       1.208  10.381  20.554  0.00  0.00    +0.000 C 
ATOM      7  C   UNL     1      -0.286  10.061  20.651  0.00  0.00    +0.000 C 
ATOM      8  N   UNL     1      -1.018  11.181  21.264  0.00  0.00    +0.000 N 
ATOM      9  C   UNL     1      -1.325  11.163  22.635  0.00  0.00    +0.000 C 
ATOM     10  O   UNL     1      -1.195  10.138  23.308  0.00  0.00    +0.000 OA
ENDROOT
BRANCH   9  11
ATOM     11  C   UNL     1      -1.906  12.358  23.327  0.00  0.00    +0.000 A 
ATOM     12  C   UNL     1      -3.222  12.245  23.809  0.00  0.00    +0.000 A 
ATOM     13  C   UNL     1      -3.855  13.340  24.407  0.00  0.00    +0.000 A 
ATOM     14  C   UNL     1      -3.178  14.548  24.518  0.00  0.00    +0.000 A 
ATOM     15  F   UNL     1      -3.787  15.604  25.071  0.00  0.00    +0.000 F 
ATOM     16  C   UNL     1      -1.872  14.672  24.073  0.00  0.00    +0.000 A 
ATOM     17  C   UNL     1      -1.231  13.571  23.503  0.00  0.00    +0.000 A 
ENDBRANCH   9  11
BRANCH   1  18
ATOM     18  C   UNL     1      -3.362  12.659  20.189  0.00  0.00    +0.000 C 
BRANCH  18  19
ATOM     19  C   UNL     1      -4.060  13.947  20.689  0.00  0.00    +0.000 C 
BRANCH  19  22
ATOM     20  O   UNL     1      -7.525  13.311  21.646  0.00  0.00    +0.000 OA
ATOM     21  C   UNL     1      -6.303  13.212  21.612  0.00  0.00    +0.000 C 
ATOM     22  N   UNL     1      -5.507  13.846  20.702  0.00  0.00    +0.000 N 
BRANCH  22  23
ATOM     23  O   UNL     1      -6.140  14.660  19.740  0.00  0.00    +0.000 OA
ATOM     24  H   UNL     1      -6.491  13.997  19.110  0.00  0.00    +0.000 HD
ENDBRANCH  22  23
ENDBRANCH  19  22
ENDBRANCH  18  19
BRANCH  18  25
ATOM     25  C   UNL     1      -4.121  11.901  19.084  0.00  0.00    +0.000 C 
BRANCH  25  26
ATOM     26  C   UNL     1      -3.296  11.495  17.866  0.00  0.00    +0.000 C 
ATOM     27  C   UNL     1      -2.754  10.072  17.888  0.00  0.00    +0.000 C 
ATOM     28  C   UNL     1      -2.270   9.871  16.457  0.00  0.00    +0.000 C 
ATOM     29  C   UNL     1      -3.147  10.779  15.590  0.00  0.00    +0.000 C 
ATOM     30  C   UNL     1      -4.090  11.489  16.559  0.00  0.00    +0.000 C 
ENDBRANCH  25  26
ENDBRANCH  18  25
ENDBRANCH   1  18
TORSDOF 7
ENDMDL
MODEL 9
REMARK VINA RESULT:      -5.8      7.899     11.215
REMARK  Name = 
REMARK  7 active torsions:
REMARK  status: ('A' for Active; 'I' for Inactive)
REMARK    1  A    between atoms: N_3  and  O_4
REMARK    2  A    between atoms: N_3  and  C_5
REMARK    3  A    between atoms: C_5  and  C_6
REMARK    4  A    between atoms: C_6  and  C_7
REMARK    5  A    between atoms: C_6  and  C_13
REMARK    6  A    between atoms: C_7  and  C_8
REMARK    7  A    between atoms: C_21  and  C_23
REMARK                            x       y       z     vdW  Elec       q    Type
REMARK                         _______ _______ _______ _____ _____    ______ ____
ROOT
ATOM      1  C   UNL     1      -0.444  13.553  19.029  0.00  0.00    +0.000 C 
ATOM      2  O   UNL     1      -0.447  13.837  17.827  0.00  0.00    +0.000 OA
ATOM      3  N   UNL     1      -0.027  14.485  19.967  0.00  0.00    +0.000 N 
ATOM      4  C   UNL     1       0.327  15.865  19.604  0.00  0.00    +0.000 C 
ATOM      5  C   UNL     1       1.759  16.212  19.989  0.00  0.00    +0.000 C 
ATOM      6  C   UNL     1       2.005  15.856  21.455  0.00  0.00    +0.000 C 
ATOM      7  C   UNL     1       1.566  14.414  21.724  0.00  0.00    +0.000 C 
ATOM      8  N   UNL     1       0.159  14.221  21.339  0.00  0.00    +0.000 N 
ATOM      9  C   UNL     1      -0.858  14.296  22.306  0.00  0.00    +0.000 C 
ATOM     10  O   UNL     1      -0.598  14.304  23.511  0.00  0.00    +0.000 OA
ENDROOT
BRANCH   9  11
ATOM     11  C   UNL     1      -2.307  14.283  21.926  0.00  0.00    +0.000 A 
ATOM     12  C   UNL     1      -3.054  13.145  22.277  0.00  0.00    +0.000 A 
ATOM     13  C   UNL     1      -4.396  13.032  21.897  0.00  0.00    +0.000 A 
ATOM     14  C   UNL     1      -4.990  14.051  21.165  0.00  0.00    +0.000 A 
ATOM     15  F   UNL     1      -6.268  13.938  20.782  0.00  0.00    +0.000 F 
ATOM     16  C   UNL     1      -4.280  15.193  20.832  0.00  0.00    +0.000 A 
ATOM     17  C   UNL     1      -2.950  15.318  21.235  0.00  0.00    +0.000 A 
ENDBRANCH   9  11
BRANCH   1  18
ATOM     18  C   UNL     1      -0.984  12.194  19.489  0.00  0.00    +0.000 C 
BRANCH  18  19
ATOM     19  C   UNL     1      -2.397  12.033  18.878  0.00  0.00    +0.000 C 
BRANCH  19  22
ATOM     20  O   UNL     1      -3.064   9.390  16.450  0.00  0.00    +0.000 OA
ATOM     21  C   UNL     1      -2.939   9.956  17.531  0.00  0.00    +0.000 C 
ATOM     22  N   UNL     1      -2.416  11.208  17.686  0.00  0.00    +0.000 N 
BRANCH  22  23
ATOM     23  O   UNL     1      -1.987  11.882  16.524  0.00  0.00    +0.000 OA
ATOM     24  H   UNL     1      -2.636  12.614  16.461  0.00  0.00    +0.000 HD
ENDBRANCH  22  23
ENDBRANCH  19  22
ENDBRANCH  18  19
BRANCH  18  25
ATOM     25  C   UNL     1      -0.047  10.991  19.274  0.00  0.00    +0.000 C 
BRANCH  25  26
ATOM     26  C   UNL     1      -0.089   9.912  20.353  0.00  0.00    +0.000 C 
ATOM     27  C   UNL     1       1.175   9.073  20.488  0.00  0.00    +0.000 C 
ATOM     28  C   UNL     1       0.953   8.335  21.803  0.00  0.00    +0.000 C 
ATOM     29  C   UNL     1       0.054   9.246  22.645  0.00  0.00    +0.000 C 
ATOM     30  C   UNL     1      -0.230  10.467  21.771  0.00  0.00    +0.000 C 
ENDBRANCH  25  26
ENDBRANCH  18  25
ENDBRANCH   1  18
TORSDOF 7
ENDMDL
