MODEL 1
REMARK VINA RESULT:      -7.4      0.000      0.000
REMARK  Name = 
REMARK  16 active torsions:
REMARK  status: ('A' for Active; 'I' for Inactive)
REMARK    1  A    between atoms: N_1  and  C_2
REMARK    2  A    between atoms: C_2  and  C_3
REMARK    3  A    between atoms: C_3  and  C_4
REMARK    4  A    between atoms: C_4  and  C_5
REMARK    5  A    between atoms: C_5  and  C_6
REMARK    6  A    between atoms: C_6  and  O_7
REMARK    7  A    between atoms: C_6  and  C_21
REMARK    8  A    between atoms: O_7  and  P_8
REMARK    9  A    between atoms: P_8  and  O_10
REMARK   10  A    between atoms: P_8  and  C_11
REMARK   11  A    between atoms: C_11  and  C_12
REMARK   12  A    between atoms: C_12  and  C_13
REMARK   13  A    between atoms: C_13  and  C_14
REMARK   14  A    between atoms: C_14  and  C_15
REMARK   15  A    between atoms: C_28  and  C_29
REMARK   16  A    between atoms: C_29  and  O_31
REMARK                            x       y       z     vdW  Elec       q    Type
REMARK                         _______ _______ _______ _____ _____    ______ ____
ROOT
ATOM      1  C   UNL     1       5.382   4.362  17.887  0.00  0.00    +0.000 C 
ENDROOT
BRANCH   1   2
ATOM      2  C   UNL     1       4.561   3.927  19.146  0.00  0.00    +0.000 C 
ATOM      3  O   UNL     1       5.010   3.079  19.925  0.00  0.00    +0.000 OA
ATOM      4  N   UNL     1       3.299   4.442  19.372  0.00  0.00    +0.000 N 
ATOM      5  C   UNL     1       2.727   5.624  18.720  0.00  0.00    +0.000 C 
ATOM      6  C   UNL     1       1.838   6.272  19.780  0.00  0.00    +0.000 C 
ATOM      7  F   UNL     1       2.611   7.043  20.594  0.00  0.00    +0.000 F 
ATOM      8  C   UNL     1       1.319   5.102  20.585  0.00  0.00    +0.000 C 
ATOM      9  C   UNL     1       2.489   4.095  20.571  0.00  0.00    +0.000 C 
BRANCH   9  10
ATOM     10  C   UNL     1       1.908   2.661  20.609  0.00  0.00    +0.000 C 
ATOM     11  O   UNL     1       1.735   1.958  19.629  0.00  0.00    +0.000 OA
BRANCH  10  12
ATOM     12  O   UNL     1       1.483   2.272  21.836  0.00  0.00    +0.000 OA
ATOM     13  H   UNL     1       2.217   2.212  22.493  0.00  0.00    +0.000 HD
ENDBRANCH  10  12
ENDBRANCH   9  10
ENDBRANCH   1   2
BRANCH   1  14
ATOM     14  O   UNL     1       6.791   4.334  18.065  0.00  0.00    +0.000 OA
BRANCH  14  15
ATOM     15  P   UNL     1       7.552   5.854  18.388  0.00  0.00    +0.000 P 
ATOM     16  O   UNL     1       6.275   6.598  17.985  0.00  0.00    +0.000 OA
BRANCH  15  17
ATOM     17  O   UNL     1       7.355   5.556  19.986  0.00  0.00    +0.000 OA
ATOM     18  H   UNL     1       6.390   5.485  20.146  0.00  0.00    +0.000 HD
ENDBRANCH  15  17
BRANCH  15  19
ATOM     19  C   UNL     1       8.356   7.461  18.729  0.00  0.00    +0.000 C 
BRANCH  19  20
ATOM     20  C   UNL     1       8.060   8.441  17.595  0.00  0.00    +0.000 C 
BRANCH  20  21
ATOM     21  C   UNL     1       8.089   9.871  18.111  0.00  0.00    +0.000 C 
BRANCH  21  22
ATOM     22  C   UNL     1       9.365  10.184  18.891  0.00  0.00    +0.000 C 
BRANCH  22  23
ATOM     23  C   UNL     1       9.971  11.456  18.355  0.00  0.00    +0.000 A 
ATOM     24  C   UNL     1      11.356  11.557  18.172  0.00  0.00    +0.000 A 
ATOM     25  C   UNL     1      11.931  12.774  17.805  0.00  0.00    +0.000 A 
ATOM     26  C   UNL     1      11.126  13.897  17.618  0.00  0.00    +0.000 A 
ATOM     27  C   UNL     1       9.746  13.802  17.782  0.00  0.00    +0.000 A 
ATOM     28  C   UNL     1       9.169  12.586  18.147  0.00  0.00    +0.000 A 
ENDBRANCH  22  23
ENDBRANCH  21  22
ENDBRANCH  20  21
ENDBRANCH  19  20
ENDBRANCH  15  19
ENDBRANCH  14  15
ENDBRANCH   1  14
BRANCH   1  29
ATOM     29  C   UNL     1       5.073   3.498  16.645  0.00  0.00    +0.000 C 
BRANCH  29  30
ATOM     30  C   UNL     1       4.536   4.331  15.488  0.00  0.00    +0.000 C 
BRANCH  30  31
ATOM     31  C   UNL     1       5.545   5.348  14.944  0.00  0.00    +0.000 C 
BRANCH  31  32
ATOM     32  C   UNL     1       6.823   4.603  14.549  0.00  0.00    +0.000 C 
BRANCH  32  33
ATOM     33  N   UNL     1       7.886   5.506  14.137  0.00  0.00    +0.000 NA
ATOM     34  H   UNL     1       7.990   6.234  14.846  0.00  0.00    +0.000 HD
ATOM     35  H   UNL     1       7.617   5.990  13.281  0.00  0.00    +0.000 HD
ENDBRANCH  32  33
ENDBRANCH  31  32
ENDBRANCH  30  31
ENDBRANCH  29  30
ENDBRANCH   1  29
TORSDOF 16
ENDMDL
MODEL 2
REMARK VINA RESULT:      -7.2      1.138      1.429
REMARK  Name = 
REMARK  16 active torsions:
REMARK  status: ('A' for Active; 'I' for Inactive)
REMARK    1  A    between atoms: N_1  and  C_2
REMARK    2  A    between atoms: C_2  and  C_3
REMARK    3  A    between atoms: C_3  and  C_4
REMARK    4  A    between atoms: C_4  and  C_5
REMARK    5  A    between atoms: C_5  and  C_6
REMARK    6  A    between atoms: C_6  and  O_7
REMARK    7  A    between atoms: C_6  and  C_21
REMARK    8  A    between atoms: O_7  and  P_8
REMARK    9  A    between atoms: P_8  and  O_10
REMARK   10  A    between atoms: P_8  and  C_11
REMARK   11  A    between atoms: C_11  and  C_12
REMARK   12  A    between atoms: C_12  and  C_13
REMARK   13  A    between atoms: C_13  and  C_14
REMARK   14  A    between atoms: C_14  and  C_15
REMARK   15  A    between atoms: C_28  and  C_29
REMARK   16  A    between atoms: C_29  and  O_31
REMARK                            x       y       z     vdW  Elec       q    Type
REMARK                         _______ _______ _______ _____ _____    ______ ____
ROOT
ATOM      1  C   UNL     1       5.133   4.504  17.631  0.00  0.00    +0.000 C 
ENDROOT
BRANCH   1   2
ATOM      2  C   UNL     1       4.469   4.062  18.976  0.00  0.00    +0.000 C 
ATOM      3  O   UNL     1       5.016   3.223  19.700  0.00  0.00    +0.000 OA
ATOM      4  N   UNL     1       3.234   4.559  19.346  0.00  0.00    +0.000 N 
ATOM      5  C   UNL     1       2.573   5.730  18.761  0.00  0.00    +0.000 C 
ATOM      6  C   UNL     1       1.803   6.369  19.915  0.00  0.00    +0.000 C 
ATOM      7  F   UNL     1       2.652   7.154  20.633  0.00  0.00    +0.000 F 
ATOM      8  C   UNL     1       1.396   5.195  20.777  0.00  0.00    +0.000 C 
ATOM      9  C   UNL     1       2.572   4.204  20.630  0.00  0.00    +0.000 C 
BRANCH   9  10
ATOM     10  C   UNL     1       2.020   2.763  20.737  0.00  0.00    +0.000 C 
ATOM     11  O   UNL     1       1.626   2.249  21.770  0.00  0.00    +0.000 OA
BRANCH  10  12
ATOM     12  O   UNL     1       2.114   2.050  19.589  0.00  0.00    +0.000 OA
ATOM     13  H   UNL     1       2.791   2.412  18.969  0.00  0.00    +0.000 HD
ENDBRANCH  10  12
ENDBRANCH   9  10
ENDBRANCH   1   2
BRANCH   1  14
ATOM     14  O   UNL     1       6.553   4.469  17.636  0.00  0.00    +0.000 OA
BRANCH  14  15
ATOM     15  P   UNL     1       7.354   5.944  18.057  0.00  0.00    +0.000 P 
ATOM     16  O   UNL     1       7.809   6.131  16.607  0.00  0.00    +0.000 OA
BRANCH  15  17
ATOM     17  O   UNL     1       5.885   6.666  18.113  0.00  0.00    +0.000 OA
ATOM     18  H   UNL     1       5.864   7.325  17.386  0.00  0.00    +0.000 HD
ENDBRANCH  15  17
BRANCH  15  19
ATOM     19  C   UNL     1       8.200   7.503  18.503  0.00  0.00    +0.000 C 
BRANCH  19  20
ATOM     20  C   UNL     1       7.891   8.577  17.462  0.00  0.00    +0.000 C 
BRANCH  20  21
ATOM     21  C   UNL     1       8.209   9.957  18.015  0.00  0.00    +0.000 C 
BRANCH  21  22
ATOM     22  C   UNL     1       9.166   9.902  19.205  0.00  0.00    +0.000 C 
BRANCH  22  23
ATOM     23  C   UNL     1      10.084  11.097  19.156  0.00  0.00    +0.000 A 
ATOM     24  C   UNL     1      10.804  11.388  17.991  0.00  0.00    +0.000 A 
ATOM     25  C   UNL     1      11.752  12.411  17.986  0.00  0.00    +0.000 A 
ATOM     26  C   UNL     1      11.986  13.149  19.145  0.00  0.00    +0.000 A 
ATOM     27  C   UNL     1      11.264  12.877  20.305  0.00  0.00    +0.000 A 
ATOM     28  C   UNL     1      10.313  11.856  20.311  0.00  0.00    +0.000 A 
ENDBRANCH  22  23
ENDBRANCH  21  22
ENDBRANCH  20  21
ENDBRANCH  19  20
ENDBRANCH  15  19
ENDBRANCH  14  15
ENDBRANCH   1  14
BRANCH   1  29
ATOM     29  C   UNL     1       4.671   3.653  16.428  0.00  0.00    +0.000 C 
BRANCH  29  30
ATOM     30  C   UNL     1       5.766   3.500  15.380  0.00  0.00    +0.000 C 
BRANCH  30  31
ATOM     31  C   UNL     1       5.677   4.527  14.246  0.00  0.00    +0.000 C 
BRANCH  31  32
ATOM     32  C   UNL     1       6.535   4.037  13.077  0.00  0.00    +0.000 C 
BRANCH  32  33
ATOM     33  N   UNL     1       6.114   2.734  12.589  0.00  0.00    +0.000 NA
ATOM     34  H   UNL     1       5.216   2.500  13.014  0.00  0.00    +0.000 HD
ATOM     35  H   UNL     1       6.766   2.017  12.906  0.00  0.00    +0.000 HD
ENDBRANCH  32  33
ENDBRANCH  31  32
ENDBRANCH  30  31
ENDBRANCH  29  30
ENDBRANCH   1  29
TORSDOF 16
ENDMDL
MODEL 3
REMARK VINA RESULT:      -7.1      0.887      1.131
REMARK  Name = 
REMARK  16 active torsions:
REMARK  status: ('A' for Active; 'I' for Inactive)
REMARK    1  A    between atoms: N_1  and  C_2
REMARK    2  A    between atoms: C_2  and  C_3
REMARK    3  A    between atoms: C_3  and  C_4
REMARK    4  A    between atoms: C_4  and  C_5
REMARK    5  A    between atoms: C_5  and  C_6
REMARK    6  A    between atoms: C_6  and  O_7
REMARK    7  A    between atoms: C_6  and  C_21
REMARK    8  A    between atoms: O_7  and  P_8
REMARK    9  A    between atoms: P_8  and  O_10
REMARK   10  A    between atoms: P_8  and  C_11
REMARK   11  A    between atoms: C_11  and  C_12
REMARK   12  A    between atoms: C_12  and  C_13
REMARK   13  A    between atoms: C_13  and  C_14
REMARK   14  A    between atoms: C_14  and  C_15
REMARK   15  A    between atoms: C_28  and  C_29
REMARK   16  A    between atoms: C_29  and  O_31
REMARK                            x       y       z     vdW  Elec       q    Type
REMARK                         _______ _______ _______ _____ _____    ______ ____
ROOT
ATOM      1  C   UNL     1       5.292   4.192  18.097  0.00  0.00    +0.000 C 
ENDROOT
BRANCH   1   2
ATOM      2  C   UNL     1       4.484   4.065  19.430  0.00  0.00    +0.000 C 
ATOM      3  O   UNL     1       4.920   3.385  20.365  0.00  0.00    +0.000 OA
ATOM      4  N   UNL     1       3.245   4.663  19.559  0.00  0.00    +0.000 N 
ATOM      5  C   UNL     1       2.700   5.701  18.678  0.00  0.00    +0.000 C 
ATOM      6  C   UNL     1       1.856   6.591  19.589  0.00  0.00    +0.000 C 
ATOM      7  F   UNL     1       2.672   7.488  20.210  0.00  0.00    +0.000 F 
ATOM      8  C   UNL     1       1.314   5.639  20.630  0.00  0.00    +0.000 C 
ATOM      9  C   UNL     1       2.450   4.608  20.815  0.00  0.00    +0.000 C 
BRANCH   9  10
ATOM     10  C   UNL     1       1.821   3.238  21.164  0.00  0.00    +0.000 C 
ATOM     11  O   UNL     1       2.332   2.410  21.898  0.00  0.00    +0.000 OA
BRANCH  10  12
ATOM     12  O   UNL     1       0.680   2.967  20.486  0.00  0.00    +0.000 OA
ATOM     13  H   UNL     1      -0.112   2.924  21.072  0.00  0.00    +0.000 HD
ENDBRANCH  10  12
ENDBRANCH   9  10
ENDBRANCH   1   2
BRANCH   1  14
ATOM     14  O   UNL     1       6.703   4.181  18.261  0.00  0.00    +0.000 OA
BRANCH  14  15
ATOM     15  P   UNL     1       7.464   5.722  18.457  0.00  0.00    +0.000 P 
ATOM     16  O   UNL     1       6.157   6.433  18.090  0.00  0.00    +0.000 OA
BRANCH  15  17
ATOM     17  O   UNL     1       7.362   5.510  20.078  0.00  0.00    +0.000 OA
ATOM     18  H   UNL     1       7.045   4.593  20.225  0.00  0.00    +0.000 HD
ENDBRANCH  15  17
BRANCH  15  19
ATOM     19  C   UNL     1       8.268   7.353  18.665  0.00  0.00    +0.000 C 
BRANCH  19  20
ATOM     20  C   UNL     1       7.752   8.325  17.606  0.00  0.00    +0.000 C 
BRANCH  20  21
ATOM     21  C   UNL     1       8.329   9.712  17.836  0.00  0.00    +0.000 C 
BRANCH  21  22
ATOM     22  C   UNL     1       9.083   9.818  19.161  0.00  0.00    +0.000 C 
BRANCH  22  23
ATOM     23  C   UNL     1      10.069  10.956  19.078  0.00  0.00    +0.000 A 
ATOM     24  C   UNL     1      10.584  11.355  17.839  0.00  0.00    +0.000 A 
ATOM     25  C   UNL     1      11.594  12.315  17.773  0.00  0.00    +0.000 A 
ATOM     26  C   UNL     1      12.094  12.882  18.944  0.00  0.00    +0.000 A 
ATOM     27  C   UNL     1      11.576  12.503  20.180  0.00  0.00    +0.000 A 
ATOM     28  C   UNL     1      10.565  11.545  20.249  0.00  0.00    +0.000 A 
ENDBRANCH  22  23
ENDBRANCH  21  22
ENDBRANCH  20  21
ENDBRANCH  19  20
ENDBRANCH  15  19
ENDBRANCH  14  15
ENDBRANCH   1  14
BRANCH   1  29
ATOM     29  C   UNL     1       4.953   3.078  17.083  0.00  0.00    +0.000 C 
BRANCH  29  30
ATOM     30  C   UNL     1       4.850   3.610  15.659  0.00  0.00    +0.000 C 
BRANCH  30  31
ATOM     31  C   UNL     1       5.072   5.123  15.553  0.00  0.00    +0.000 C 
BRANCH  31  32
ATOM     32  C   UNL     1       6.245   5.377  14.602  0.00  0.00    +0.000 C 
BRANCH  32  33
ATOM     33  N   UNL     1       7.534   5.219  15.257  0.00  0.00    +0.000 NA
ATOM     34  H   UNL     1       7.376   5.041  16.251  0.00  0.00    +0.000 HD
ATOM     35  H   UNL     1       8.055   6.093  15.212  0.00  0.00    +0.000 HD
ENDBRANCH  32  33
ENDBRANCH  31  32
ENDBRANCH  30  31
ENDBRANCH  29  30
ENDBRANCH   1  29
TORSDOF 16
ENDMDL
MODEL 4
REMARK VINA RESULT:      -7.1      4.200      7.884
REMARK  Name = 
REMARK  16 active torsions:
REMARK  status: ('A' for Active; 'I' for Inactive)
REMARK    1  A    between atoms: N_1  and  C_2
REMARK    2  A    between atoms: C_2  and  C_3
REMARK    3  A    between atoms: C_3  and  C_4
REMARK    4  A    between atoms: C_4  and  C_5
REMARK    5  A    between atoms: C_5  and  C_6
REMARK    6  A    between atoms: C_6  and  O_7
REMARK    7  A    between atoms: C_6  and  C_21
REMARK    8  A    between atoms: O_7  and  P_8
REMARK    9  A    between atoms: P_8  and  O_10
REMARK   10  A    between atoms: P_8  and  C_11
REMARK   11  A    between atoms: C_11  and  C_12
REMARK   12  A    between atoms: C_12  and  C_13
REMARK   13  A    between atoms: C_13  and  C_14
REMARK   14  A    between atoms: C_14  and  C_15
REMARK   15  A    between atoms: C_28  and  C_29
REMARK   16  A    between atoms: C_29  and  O_31
REMARK                            x       y       z     vdW  Elec       q    Type
REMARK                         _______ _______ _______ _____ _____    ______ ____
ROOT
ATOM      1  C   UNL     1       5.246   4.534  16.053  0.00  0.00    +0.000 C 
ENDROOT
BRANCH   1   2
ATOM      2  C   UNL     1       6.479   4.545  15.090  0.00  0.00    +0.000 C 
ATOM      3  O   UNL     1       7.615   4.755  15.528  0.00  0.00    +0.000 OA
ATOM      4  N   UNL     1       6.307   4.379  13.729  0.00  0.00    +0.000 N 
ATOM      5  C   UNL     1       5.099   3.867  13.075  0.00  0.00    +0.000 C 
ATOM      6  C   UNL     1       5.603   3.090  11.861  0.00  0.00    +0.000 C 
ATOM      7  F   UNL     1       5.969   1.839  12.256  0.00  0.00    +0.000 F 
ATOM      8  C   UNL     1       6.847   3.838  11.438  0.00  0.00    +0.000 C 
ATOM      9  C   UNL     1       7.445   4.342  12.771  0.00  0.00    +0.000 C 
BRANCH   9  10
ATOM     10  C   UNL     1       8.162   5.689  12.512  0.00  0.00    +0.000 C 
ATOM     11  O   UNL     1       7.870   6.468  11.621  0.00  0.00    +0.000 OA
BRANCH  10  12
ATOM     12  O   UNL     1       9.246   5.895  13.298  0.00  0.00    +0.000 OA
ATOM     13  H   UNL     1       9.264   5.303  14.087  0.00  0.00    +0.000 HD
ENDBRANCH  10  12
ENDBRANCH   9  10
ENDBRANCH   1   2
BRANCH   1  14
ATOM     14  O   UNL     1       5.418   3.740  17.218  0.00  0.00    +0.000 OA
BRANCH  14  15
ATOM     15  P   UNL     1       4.013   3.512  18.202  0.00  0.00    +0.000 P 
ATOM     16  O   UNL     1       3.747   2.157  17.539  0.00  0.00    +0.000 OA
BRANCH  15  17
ATOM     17  O   UNL     1       5.009   3.156  19.453  0.00  0.00    +0.000 OA
ATOM     18  H   UNL     1       4.448   3.097  20.256  0.00  0.00    +0.000 HD
ENDBRANCH  15  17
BRANCH  15  19
ATOM     19  C   UNL     1       2.528   3.270  19.243  0.00  0.00    +0.000 C 
BRANCH  19  20
ATOM     20  C   UNL     1       2.658   4.082  20.530  0.00  0.00    +0.000 C 
BRANCH  20  21
ATOM     21  C   UNL     1       1.909   5.399  20.402  0.00  0.00    +0.000 C 
BRANCH  21  22
ATOM     22  C   UNL     1       2.749   6.486  19.733  0.00  0.00    +0.000 C 
BRANCH  22  23
ATOM     23  C   UNL     1       1.966   7.774  19.715  0.00  0.00    +0.000 A 
ATOM     24  C   UNL     1       1.236   8.173  20.841  0.00  0.00    +0.000 A 
ATOM     25  C   UNL     1       0.405   9.292  20.781  0.00  0.00    +0.000 A 
ATOM     26  C   UNL     1       0.298  10.018  19.596  0.00  0.00    +0.000 A 
ATOM     27  C   UNL     1       1.033   9.637  18.475  0.00  0.00    +0.000 A 
ATOM     28  C   UNL     1       1.866   8.520  18.533  0.00  0.00    +0.000 A 
ENDBRANCH  22  23
ENDBRANCH  21  22
ENDBRANCH  20  21
ENDBRANCH  19  20
ENDBRANCH  15  19
ENDBRANCH  14  15
ENDBRANCH   1  14
BRANCH   1  29
ATOM     29  C   UNL     1       4.849   5.947  16.531  0.00  0.00    +0.000 C 
BRANCH  29  30
ATOM     30  C   UNL     1       5.484   6.298  17.870  0.00  0.00    +0.000 C 
BRANCH  30  31
ATOM     31  C   UNL     1       6.889   6.899  17.744  0.00  0.00    +0.000 C 
BRANCH  31  32
ATOM     32  C   UNL     1       7.806   6.210  18.757  0.00  0.00    +0.000 C 
BRANCH  32  33
ATOM     33  N   UNL     1       7.759   4.761  18.650  0.00  0.00    +0.000 NA
ATOM     34  H   UNL     1       6.808   4.481  18.406  0.00  0.00    +0.000 HD
ATOM     35  H   UNL     1       7.947   4.340  19.559  0.00  0.00    +0.000 HD
ENDBRANCH  32  33
ENDBRANCH  31  32
ENDBRANCH  30  31
ENDBRANCH  29  30
ENDBRANCH   1  29
TORSDOF 16
ENDMDL
MODEL 5
REMARK VINA RESULT:      -7.1      4.606      6.451
REMARK  Name = 
REMARK  16 active torsions:
REMARK  status: ('A' for Active; 'I' for Inactive)
REMARK    1  A    between atoms: N_1  and  C_2
REMARK    2  A    between atoms: C_2  and  C_3
REMARK    3  A    between atoms: C_3  and  C_4
REMARK    4  A    between atoms: C_4  and  C_5
REMARK    5  A    between atoms: C_5  and  C_6
REMARK    6  A    between atoms: C_6  and  O_7
REMARK    7  A    between atoms: C_6  and  C_21
REMARK    8  A    between atoms: O_7  and  P_8
REMARK    9  A    between atoms: P_8  and  O_10
REMARK   10  A    between atoms: P_8  and  C_11
REMARK   11  A    between atoms: C_11  and  C_12
REMARK   12  A    between atoms: C_12  and  C_13
REMARK   13  A    between atoms: C_13  and  C_14
REMARK   14  A    between atoms: C_14  and  C_15
REMARK   15  A    between atoms: C_28  and  C_29
REMARK   16  A    between atoms: C_29  and  O_31
REMARK                            x       y       z     vdW  Elec       q    Type
REMARK                         _______ _______ _______ _____ _____    ______ ____
ROOT
ATOM      1  C   UNL     1       4.030   4.612  17.378  0.00  0.00    +0.000 C 
ENDROOT
BRANCH   1   2
ATOM      2  C   UNL     1       4.471   4.016  18.755  0.00  0.00    +0.000 C 
ATOM      3  O   UNL     1       5.637   4.132  19.145  0.00  0.00    +0.000 OA
ATOM      4  N   UNL     1       3.576   3.300  19.527  0.00  0.00    +0.000 N 
ATOM      5  C   UNL     1       2.119   3.284  19.357  0.00  0.00    +0.000 C 
ATOM      6  C   UNL     1       1.556   3.144  20.770  0.00  0.00    +0.000 C 
ATOM      7  F   UNL     1       1.517   4.373  21.355  0.00  0.00    +0.000 F 
ATOM      8  C   UNL     1       2.586   2.305  21.492  0.00  0.00    +0.000 C 
ATOM      9  C   UNL     1       3.927   2.743  20.861  0.00  0.00    +0.000 C 
BRANCH   9  10
ATOM     10  C   UNL     1       4.891   1.533  20.863  0.00  0.00    +0.000 C 
ATOM     11  O   UNL     1       5.526   1.155  21.833  0.00  0.00    +0.000 OA
BRANCH  10  12
ATOM     12  O   UNL     1       5.074   0.973  19.643  0.00  0.00    +0.000 OA
ATOM     13  H   UNL     1       4.367   1.217  19.000  0.00  0.00    +0.000 HD
ENDBRANCH  10  12
ENDBRANCH   9  10
ENDBRANCH   1   2
BRANCH   1  14
ATOM     14  O   UNL     1       4.331   5.991  17.211  0.00  0.00    +0.000 OA
BRANCH  14  15
ATOM     15  P   UNL     1       3.268   7.106  17.999  0.00  0.00    +0.000 P 
ATOM     16  O   UNL     1       3.265   8.006  16.759  0.00  0.00    +0.000 OA
BRANCH  15  17
ATOM     17  O   UNL     1       2.044   6.051  17.732  0.00  0.00    +0.000 OA
ATOM     18  H   UNL     1       2.448   5.229  17.382  0.00  0.00    +0.000 HD
ENDBRANCH  15  17
BRANCH  15  19
ATOM     19  C   UNL     1       2.145   8.286  18.832  0.00  0.00    +0.000 C 
BRANCH  19  20
ATOM     20  C   UNL     1       1.575   9.269  17.812  0.00  0.00    +0.000 C 
BRANCH  20  21
ATOM     21  C   UNL     1       0.332   9.945  18.367  0.00  0.00    +0.000 C 
BRANCH  21  22
ATOM     22  C   UNL     1       0.667  11.073  19.342  0.00  0.00    +0.000 C 
BRANCH  22  23
ATOM     23  C   UNL     1       0.020  10.784  20.672  0.00  0.00    +0.000 A 
ATOM     24  C   UNL     1      -0.488  11.829  21.453  0.00  0.00    +0.000 A 
ATOM     25  C   UNL     1      -0.965  11.579  22.740  0.00  0.00    +0.000 A 
ATOM     26  C   UNL     1      -0.937  10.283  23.254  0.00  0.00    +0.000 A 
ATOM     27  C   UNL     1      -0.448   9.234  22.478  0.00  0.00    +0.000 A 
ATOM     28  C   UNL     1       0.027   9.482  21.190  0.00  0.00    +0.000 A 
ENDBRANCH  22  23
ENDBRANCH  21  22
ENDBRANCH  20  21
ENDBRANCH  19  20
ENDBRANCH  15  19
ENDBRANCH  14  15
ENDBRANCH   1  14
BRANCH   1  29
ATOM     29  C   UNL     1       4.658   3.872  16.177  0.00  0.00    +0.000 C 
BRANCH  29  30
ATOM     30  C   UNL     1       5.134   4.834  15.096  0.00  0.00    +0.000 C 
BRANCH  30  31
ATOM     31  C   UNL     1       6.630   4.714  14.783  0.00  0.00    +0.000 C 
BRANCH  31  32
ATOM     32  C   UNL     1       7.414   4.871  16.089  0.00  0.00    +0.000 C 
BRANCH  32  33
ATOM     33  N   UNL     1       7.419   6.244  16.570  0.00  0.00    +0.000 NA
ATOM     34  H   UNL     1       8.336   6.652  16.385  0.00  0.00    +0.000 HD
ATOM     35  H   UNL     1       7.310   6.256  17.583  0.00  0.00    +0.000 HD
ENDBRANCH  32  33
ENDBRANCH  31  32
ENDBRANCH  30  31
ENDBRANCH  29  30
ENDBRANCH   1  29
TORSDOF 16
ENDMDL
MODEL 6
REMARK VINA RESULT:      -7.0      1.941      2.631
REMARK  Name = 
REMARK  16 active torsions:
REMARK  status: ('A' for Active; 'I' for Inactive)
REMARK    1  A    between atoms: N_1  and  C_2
REMARK    2  A    between atoms: C_2  and  C_3
REMARK    3  A    between atoms: C_3  and  C_4
REMARK    4  A    between atoms: C_4  and  C_5
REMARK    5  A    between atoms: C_5  and  C_6
REMARK    6  A    between atoms: C_6  and  O_7
REMARK    7  A    between atoms: C_6  and  C_21
REMARK    8  A    between atoms: O_7  and  P_8
REMARK    9  A    between atoms: P_8  and  O_10
REMARK   10  A    between atoms: P_8  and  C_11
REMARK   11  A    between atoms: C_11  and  C_12
REMARK   12  A    between atoms: C_12  and  C_13
REMARK   13  A    between atoms: C_13  and  C_14
REMARK   14  A    between atoms: C_14  and  C_15
REMARK   15  A    between atoms: C_28  and  C_29
REMARK   16  A    between atoms: C_29  and  O_31
REMARK                            x       y       z     vdW  Elec       q    Type
REMARK                         _______ _______ _______ _____ _____    ______ ____
ROOT
ATOM      1  C   UNL     1       6.349   5.250  16.777  0.00  0.00    +0.000 C 
ENDROOT
BRANCH   1   2
ATOM      2  C   UNL     1       5.815   4.584  18.088  0.00  0.00    +0.000 C 
ATOM      3  O   UNL     1       6.578   4.362  19.034  0.00  0.00    +0.000 OA
ATOM      4  N   UNL     1       4.496   4.184  18.183  0.00  0.00    +0.000 N 
ATOM      5  C   UNL     1       3.410   4.595  17.288  0.00  0.00    +0.000 C 
ATOM      6  C   UNL     1       2.168   4.662  18.176  0.00  0.00    +0.000 C 
ATOM      7  F   UNL     1       2.149   5.862  18.819  0.00  0.00    +0.000 F 
ATOM      8  C   UNL     1       2.394   3.575  19.202  0.00  0.00    +0.000 C 
ATOM      9  C   UNL     1       3.924   3.581  19.417  0.00  0.00    +0.000 C 
BRANCH   9  10
ATOM     10  C   UNL     1       4.382   2.141  19.749  0.00  0.00    +0.000 C 
ATOM     11  O   UNL     1       5.021   1.830  20.738  0.00  0.00    +0.000 OA
BRANCH  10  12
ATOM     12  O   UNL     1       4.112   1.239  18.774  0.00  0.00    +0.000 OA
ATOM     13  H   UNL     1       4.500   0.351  18.957  0.00  0.00    +0.000 HD
ENDBRANCH  10  12
ENDBRANCH   9  10
ENDBRANCH   1   2
BRANCH   1  14
ATOM     14  O   UNL     1       7.635   5.841  16.899  0.00  0.00    +0.000 OA
BRANCH  14  15
ATOM     15  P   UNL     1       7.670   7.513  17.346  0.00  0.00    +0.000 P 
ATOM     16  O   UNL     1       6.141   7.537  17.441  0.00  0.00    +0.000 OA
BRANCH  15  17
ATOM     17  O   UNL     1       8.157   7.051  18.840  0.00  0.00    +0.000 OA
ATOM     18  H   UNL     1       9.107   7.282  18.914  0.00  0.00    +0.000 HD
ENDBRANCH  15  17
BRANCH  15  19
ATOM     19  C   UNL     1       7.706   9.280  17.819  0.00  0.00    +0.000 C 
BRANCH  19  20
ATOM     20  C   UNL     1       8.910   9.552  18.718  0.00  0.00    +0.000 C 
BRANCH  20  21
ATOM     21  C   UNL     1       9.745  10.690  18.153  0.00  0.00    +0.000 C 
BRANCH  21  22
ATOM     22  C   UNL     1       8.928  11.964  17.941  0.00  0.00    +0.000 C 
BRANCH  22  23
ATOM     23  C   UNL     1       9.214  12.926  19.065  0.00  0.00    +0.000 A 
ATOM     24  C   UNL     1       8.297  13.935  19.382  0.00  0.00    +0.000 A 
ATOM     25  C   UNL     1       8.618  14.907  20.329  0.00  0.00    +0.000 A 
ATOM     26  C   UNL     1       9.858  14.877  20.966  0.00  0.00    +0.000 A 
ATOM     27  C   UNL     1      10.771  13.867  20.668  0.00  0.00    +0.000 A 
ATOM     28  C   UNL     1      10.451  12.893  19.723  0.00  0.00    +0.000 A 
ENDBRANCH  22  23
ENDBRANCH  21  22
ENDBRANCH  20  21
ENDBRANCH  19  20
ENDBRANCH  15  19
ENDBRANCH  14  15
ENDBRANCH   1  14
BRANCH   1  29
ATOM     29  C   UNL     1       6.425   4.262  15.593  0.00  0.00    +0.000 C 
BRANCH  29  30
ATOM     30  C   UNL     1       6.456   4.979  14.249  0.00  0.00    +0.000 C 
BRANCH  30  31
ATOM     31  C   UNL     1       6.851   4.072  13.078  0.00  0.00    +0.000 C 
BRANCH  31  32
ATOM     32  C   UNL     1       5.600   3.338  12.588  0.00  0.00    +0.000 C 
BRANCH  32  33
ATOM     33  N   UNL     1       5.922   2.132  11.840  0.00  0.00    +0.000 NA
ATOM     34  H   UNL     1       5.067   1.590  11.709  0.00  0.00    +0.000 HD
ATOM     35  H   UNL     1       6.544   1.540  12.388  0.00  0.00    +0.000 HD
ENDBRANCH  32  33
ENDBRANCH  31  32
ENDBRANCH  30  31
ENDBRANCH  29  30
ENDBRANCH   1  29
TORSDOF 16
ENDMDL
MODEL 7
REMARK VINA RESULT:      -7.0      2.117      2.537
REMARK  Name = 
REMARK  16 active torsions:
REMARK  status: ('A' for Active; 'I' for Inactive)
REMARK    1  A    between atoms: N_1  and  C_2
REMARK    2  A    between atoms: C_2  and  C_3
REMARK    3  A    between atoms: C_3  and  C_4
REMARK    4  A    between atoms: C_4  and  C_5
REMARK    5  A    between atoms: C_5  and  C_6
REMARK    6  A    between atoms: C_6  and  O_7
REMARK    7  A    between atoms: C_6  and  C_21
REMARK    8  A    between atoms: O_7  and  P_8
REMARK    9  A    between atoms: P_8  and  O_10
REMARK   10  A    between atoms: P_8  and  C_11
REMARK   11  A    between atoms: C_11  and  C_12
REMARK   12  A    between atoms: C_12  and  C_13
REMARK   13  A    between atoms: C_13  and  C_14
REMARK   14  A    between atoms: C_14  and  C_15
REMARK   15  A    between atoms: C_28  and  C_29
REMARK   16  A    between atoms: C_29  and  O_31
REMARK                            x       y       z     vdW  Elec       q    Type
REMARK                         _______ _______ _______ _____ _____    ______ ____
ROOT
ATOM      1  C   UNL     1       5.354   5.653  17.732  0.00  0.00    +0.000 C 
ENDROOT
BRANCH   1   2
ATOM      2  C   UNL     1       4.766   4.451  18.543  0.00  0.00    +0.000 C 
ATOM      3  O   UNL     1       5.483   3.496  18.857  0.00  0.00    +0.000 OA
ATOM      4  N   UNL     1       3.423   4.416  18.868  0.00  0.00    +0.000 N 
ATOM      5  C   UNL     1       2.498   5.552  18.813  0.00  0.00    +0.000 C 
ATOM      6  C   UNL     1       1.520   5.325  19.964  0.00  0.00    +0.000 C 
ATOM      7  F   UNL     1       2.081   5.783  21.118  0.00  0.00    +0.000 F 
ATOM      8  C   UNL     1       1.407   3.820  20.055  0.00  0.00    +0.000 C 
ATOM      9  C   UNL     1       2.816   3.319  19.669  0.00  0.00    +0.000 C 
BRANCH   9  10
ATOM     10  C   UNL     1       2.677   1.952  18.959  0.00  0.00    +0.000 C 
ATOM     11  O   UNL     1       3.615   1.265  18.591  0.00  0.00    +0.000 OA
BRANCH  10  12
ATOM     12  O   UNL     1       1.399   1.613  18.663  0.00  0.00    +0.000 OA
ATOM     13  H   UNL     1       0.737   2.118  19.191  0.00  0.00    +0.000 HD
ENDBRANCH  10  12
ENDBRANCH   9  10
ENDBRANCH   1   2
BRANCH   1  14
ATOM     14  O   UNL     1       6.750   5.852  17.905  0.00  0.00    +0.000 OA
BRANCH  14  15
ATOM     15  P   UNL     1       7.309   7.486  17.801  0.00  0.00    +0.000 P 
ATOM     16  O   UNL     1       8.384   7.203  18.854  0.00  0.00    +0.000 OA
BRANCH  15  17
ATOM     17  O   UNL     1       8.026   7.097  16.381  0.00  0.00    +0.000 OA
ATOM     18  H   UNL     1       8.019   7.907  15.827  0.00  0.00    +0.000 HD
ENDBRANCH  15  17
BRANCH  15  19
ATOM     19  C   UNL     1       7.900   9.214  17.691  0.00  0.00    +0.000 C 
BRANCH  19  20
ATOM     20  C   UNL     1       8.902   9.492  18.810  0.00  0.00    +0.000 C 
BRANCH  20  21
ATOM     21  C   UNL     1       9.423  10.916  18.711  0.00  0.00    +0.000 C 
BRANCH  21  22
ATOM     22  C   UNL     1      10.595  11.176  19.657  0.00  0.00    +0.000 C 
BRANCH  22  23
ATOM     23  C   UNL     1      10.199  12.239  20.651  0.00  0.00    +0.000 A 
ATOM     24  C   UNL     1       9.200  11.983  21.598  0.00  0.00    +0.000 A 
ATOM     25  C   UNL     1       8.739  13.005  22.429  0.00  0.00    +0.000 A 
ATOM     26  C   UNL     1       9.274  14.288  22.318  0.00  0.00    +0.000 A 
ATOM     27  C   UNL     1      10.280  14.547  21.389  0.00  0.00    +0.000 A 
ATOM     28  C   UNL     1      10.743  13.526  20.559  0.00  0.00    +0.000 A 
ENDBRANCH  22  23
ENDBRANCH  21  22
ENDBRANCH  20  21
ENDBRANCH  19  20
ENDBRANCH  15  19
ENDBRANCH  14  15
ENDBRANCH   1  14
BRANCH   1  29
ATOM     29  C   UNL     1       5.107   5.527  16.213  0.00  0.00    +0.000 C 
BRANCH  29  30
ATOM     30  C   UNL     1       6.010   4.481  15.571  0.00  0.00    +0.000 C 
BRANCH  30  31
ATOM     31  C   UNL     1       5.386   3.799  14.348  0.00  0.00    +0.000 C 
BRANCH  31  32
ATOM     32  C   UNL     1       6.381   3.877  13.187  0.00  0.00    +0.000 C 
BRANCH  32  33
ATOM     33  N   UNL     1       6.193   2.803  12.224  0.00  0.00    +0.000 NA
ATOM     34  H   UNL     1       5.192   2.623  12.126  0.00  0.00    +0.000 HD
ATOM     35  H   UNL     1       6.595   1.940  12.585  0.00  0.00    +0.000 HD
ENDBRANCH  32  33
ENDBRANCH  31  32
ENDBRANCH  30  31
ENDBRANCH  29  30
ENDBRANCH   1  29
TORSDOF 16
ENDMDL
MODEL 8
REMARK VINA RESULT:      -7.0      3.902      7.918
REMARK  Name = 
REMARK  16 active torsions:
REMARK  status: ('A' for Active; 'I' for Inactive)
REMARK    1  A    between atoms: N_1  and  C_2
REMARK    2  A    between atoms: C_2  and  C_3
REMARK    3  A    between atoms: C_3  and  C_4
REMARK    4  A    between atoms: C_4  and  C_5
REMARK    5  A    between atoms: C_5  and  C_6
REMARK    6  A    between atoms: C_6  and  O_7
REMARK    7  A    between atoms: C_6  and  C_21
REMARK    8  A    between atoms: O_7  and  P_8
REMARK    9  A    between atoms: P_8  and  O_10
REMARK   10  A    between atoms: P_8  and  C_11
REMARK   11  A    between atoms: C_11  and  C_12
REMARK   12  A    between atoms: C_12  and  C_13
REMARK   13  A    between atoms: C_13  and  C_14
REMARK   14  A    between atoms: C_14  and  C_15
REMARK   15  A    between atoms: C_28  and  C_29
REMARK   16  A    between atoms: C_29  and  O_31
REMARK                            x       y       z     vdW  Elec       q    Type
REMARK                         _______ _______ _______ _____ _____    ______ ____
ROOT
ATOM      1  C   UNL     1       4.211   3.988  19.299  0.00  0.00    +0.000 C 
ENDROOT
BRANCH   1   2
ATOM      2  C   UNL     1       5.602   4.575  18.888  0.00  0.00    +0.000 C 
ATOM      3  O   UNL     1       6.490   4.735  19.732  0.00  0.00    +0.000 OA
ATOM      4  N   UNL     1       5.836   4.977  17.586  0.00  0.00    +0.000 N 
ATOM      5  C   UNL     1       5.015   4.629  16.422  0.00  0.00    +0.000 C 
ATOM      6  C   UNL     1       6.002   4.514  15.261  0.00  0.00    +0.000 C 
ATOM      7  F   UNL     1       6.570   3.277  15.284  0.00  0.00    +0.000 F 
ATOM      8  C   UNL     1       7.069   5.535  15.587  0.00  0.00    +0.000 C 
ATOM      9  C   UNL     1       7.149   5.506  17.129  0.00  0.00    +0.000 C 
BRANCH   9  10
ATOM     10  C   UNL     1       7.527   6.920  17.631  0.00  0.00    +0.000 C 
ATOM     11  O   UNL     1       7.344   7.948  17.002  0.00  0.00    +0.000 OA
BRANCH  10  12
ATOM     12  O   UNL     1       8.200   6.926  18.806  0.00  0.00    +0.000 OA
ATOM     13  H   UNL     1       7.685   7.340  19.539  0.00  0.00    +0.000 HD
ENDBRANCH  10  12
ENDBRANCH   9  10
ENDBRANCH   1   2
BRANCH   1  14
ATOM     14  O   UNL     1       3.289   4.950  19.792  0.00  0.00    +0.000 OA
BRANCH  14  15
ATOM     15  P   UNL     1       3.189   6.435  18.909  0.00  0.00    +0.000 P 
ATOM     16  O   UNL     1       2.000   5.898  18.107  0.00  0.00    +0.000 OA
BRANCH  15  17
ATOM     17  O   UNL     1       2.505   7.116  20.232  0.00  0.00    +0.000 OA
ATOM     18  H   UNL     1       2.075   7.946  19.935  0.00  0.00    +0.000 HD
ENDBRANCH  15  17
BRANCH  15  19
ATOM     19  C   UNL     1       3.082   8.006  17.976  0.00  0.00    +0.000 C 
BRANCH  19  20
ATOM     20  C   UNL     1       1.619   8.357  17.717  0.00  0.00    +0.000 C 
BRANCH  20  21
ATOM     21  C   UNL     1       1.366   9.826  18.019  0.00  0.00    +0.000 C 
BRANCH  21  22
ATOM     22  C   UNL     1       0.433  10.025  19.212  0.00  0.00    +0.000 C 
BRANCH  22  23
ATOM     23  C   UNL     1      -0.932  10.424  18.709  0.00  0.00    +0.000 A 
ATOM     24  C   UNL     1      -1.423   9.898  17.509  0.00  0.00    +0.000 A 
ATOM     25  C   UNL     1      -2.624  10.367  16.975  0.00  0.00    +0.000 A 
ATOM     26  C   UNL     1      -3.340  11.362  17.638  0.00  0.00    +0.000 A 
ATOM     27  C   UNL     1      -2.866  11.880  18.841  0.00  0.00    +0.000 A 
ATOM     28  C   UNL     1      -1.667  11.411  19.378  0.00  0.00    +0.000 A 
ENDBRANCH  22  23
ENDBRANCH  21  22
ENDBRANCH  20  21
ENDBRANCH  19  20
ENDBRANCH  15  19
ENDBRANCH  14  15
ENDBRANCH   1  14
BRANCH   1  29
ATOM     29  C   UNL     1       3.508   3.250  18.140  0.00  0.00    +0.000 C 
BRANCH  29  30
ATOM     30  C   UNL     1       2.747   2.021  18.621  0.00  0.00    +0.000 C 
BRANCH  30  31
ATOM     31  C   UNL     1       1.245   2.263  18.807  0.00  0.00    +0.000 C 
BRANCH  31  32
ATOM     32  C   UNL     1       0.993   2.664  20.263  0.00  0.00    +0.000 C 
BRANCH  32  33
ATOM     33  N   UNL     1       0.616   4.062  20.395  0.00  0.00    +0.000 NA
ATOM     34  H   UNL     1      -0.384   4.114  20.594  0.00  0.00    +0.000 HD
ATOM     35  H   UNL     1       0.747   4.542  19.506  0.00  0.00    +0.000 HD
ENDBRANCH  32  33
ENDBRANCH  31  32
ENDBRANCH  30  31
ENDBRANCH  29  30
ENDBRANCH   1  29
TORSDOF 16
ENDMDL
MODEL 9
REMARK VINA RESULT:      -6.9      2.549      3.777
REMARK  Name = 
REMARK  16 active torsions:
REMARK  status: ('A' for Active; 'I' for Inactive)
REMARK    1  A    between atoms: N_1  and  C_2
REMARK    2  A    between atoms: C_2  and  C_3
REMARK    3  A    between atoms: C_3  and  C_4
REMARK    4  A    between atoms: C_4  and  C_5
REMARK    5  A    between atoms: C_5  and  C_6
REMARK    6  A    between atoms: C_6  and  O_7
REMARK    7  A    between atoms: C_6  and  C_21
REMARK    8  A    between atoms: O_7  and  P_8
REMARK    9  A    between atoms: P_8  and  O_10
REMARK   10  A    between atoms: P_8  and  C_11
REMARK   11  A    between atoms: C_11  and  C_12
REMARK   12  A    between atoms: C_12  and  C_13
REMARK   13  A    between atoms: C_13  and  C_14
REMARK   14  A    between atoms: C_14  and  C_15
REMARK   15  A    between atoms: C_28  and  C_29
REMARK   16  A    between atoms: C_29  and  O_31
REMARK                            x       y       z     vdW  Elec       q    Type
REMARK                         _______ _______ _______ _____ _____    ______ ____
ROOT
ATOM      1  C   UNL     1       3.608   6.312  18.691  0.00  0.00    +0.000 C 
ENDROOT
BRANCH   1   2
ATOM      2  C   UNL     1       2.802   5.212  19.459  0.00  0.00    +0.000 C 
ATOM      3  O   UNL     1       1.956   5.529  20.302  0.00  0.00    +0.000 OA
ATOM      4  N   UNL     1       3.066   3.873  19.246  0.00  0.00    +0.000 N 
ATOM      5  C   UNL     1       3.827   3.318  18.122  0.00  0.00    +0.000 C 
ATOM      6  C   UNL     1       3.171   1.970  17.826  0.00  0.00    +0.000 C 
ATOM      7  F   UNL     1       2.078   2.173  17.040  0.00  0.00    +0.000 F 
ATOM      8  C   UNL     1       2.702   1.487  19.179  0.00  0.00    +0.000 C 
ATOM      9  C   UNL     1       2.306   2.785  19.918  0.00  0.00    +0.000 C 
BRANCH   9  10
ATOM     10  C   UNL     1       2.578   2.595  21.429  0.00  0.00    +0.000 C 
ATOM     11  O   UNL     1       1.843   2.987  22.319  0.00  0.00    +0.000 OA
BRANCH  10  12
ATOM     12  O   UNL     1       3.785   2.046  21.707  0.00  0.00    +0.000 OA
ATOM     13  H   UNL     1       4.432   2.153  20.970  0.00  0.00    +0.000 HD
ENDBRANCH  10  12
ENDBRANCH   9  10
ENDBRANCH   1   2
BRANCH   1  14
ATOM     14  O   UNL     1       4.605   5.805  17.815  0.00  0.00    +0.000 OA
BRANCH  14  15
ATOM     15  P   UNL     1       6.215   6.385  18.073  0.00  0.00    +0.000 P 
ATOM     16  O   UNL     1       6.782   4.991  17.783  0.00  0.00    +0.000 OA
BRANCH  15  17
ATOM     17  O   UNL     1       6.139   7.101  16.602  0.00  0.00    +0.000 OA
ATOM     18  H   UNL     1       6.109   8.069  16.758  0.00  0.00    +0.000 HD
ENDBRANCH  15  17
BRANCH  15  19
ATOM     19  C   UNL     1       7.918   6.997  18.345  0.00  0.00    +0.000 C 
BRANCH  19  20
ATOM     20  C   UNL     1       8.115   8.324  17.614  0.00  0.00    +0.000 C 
BRANCH  20  21
ATOM     21  C   UNL     1       8.695   9.366  18.557  0.00  0.00    +0.000 C 
BRANCH  21  22
ATOM     22  C   UNL     1       8.677  10.771  17.956  0.00  0.00    +0.000 C 
BRANCH  22  23
ATOM     23  C   UNL     1       9.890  11.527  18.433  0.00  0.00    +0.000 A 
ATOM     24  C   UNL     1      10.617  12.329  17.545  0.00  0.00    +0.000 A 
ATOM     25  C   UNL     1      11.813  12.922  17.948  0.00  0.00    +0.000 A 
ATOM     26  C   UNL     1      12.291  12.715  19.242  0.00  0.00    +0.000 A 
ATOM     27  C   UNL     1      11.567  11.931  20.137  0.00  0.00    +0.000 A 
ATOM     28  C   UNL     1      10.369  11.340  19.736  0.00  0.00    +0.000 A 
ENDBRANCH  22  23
ENDBRANCH  21  22
ENDBRANCH  20  21
ENDBRANCH  19  20
ENDBRANCH  15  19
ENDBRANCH  14  15
ENDBRANCH   1  14
BRANCH   1  29
ATOM     29  C   UNL     1       2.703   7.237  17.848  0.00  0.00    +0.000 C 
BRANCH  29  30
ATOM     30  C   UNL     1       2.223   8.445  18.641  0.00  0.00    +0.000 C 
BRANCH  30  31
ATOM     31  C   UNL     1       1.629   9.556  17.766  0.00  0.00    +0.000 C 
BRANCH  31  32
ATOM     32  C   UNL     1       1.832  10.896  18.477  0.00  0.00    +0.000 C 
BRANCH  32  33
ATOM     33  N   UNL     1       2.422  11.901  17.606  0.00  0.00    +0.000 NA
ATOM     34  H   UNL     1       1.970  12.798  17.790  0.00  0.00    +0.000 HD
ATOM     35  H   UNL     1       2.216  11.680  16.633  0.00  0.00    +0.000 HD
ENDBRANCH  32  33
ENDBRANCH  31  32
ENDBRANCH  30  31
ENDBRANCH  29  30
ENDBRANCH   1  29
TORSDOF 16
ENDMDL
