MODEL 1
REMARK VINA RESULT:      -7.5      0.000      0.000
REMARK  Name = 
REMARK  3 active torsions:
REMARK  status: ('A' for Active; 'I' for Inactive)
REMARK    1  A    between atoms: C_2  and  C_11
REMARK    2  A    between atoms: N_3  and  C_4
REMARK    3  A    between atoms: N_15  and  C_16
REMARK                            x       y       z     vdW  Elec       q    Type
REMARK                         _______ _______ _______ _____ _____    ______ ____
ROOT
ATOM      1  C   UNL     1       6.814   6.597  16.744  0.00  0.00    +0.000 C 
ATOM      2  C   UNL     1       7.588   6.332  18.033  0.00  0.00    +0.000 C 
ATOM      3  C   UNL     1       6.589   5.614  18.912  0.00  0.00    +0.000 C 
ATOM      4  O   UNL     1       6.879   5.041  19.947  0.00  0.00    +0.000 OA
ATOM      5  N   UNL     1       5.340   5.722  18.304  0.00  0.00    +0.000 N 
ATOM      6  C   UNL     1       5.363   6.623  17.177  0.00  0.00    +0.000 C 
ENDROOT
BRANCH   5   7
ATOM      7  C   UNL     1       4.122   5.340  18.899  0.00  0.00    +0.000 A 
ATOM      8  C   UNL     1       3.452   6.313  19.671  0.00  0.00    +0.000 A 
ATOM      9  C   UNL     1       2.211   6.083  20.280  0.00  0.00    +0.000 A 
ATOM     10  C   UNL     1       1.689   4.813  20.117  0.00  0.00    +0.000 A 
ATOM     11  C   UNL     1       2.361   3.845  19.398  0.00  0.00    +0.000 A 
ATOM     12  C   UNL     1       1.682   2.644  19.421  0.00  0.00    +0.000 A 
ATOM     13  C   UNL     1       2.191   1.518  18.790  0.00  0.00    +0.000 A 
ATOM     14  C   UNL     1       3.420   1.676  18.130  0.00  0.00    +0.000 A 
ATOM     15  C   UNL     1       4.100   2.910  18.109  0.00  0.00    +0.000 A 
ATOM     16  C   UNL     1       3.565   4.045  18.763  0.00  0.00    +0.000 A 
ATOM     17  C   UNL     1       0.424   2.776  20.208  0.00  0.00    +0.000 C 
ATOM     18  C   UNL     1       0.412   4.270  20.659  0.00  0.00    +0.000 C 
ENDBRANCH   5   7
BRANCH   1  20
ATOM     19  O   UNL     1       8.006   4.713  15.899  0.00  0.00    +0.000 OA
ATOM     20  C   UNL     1       7.132   5.551  15.681  0.00  0.00    +0.000 C 
ATOM     21  N   UNL     1       6.375   5.602  14.525  0.00  0.00    +0.000 N 
ATOM     22  H   UNL     1       5.959   6.488  14.264  0.00  0.00    +0.000 HD
BRANCH  21  23
ATOM     23  C   UNL     1       6.470   4.637  13.492  0.00  0.00    +0.000 A 
ATOM     24  C   UNL     1       5.564   3.574  13.435  0.00  0.00    +0.000 A 
ATOM     25  C   UNL     1       5.605   2.664  12.376  0.00  0.00    +0.000 A 
ATOM     26  C   UNL     1       6.557   2.800  11.366  0.00  0.00    +0.000 A 
ATOM     27  C   UNL     1       7.471   3.846  11.418  0.00  0.00    +0.000 A 
ATOM     28  C   UNL     1       7.428   4.761  12.473  0.00  0.00    +0.000 A 
ATOM     29 BR   UNL     1       8.816   6.050  12.526  0.00  0.00    +0.000 Br
ENDBRANCH  21  23
ENDBRANCH   1  20
TORSDOF 3
ENDMDL
MODEL 2
REMARK VINA RESULT:      -7.2      6.092      8.644
REMARK  Name = 
REMARK  3 active torsions:
REMARK  status: ('A' for Active; 'I' for Inactive)
REMARK    1  A    between atoms: C_2  and  C_11
REMARK    2  A    between atoms: N_3  and  C_4
REMARK    3  A    between atoms: N_15  and  C_16
REMARK                            x       y       z     vdW  Elec       q    Type
REMARK                         _______ _______ _______ _____ _____    ______ ____
ROOT
ATOM      1  C   UNL     1       0.027  10.684  20.016  0.00  0.00    +0.000 C 
ATOM      2  C   UNL     1       0.127   9.956  21.354  0.00  0.00    +0.000 C 
ATOM      3  C   UNL     1       1.155   8.877  21.102  0.00  0.00    +0.000 C 
ATOM      4  O   UNL     1       1.676   8.213  21.980  0.00  0.00    +0.000 OA
ATOM      5  N   UNL     1       1.384   8.827  19.729  0.00  0.00    +0.000 N 
ATOM      6  C   UNL     1       0.454   9.650  18.995  0.00  0.00    +0.000 C 
ENDROOT
BRANCH   5   7
ATOM      7  C   UNL     1       2.141   7.834  19.077  0.00  0.00    +0.000 A 
ATOM      8  C   UNL     1       2.964   8.252  18.009  0.00  0.00    +0.000 A 
ATOM      9  C   UNL     1       3.803   7.379  17.304  0.00  0.00    +0.000 A 
ATOM     10  C   UNL     1       3.748   6.052  17.690  0.00  0.00    +0.000 A 
ATOM     11  C   UNL     1       2.913   5.632  18.706  0.00  0.00    +0.000 A 
ATOM     12  C   UNL     1       2.981   4.263  18.875  0.00  0.00    +0.000 A 
ATOM     13  C   UNL     1       2.200   3.617  19.821  0.00  0.00    +0.000 A 
ATOM     14  C   UNL     1       1.353   4.429  20.591  0.00  0.00    +0.000 A 
ATOM     15  C   UNL     1       1.297   5.826  20.412  0.00  0.00    +0.000 A 
ATOM     16  C   UNL     1       2.100   6.465  19.438  0.00  0.00    +0.000 A 
ATOM     17  C   UNL     1       3.950   3.671  17.911  0.00  0.00    +0.000 C 
ATOM     18  C   UNL     1       4.499   4.899  17.119  0.00  0.00    +0.000 C 
ENDBRANCH   5   7
BRANCH   1  20
ATOM     19  O   UNL     1       1.477  12.281  21.030  0.00  0.00    +0.000 OA
ATOM     20  C   UNL     1       0.870  11.954  20.011  0.00  0.00    +0.000 C 
ATOM     21  N   UNL     1       0.919  12.654  18.820  0.00  0.00    +0.000 N 
ATOM     22  H   UNL     1       0.148  12.549  18.171  0.00  0.00    +0.000 HD
BRANCH  21  23
ATOM     23  C   UNL     1       1.742  13.789  18.619  0.00  0.00    +0.000 A 
ATOM     24  C   UNL     1       3.065  13.634  18.196  0.00  0.00    +0.000 A 
ATOM     25  C   UNL     1       3.858  14.751  17.922  0.00  0.00    +0.000 A 
ATOM     26  C   UNL     1       3.341  16.037  18.077  0.00  0.00    +0.000 A 
ATOM     27  C   UNL     1       2.031  16.205  18.508  0.00  0.00    +0.000 A 
ATOM     28  C   UNL     1       1.234  15.088  18.776  0.00  0.00    +0.000 A 
ATOM     29 BR   UNL     1      -0.480  15.434  19.508  0.00  0.00    +0.000 Br
ENDBRANCH  21  23
ENDBRANCH   1  20
TORSDOF 3
ENDMDL
MODEL 3
REMARK VINA RESULT:      -7.1      2.759      4.424
REMARK  Name = 
REMARK  3 active torsions:
REMARK  status: ('A' for Active; 'I' for Inactive)
REMARK    1  A    between atoms: C_2  and  C_11
REMARK    2  A    between atoms: N_3  and  C_4
REMARK    3  A    between atoms: N_15  and  C_16
REMARK                            x       y       z     vdW  Elec       q    Type
REMARK                         _______ _______ _______ _____ _____    ______ ____
ROOT
ATOM      1  C   UNL     1       4.620   3.837  17.330  0.00  0.00    +0.000 C 
ATOM      2  C   UNL     1       3.269   3.217  16.986  0.00  0.00    +0.000 C 
ATOM      3  C   UNL     1       2.267   4.200  17.548  0.00  0.00    +0.000 C 
ATOM      4  O   UNL     1       1.075   4.178  17.296  0.00  0.00    +0.000 OA
ATOM      5  N   UNL     1       2.965   5.100  18.349  0.00  0.00    +0.000 N 
ATOM      6  C   UNL     1       4.338   4.700  18.543  0.00  0.00    +0.000 C 
ENDROOT
BRANCH   5   7
ATOM      7  C   UNL     1       2.366   6.058  19.191  0.00  0.00    +0.000 A 
ATOM      8  C   UNL     1       1.890   5.606  20.441  0.00  0.00    +0.000 A 
ATOM      9  C   UNL     1       1.315   6.458  21.392  0.00  0.00    +0.000 A 
ATOM     10  C   UNL     1       1.198   7.784  21.018  0.00  0.00    +0.000 A 
ATOM     11  C   UNL     1       1.624   8.222  19.780  0.00  0.00    +0.000 A 
ATOM     12  C   UNL     1       1.353   9.564  19.605  0.00  0.00    +0.000 A 
ATOM     13  C   UNL     1       1.665  10.212  18.418  0.00  0.00    +0.000 A 
ATOM     14  C   UNL     1       2.273   9.430  17.423  0.00  0.00    +0.000 A 
ATOM     15  C   UNL     1       2.550   8.062  17.617  0.00  0.00    +0.000 A 
ATOM     16  C   UNL     1       2.220   7.420  18.834  0.00  0.00    +0.000 A 
ATOM     17  C   UNL     1       0.694  10.122  20.819  0.00  0.00    +0.000 C 
ATOM     18  C   UNL     1       0.616   8.909  21.800  0.00  0.00    +0.000 C 
ENDBRANCH   5   7
BRANCH   1  20
ATOM     19  O   UNL     1       5.006   5.807  16.045  0.00  0.00    +0.000 OA
ATOM     20  C   UNL     1       5.200   4.596  16.142  0.00  0.00    +0.000 C 
ATOM     21  N   UNL     1       5.948   3.855  15.246  0.00  0.00    +0.000 N 
ATOM     22  H   UNL     1       5.768   2.860  15.180  0.00  0.00    +0.000 HD
BRANCH  21  23
ATOM     23  C   UNL     1       6.644   4.429  14.154  0.00  0.00    +0.000 A 
ATOM     24  C   UNL     1       7.709   5.306  14.380  0.00  0.00    +0.000 A 
ATOM     25  C   UNL     1       8.448   5.815  13.309  0.00  0.00    +0.000 A 
ATOM     26  C   UNL     1       8.127   5.459  11.999  0.00  0.00    +0.000 A 
ATOM     27  C   UNL     1       7.063   4.598  11.761  0.00  0.00    +0.000 A 
ATOM     28  C   UNL     1       6.327   4.082  12.831  0.00  0.00    +0.000 A 
ATOM     29 BR   UNL     1       4.804   3.045  12.383  0.00  0.00    +0.000 Br
ENDBRANCH  21  23
ENDBRANCH   1  20
TORSDOF 3
ENDMDL
MODEL 4
REMARK VINA RESULT:      -7.1      6.255      8.151
REMARK  Name = 
REMARK  3 active torsions:
REMARK  status: ('A' for Active; 'I' for Inactive)
REMARK    1  A    between atoms: C_2  and  C_11
REMARK    2  A    between atoms: N_3  and  C_4
REMARK    3  A    between atoms: N_15  and  C_16
REMARK                            x       y       z     vdW  Elec       q    Type
REMARK                         _______ _______ _______ _____ _____    ______ ____
ROOT
ATOM      1  C   UNL     1       1.926   9.363  19.430  0.00  0.00    +0.000 C 
ATOM      2  C   UNL     1       1.500   9.076  20.867  0.00  0.00    +0.000 C 
ATOM      3  C   UNL     1       0.031   9.437  20.886  0.00  0.00    +0.000 C 
ATOM      4  O   UNL     1      -0.730   9.150  21.793  0.00  0.00    +0.000 OA
ATOM      5  N   UNL     1      -0.253  10.107  19.698  0.00  0.00    +0.000 N 
ATOM      6  C   UNL     1       0.943  10.410  18.949  0.00  0.00    +0.000 C 
ENDROOT
BRANCH   5   7
ATOM      7  C   UNL     1      -1.468  10.762  19.417  0.00  0.00    +0.000 A 
ATOM      8  C   UNL     1      -1.995  11.598  20.425  0.00  0.00    +0.000 A 
ATOM      9  C   UNL     1      -3.170  12.343  20.261  0.00  0.00    +0.000 A 
ATOM     10  C   UNL     1      -3.820  12.181  19.052  0.00  0.00    +0.000 A 
ATOM     11  C   UNL     1      -3.330  11.332  18.080  0.00  0.00    +0.000 A 
ATOM     12  C   UNL     1      -4.173  11.285  16.987  0.00  0.00    +0.000 A 
ATOM     13  C   UNL     1      -3.895  10.469  15.900  0.00  0.00    +0.000 A 
ATOM     14  C   UNL     1      -2.717   9.710  15.976  0.00  0.00    +0.000 A 
ATOM     15  C   UNL     1      -1.862   9.773  17.094  0.00  0.00    +0.000 A 
ATOM     16  C   UNL     1      -2.166  10.609  18.194  0.00  0.00    +0.000 A 
ATOM     17  C   UNL     1      -5.345  12.179  17.199  0.00  0.00    +0.000 C 
ATOM     18  C   UNL     1      -5.088  12.817  18.600  0.00  0.00    +0.000 C 
ENDBRANCH   5   7
BRANCH   1  20
ATOM     19  O   UNL     1       1.483   8.108  17.452  0.00  0.00    +0.000 OA
ATOM     20  C   UNL     1       1.944   8.089  18.592  0.00  0.00    +0.000 C 
ATOM     21  N   UNL     1       2.520   6.977  19.179  0.00  0.00    +0.000 N 
ATOM     22  H   UNL     1       2.539   6.925  20.191  0.00  0.00    +0.000 HD
BRANCH  21  23
ATOM     23  C   UNL     1       2.714   5.751  18.496  0.00  0.00    +0.000 A 
ATOM     24  C   UNL     1       1.772   4.725  18.610  0.00  0.00    +0.000 A 
ATOM     25  C   UNL     1       1.918   3.544  17.878  0.00  0.00    +0.000 A 
ATOM     26  C   UNL     1       3.013   3.371  17.031  0.00  0.00    +0.000 A 
ATOM     27  C   UNL     1       3.963   4.379  16.919  0.00  0.00    +0.000 A 
ATOM     28  C   UNL     1       3.814   5.564  17.645  0.00  0.00    +0.000 A 
ATOM     29 BR   UNL     1       5.246   6.802  17.537  0.00  0.00    +0.000 Br
ENDBRANCH  21  23
ENDBRANCH   1  20
TORSDOF 3
ENDMDL
MODEL 5
REMARK VINA RESULT:      -7.1      5.768      8.350
REMARK  Name = 
REMARK  3 active torsions:
REMARK  status: ('A' for Active; 'I' for Inactive)
REMARK    1  A    between atoms: C_2  and  C_11
REMARK    2  A    between atoms: N_3  and  C_4
REMARK    3  A    between atoms: N_15  and  C_16
REMARK                            x       y       z     vdW  Elec       q    Type
REMARK                         _______ _______ _______ _____ _____    ______ ____
ROOT
ATOM      1  C   UNL     1       0.363  10.028  19.094  0.00  0.00    +0.000 C 
ATOM      2  C   UNL     1       0.306   9.145  20.338  0.00  0.00    +0.000 C 
ATOM      3  C   UNL     1       1.446   8.171  20.141  0.00  0.00    +0.000 C 
ATOM      4  O   UNL     1       1.872   7.435  21.013  0.00  0.00    +0.000 OA
ATOM      5  N   UNL     1       1.894   8.308  18.829  0.00  0.00    +0.000 N 
ATOM      6  C   UNL     1       1.029   9.158  18.048  0.00  0.00    +0.000 C 
ENDROOT
BRANCH   5   7
ATOM      7  C   UNL     1       2.823   7.453  18.205  0.00  0.00    +0.000 A 
ATOM      8  C   UNL     1       3.997   8.045  17.693  0.00  0.00    +0.000 A 
ATOM      9  C   UNL     1       5.024   7.307  17.089  0.00  0.00    +0.000 A 
ATOM     10  C   UNL     1       4.802   5.946  16.983  0.00  0.00    +0.000 A 
ATOM     11  C   UNL     1       3.637   5.369  17.445  0.00  0.00    +0.000 A 
ATOM     12  C   UNL     1       3.611   4.015  17.178  0.00  0.00    +0.000 A 
ATOM     13  C   UNL     1       2.517   3.235  17.526  0.00  0.00    +0.000 A 
ATOM     14  C   UNL     1       1.457   3.898  18.163  0.00  0.00    +0.000 A 
ATOM     15  C   UNL     1       1.499   5.280  18.435  0.00  0.00    +0.000 A 
ATOM     16  C   UNL     1       2.622   6.057  18.069  0.00  0.00    +0.000 A 
ATOM     17  C   UNL     1       4.861   3.600  16.483  0.00  0.00    +0.000 C 
ATOM     18  C   UNL     1       5.692   4.918  16.376  0.00  0.00    +0.000 C 
ENDBRANCH   5   7
BRANCH   1  20
ATOM     19  O   UNL     1       1.524  11.557  20.506  0.00  0.00    +0.000 OA
ATOM     20  C   UNL     1       1.090  11.337  19.376  0.00  0.00    +0.000 C 
ATOM     21  N   UNL     1       1.242  12.198  18.304  0.00  0.00    +0.000 N 
ATOM     22  H   UNL     1       0.577  12.135  17.542  0.00  0.00    +0.000 HD
BRANCH  21  23
ATOM     23  C   UNL     1       1.987  13.401  18.374  0.00  0.00    +0.000 A 
ATOM     24  C   UNL     1       3.346  13.407  18.046  0.00  0.00    +0.000 A 
ATOM     25  C   UNL     1       4.069  14.603  18.038  0.00  0.00    +0.000 A 
ATOM     26  C   UNL     1       3.443  15.805  18.366  0.00  0.00    +0.000 A 
ATOM     27  C   UNL     1       2.096  15.811  18.706  0.00  0.00    +0.000 A 
ATOM     28  C   UNL     1       1.370  14.617  18.708  0.00  0.00    +0.000 A 
ATOM     29 BR   UNL     1      -0.415  14.717  19.337  0.00  0.00    +0.000 Br
ENDBRANCH  21  23
ENDBRANCH   1  20
TORSDOF 3
ENDMDL
MODEL 6
REMARK VINA RESULT:      -7.1      6.304      9.209
REMARK  Name = 
REMARK  3 active torsions:
REMARK  status: ('A' for Active; 'I' for Inactive)
REMARK    1  A    between atoms: C_2  and  C_11
REMARK    2  A    between atoms: N_3  and  C_4
REMARK    3  A    between atoms: N_15  and  C_16
REMARK                            x       y       z     vdW  Elec       q    Type
REMARK                         _______ _______ _______ _____ _____    ______ ____
ROOT
ATOM      1  C   UNL     1      -0.680  10.829  20.850  0.00  0.00    +0.000 C 
ATOM      2  C   UNL     1      -0.179  10.171  22.132  0.00  0.00    +0.000 C 
ATOM      3  C   UNL     1       0.985   9.322  21.672  0.00  0.00    +0.000 C 
ATOM      4  O   UNL     1       1.790   8.803  22.424  0.00  0.00    +0.000 OA
ATOM      5  N   UNL     1       0.954   9.287  20.280  0.00  0.00    +0.000 N 
ATOM      6  C   UNL     1      -0.250   9.881  19.750  0.00  0.00    +0.000 C 
ENDROOT
BRANCH   5   7
ATOM      7  C   UNL     1       1.763   8.456  19.480  0.00  0.00    +0.000 A 
ATOM      8  C   UNL     1       2.367   9.046  18.349  0.00  0.00    +0.000 A 
ATOM      9  C   UNL     1       3.230   8.348  17.494  0.00  0.00    +0.000 A 
ATOM     10  C   UNL     1       3.430   7.015  17.800  0.00  0.00    +0.000 A 
ATOM     11  C   UNL     1       2.808   6.424  18.881  0.00  0.00    +0.000 A 
ATOM     12  C   UNL     1       3.106   5.078  18.954  0.00  0.00    +0.000 A 
ATOM     13  C   UNL     1       2.562   4.274  19.946  0.00  0.00    +0.000 A 
ATOM     14  C   UNL     1       1.707   4.908  20.862  0.00  0.00    +0.000 A 
ATOM     15  C   UNL     1       1.416   6.284  20.779  0.00  0.00    +0.000 A 
ATOM     16  C   UNL     1       1.978   7.084  19.757  0.00  0.00    +0.000 A 
ATOM     17  C   UNL     1       4.020   4.689  17.844  0.00  0.00    +0.000 C 
ATOM     18  C   UNL     1       4.267   6.022  17.071  0.00  0.00    +0.000 C 
ENDBRANCH   5   7
BRANCH   1  20
ATOM     19  O   UNL     1       0.511  12.743  21.625  0.00  0.00    +0.000 OA
ATOM     20  C   UNL     1      -0.136  12.246  20.704  0.00  0.00    +0.000 C 
ATOM     21  N   UNL     1      -0.390  12.880  19.502  0.00  0.00    +0.000 N 
ATOM     22  H   UNL     1      -1.196  12.583  18.965  0.00  0.00    +0.000 HD
BRANCH  21  23
ATOM     23  C   UNL     1       0.139  14.151  19.167  0.00  0.00    +0.000 A 
ATOM     24  C   UNL     1      -0.631  15.304  19.347  0.00  0.00    +0.000 A 
ATOM     25  C   UNL     1      -0.089  16.566  19.093  0.00  0.00    +0.000 A 
ATOM     26  C   UNL     1       1.227  16.690  18.646  0.00  0.00    +0.000 A 
ATOM     27  C   UNL     1       1.998  15.551  18.451  0.00  0.00    +0.000 A 
ATOM     28  C   UNL     1       1.460  14.288  18.712  0.00  0.00    +0.000 A 
ATOM     29 BR   UNL     1       2.546  12.801  18.263  0.00  0.00    +0.000 Br
ENDBRANCH  21  23
ENDBRANCH   1  20
TORSDOF 3
ENDMDL
MODEL 7
REMARK VINA RESULT:      -7.0      6.488      8.371
REMARK  Name = 
REMARK  3 active torsions:
REMARK  status: ('A' for Active; 'I' for Inactive)
REMARK    1  A    between atoms: C_2  and  C_11
REMARK    2  A    between atoms: N_3  and  C_4
REMARK    3  A    between atoms: N_15  and  C_16
REMARK                            x       y       z     vdW  Elec       q    Type
REMARK                         _______ _______ _______ _____ _____    ______ ____
ROOT
ATOM      1  C   UNL     1       1.931   9.504  19.616  0.00  0.00    +0.000 C 
ATOM      2  C   UNL     1       1.436   9.148  21.016  0.00  0.00    +0.000 C 
ATOM      3  C   UNL     1      -0.043   9.457  20.965  0.00  0.00    +0.000 C 
ATOM      4  O   UNL     1      -0.842   9.109  21.816  0.00  0.00    +0.000 OA
ATOM      5  N   UNL     1      -0.285  10.162  19.788  0.00  0.00    +0.000 N 
ATOM      6  C   UNL     1       0.938  10.534  19.119  0.00  0.00    +0.000 C 
ENDROOT
BRANCH   5   7
ATOM      7  C   UNL     1      -1.506  10.785  19.462  0.00  0.00    +0.000 A 
ATOM      8  C   UNL     1      -2.096  11.597  20.454  0.00  0.00    +0.000 A 
ATOM      9  C   UNL     1      -3.284  12.311  20.248  0.00  0.00    +0.000 A 
ATOM     10  C   UNL     1      -3.881  12.140  19.012  0.00  0.00    +0.000 A 
ATOM     11  C   UNL     1      -3.329  11.313  18.055  0.00  0.00    +0.000 A 
ATOM     12  C   UNL     1      -4.126  11.251  16.929  0.00  0.00    +0.000 A 
ATOM     13  C   UNL     1      -3.781  10.451  15.849  0.00  0.00    +0.000 A 
ATOM     14  C   UNL     1      -2.586   9.725  15.967  0.00  0.00    +0.000 A 
ATOM     15  C   UNL     1      -1.778   9.803  17.119  0.00  0.00    +0.000 A 
ATOM     16  C   UNL     1      -2.150  10.622  18.211  0.00  0.00    +0.000 A 
ATOM     17  C   UNL     1      -5.330  12.111  17.099  0.00  0.00    +0.000 C 
ATOM     18  C   UNL     1      -5.147  12.744  18.515  0.00  0.00    +0.000 C 
ENDBRANCH   5   7
BRANCH   1  20
ATOM     19  O   UNL     1       1.547   8.276  17.609  0.00  0.00    +0.000 OA
ATOM     20  C   UNL     1       2.042   8.265  18.735  0.00  0.00    +0.000 C 
ATOM     21  N   UNL     1       2.736   7.193  19.268  0.00  0.00    +0.000 N 
ATOM     22  H   UNL     1       2.789   7.112  20.277  0.00  0.00    +0.000 HD
BRANCH  21  23
ATOM     23  C   UNL     1       3.022   6.014  18.538  0.00  0.00    +0.000 A 
ATOM     24  C   UNL     1       3.895   6.054  17.447  0.00  0.00    +0.000 A 
ATOM     25  C   UNL     1       4.242   4.882  16.772  0.00  0.00    +0.000 A 
ATOM     26  C   UNL     1       3.712   3.656  17.173  0.00  0.00    +0.000 A 
ATOM     27  C   UNL     1       2.833   3.603  18.247  0.00  0.00    +0.000 A 
ATOM     28  C   UNL     1       2.491   4.774  18.929  0.00  0.00    +0.000 A 
ATOM     29 BR   UNL     1       1.166   4.609  20.275  0.00  0.00    +0.000 Br
ENDBRANCH  21  23
ENDBRANCH   1  20
TORSDOF 3
ENDMDL
MODEL 8
REMARK VINA RESULT:      -7.0      5.681      8.735
REMARK  Name = 
REMARK  3 active torsions:
REMARK  status: ('A' for Active; 'I' for Inactive)
REMARK    1  A    between atoms: C_2  and  C_11
REMARK    2  A    between atoms: N_3  and  C_4
REMARK    3  A    between atoms: N_15  and  C_16
REMARK                            x       y       z     vdW  Elec       q    Type
REMARK                         _______ _______ _______ _____ _____    ______ ____
ROOT
ATOM      1  C   UNL     1       1.214  10.244  19.783  0.00  0.00    +0.000 C 
ATOM      2  C   UNL     1       1.745  10.153  18.355  0.00  0.00    +0.000 C 
ATOM      3  C   UNL     1       1.989   8.675  18.154  0.00  0.00    +0.000 C 
ATOM      4  O   UNL     1       2.213   8.161  17.072  0.00  0.00    +0.000 OA
ATOM      5  N   UNL     1       1.882   8.058  19.398  0.00  0.00    +0.000 N 
ATOM      6  C   UNL     1       1.778   9.018  20.471  0.00  0.00    +0.000 C 
ENDROOT
BRANCH   5   7
ATOM      7  C   UNL     1       2.218   6.715  19.660  0.00  0.00    +0.000 A 
ATOM      8  C   UNL     1       1.353   5.991  20.508  0.00  0.00    +0.000 A 
ATOM      9  C   UNL     1       1.542   4.638  20.816  0.00  0.00    +0.000 A 
ATOM     10  C   UNL     1       2.666   4.048  20.267  0.00  0.00    +0.000 A 
ATOM     11  C   UNL     1       3.537   4.764  19.471  0.00  0.00    +0.000 A 
ATOM     12  C   UNL     1       4.614   3.990  19.088  0.00  0.00    +0.000 A 
ATOM     13  C   UNL     1       5.635   4.515  18.309  0.00  0.00    +0.000 A 
ATOM     14  C   UNL     1       5.504   5.861  17.934  0.00  0.00    +0.000 A 
ATOM     15  C   UNL     1       4.396   6.639  18.327  0.00  0.00    +0.000 A 
ATOM     16  C   UNL     1       3.368   6.085  19.125  0.00  0.00    +0.000 A 
ATOM     17  C   UNL     1       4.488   2.615  19.648  0.00  0.00    +0.000 C 
ATOM     18  C   UNL     1       3.138   2.646  20.430  0.00  0.00    +0.000 C 
ENDBRANCH   5   7
BRANCH   1  20
ATOM     19  O   UNL     1      -0.949   9.538  20.494  0.00  0.00    +0.000 OA
ATOM     20  C   UNL     1      -0.308  10.330  19.804  0.00  0.00    +0.000 C 
ATOM     21  N   UNL     1      -0.876  11.338  19.047  0.00  0.00    +0.000 N 
ATOM     22  H   UNL     1      -0.354  11.695  18.256  0.00  0.00    +0.000 HD
BRANCH  21  23
ATOM     23  C   UNL     1      -2.264  11.620  19.047  0.00  0.00    +0.000 A 
ATOM     24  C   UNL     1      -2.827  12.388  20.071  0.00  0.00    +0.000 A 
ATOM     25  C   UNL     1      -4.180  12.735  20.036  0.00  0.00    +0.000 A 
ATOM     26  C   UNL     1      -4.988  12.311  18.981  0.00  0.00    +0.000 A 
ATOM     27  C   UNL     1      -4.444  11.537  17.964  0.00  0.00    +0.000 A 
ATOM     28  C   UNL     1      -3.089  11.195  17.994  0.00  0.00    +0.000 A 
ATOM     29 BR   UNL     1      -2.490  10.008  16.642  0.00  0.00    +0.000 Br
ENDBRANCH  21  23
ENDBRANCH   1  20
TORSDOF 3
ENDMDL
MODEL 9
REMARK VINA RESULT:      -6.9      5.748      8.618
REMARK  Name = 
REMARK  3 active torsions:
REMARK  status: ('A' for Active; 'I' for Inactive)
REMARK    1  A    between atoms: C_2  and  C_11
REMARK    2  A    between atoms: N_3  and  C_4
REMARK    3  A    between atoms: N_15  and  C_16
REMARK                            x       y       z     vdW  Elec       q    Type
REMARK                         _______ _______ _______ _____ _____    ______ ____
ROOT
ATOM      1  C   UNL     1       0.759  10.074  18.711  0.00  0.00    +0.000 C 
ATOM      2  C   UNL     1       0.657   9.308  20.027  0.00  0.00    +0.000 C 
ATOM      3  C   UNL     1       1.734   8.252  19.913  0.00  0.00    +0.000 C 
ATOM      4  O   UNL     1       2.120   7.569  20.845  0.00  0.00    +0.000 OA
ATOM      5  N   UNL     1       2.180   8.247  18.594  0.00  0.00    +0.000 N 
ATOM      6  C   UNL     1       1.362   9.078  17.743  0.00  0.00    +0.000 C 
ENDROOT
BRANCH   5   7
ATOM      7  C   UNL     1       3.050   7.285  18.044  0.00  0.00    +0.000 A 
ATOM      8  C   UNL     1       4.288   7.748  17.550  0.00  0.00    +0.000 A 
ATOM      9  C   UNL     1       5.265   6.895  17.019  0.00  0.00    +0.000 A 
ATOM     10  C   UNL     1       4.928   5.555  16.966  0.00  0.00    +0.000 A 
ATOM     11  C   UNL     1       3.701   5.104  17.409  0.00  0.00    +0.000 A 
ATOM     12  C   UNL     1       3.564   3.746  17.202  0.00  0.00    +0.000 A 
ATOM     13  C   UNL     1       2.394   3.082  17.543  0.00  0.00    +0.000 A 
ATOM     14  C   UNL     1       1.375   3.865  18.109  0.00  0.00    +0.000 A 
ATOM     15  C   UNL     1       1.531   5.249  18.321  0.00  0.00    +0.000 A 
ATOM     16  C   UNL     1       2.731   5.907  17.963  0.00  0.00    +0.000 A 
ATOM     17  C   UNL     1       4.795   3.191  16.574  0.00  0.00    +0.000 C 
ATOM     18  C   UNL     1       5.742   4.425  16.440  0.00  0.00    +0.000 C 
ENDBRANCH   5   7
BRANCH   1  20
ATOM     19  O   UNL     1       2.420  11.646  18.039  0.00  0.00    +0.000 OA
ATOM     20  C   UNL     1       1.567  11.356  18.877  0.00  0.00    +0.000 C 
ATOM     21  N   UNL     1       1.257  12.140  19.973  0.00  0.00    +0.000 N 
ATOM     22  H   UNL     1       0.836  11.692  20.779  0.00  0.00    +0.000 HD
BRANCH  21  23
ATOM     23  C   UNL     1       1.837  13.411  20.208  0.00  0.00    +0.000 A 
ATOM     24  C   UNL     1       3.018  13.520  20.949  0.00  0.00    +0.000 A 
ATOM     25  C   UNL     1       3.636  14.760  21.119  0.00  0.00    +0.000 A 
ATOM     26  C   UNL     1       3.077  15.909  20.558  0.00  0.00    +0.000 A 
ATOM     27  C   UNL     1       1.897  15.815  19.831  0.00  0.00    +0.000 A 
ATOM     28  C   UNL     1       1.281  14.574  19.653  0.00  0.00    +0.000 A 
ATOM     29 BR   UNL     1      -0.402  14.586  18.781  0.00  0.00    +0.000 Br
ENDBRANCH  21  23
ENDBRANCH   1  20
TORSDOF 3
ENDMDL
