MODEL 1
REMARK VINA RESULT:      -5.2      0.000      0.000
REMARK  Name = 
REMARK  5 active torsions:
REMARK  status: ('A' for Active; 'I' for Inactive)
REMARK    1  A    between atoms: C_1  and  C_2
REMARK    2  A    between atoms: C_2  and  N_3
REMARK    3  A    between atoms: N_3  and  C_4
REMARK    4  A    between atoms: N_3  and  C_6
REMARK    5  A    between atoms: C_4  and  C_5
REMARK                            x       y       z     vdW  Elec       q    Type
REMARK                         _______ _______ _______ _____ _____    ______ ____
ROOT
ATOM      1  C   UNL     1       4.363   4.650  17.018  0.00  0.00    +0.000 C 
ATOM      2  C   UNL     1       4.977   4.478  15.583  0.00  0.00    +0.000 C 
ATOM      3  C   UNL     1       6.453   4.065  15.722  0.00  0.00    +0.000 C 
ATOM      4  S   UNL     1       6.951   5.136  17.060  0.00  0.00    +0.000 S 
ATOM      5  O   UNL     1       7.733   6.353  16.543  0.00  0.00    +0.000 OA
ATOM      6  O   UNL     1       7.885   4.474  18.083  0.00  0.00    +0.000 OA
ATOM      7  C   UNL     1       5.359   5.623  17.726  0.00  0.00    +0.000 C 
ENDROOT
BRANCH   1   8
ATOM      8  N   UNL     1       4.188   3.347  17.760  0.00  0.00    +0.000 NA
BRANCH   8  10
ATOM      9  C   UNL     1       4.254   2.324  20.092  0.00  0.00    +0.000 C 
ATOM     10  C   UNL     1       4.658   3.484  19.173  0.00  0.00    +0.000 C 
ENDBRANCH   8  10
BRANCH   8  11
ATOM     11  C   UNL     1       2.792   2.818  17.688  0.00  0.00    +0.000 C 
ATOM     12  C   UNL     1       1.692   3.897  17.689  0.00  0.00    +0.000 C 
ENDBRANCH   8  11
ENDBRANCH   1   8
TORSDOF 3
ENDMDL
MODEL 2
REMARK VINA RESULT:      -5.0      1.413      1.582
REMARK  Name = 
REMARK  5 active torsions:
REMARK  status: ('A' for Active; 'I' for Inactive)
REMARK    1  A    between atoms: C_1  and  C_2
REMARK    2  A    between atoms: C_2  and  N_3
REMARK    3  A    between atoms: N_3  and  C_4
REMARK    4  A    between atoms: N_3  and  C_6
REMARK    5  A    between atoms: C_4  and  C_5
REMARK                            x       y       z     vdW  Elec       q    Type
REMARK                         _______ _______ _______ _____ _____    ______ ____
ROOT
ATOM      1  C   UNL     1       4.691   5.878  18.488  0.00  0.00    +0.000 C 
ATOM      2  C   UNL     1       4.391   6.754  17.220  0.00  0.00    +0.000 C 
ATOM      3  C   UNL     1       5.178   6.185  16.026  0.00  0.00    +0.000 C 
ATOM      4  S   UNL     1       6.731   5.818  16.823  0.00  0.00    +0.000 S 
ATOM      5  O   UNL     1       7.786   6.893  16.519  0.00  0.00    +0.000 OA
ATOM      6  O   UNL     1       7.375   4.498  16.374  0.00  0.00    +0.000 OA
ATOM      7  C   UNL     1       6.252   5.851  18.551  0.00  0.00    +0.000 C 
ENDROOT
BRANCH   1   8
ATOM      8  N   UNL     1       4.083   4.498  18.425  0.00  0.00    +0.000 NA
BRANCH   8  10
ATOM      9  C   UNL     1       4.135   2.273  19.666  0.00  0.00    +0.000 C 
ATOM     10  C   UNL     1       4.894   3.533  19.229  0.00  0.00    +0.000 C 
ENDBRANCH   8  10
BRANCH   8  11
ATOM     11  C   UNL     1       2.642   4.477  18.822  0.00  0.00    +0.000 C 
ATOM     12  C   UNL     1       1.654   4.293  17.654  0.00  0.00    +0.000 C 
ENDBRANCH   8  11
ENDBRANCH   1   8
TORSDOF 3
ENDMDL
MODEL 3
REMARK VINA RESULT:      -5.0      1.267      1.514
REMARK  Name = 
REMARK  5 active torsions:
REMARK  status: ('A' for Active; 'I' for Inactive)
REMARK    1  A    between atoms: C_1  and  C_2
REMARK    2  A    between atoms: C_2  and  N_3
REMARK    3  A    between atoms: N_3  and  C_4
REMARK    4  A    between atoms: N_3  and  C_6
REMARK    5  A    between atoms: C_4  and  C_5
REMARK                            x       y       z     vdW  Elec       q    Type
REMARK                         _______ _______ _______ _____ _____    ______ ____
ROOT
ATOM      1  C   UNL     1       4.429   5.207  17.038  0.00  0.00    +0.000 C 
ATOM      2  C   UNL     1       5.341   4.580  15.924  0.00  0.00    +0.000 C 
ATOM      3  C   UNL     1       6.772   4.445  16.473  0.00  0.00    +0.000 C 
ATOM      4  S   UNL     1       6.923   5.998  17.338  0.00  0.00    +0.000 S 
ATOM      5  O   UNL     1       7.737   7.016  16.525  0.00  0.00    +0.000 OA
ATOM      6  O   UNL     1       7.649   5.902  18.687  0.00  0.00    +0.000 OA
ATOM      7  C   UNL     1       5.204   6.495  17.463  0.00  0.00    +0.000 C 
ENDROOT
BRANCH   1   8
ATOM      8  N   UNL     1       4.163   4.273  18.195  0.00  0.00    +0.000 NA
BRANCH   8  10
ATOM      9  C   UNL     1       2.540   4.929  20.045  0.00  0.00    +0.000 C 
ATOM     10  C   UNL     1       3.950   5.051  19.454  0.00  0.00    +0.000 C 
ENDBRANCH   8  10
BRANCH   8  11
ATOM     11  C   UNL     1       3.040   3.324  17.932  0.00  0.00    +0.000 C 
ATOM     12  C   UNL     1       3.405   1.834  18.087  0.00  0.00    +0.000 C 
ENDBRANCH   8  11
ENDBRANCH   1   8
TORSDOF 3
ENDMDL
MODEL 4
REMARK VINA RESULT:      -5.0      1.659      2.621
REMARK  Name = 
REMARK  5 active torsions:
REMARK  status: ('A' for Active; 'I' for Inactive)
REMARK    1  A    between atoms: C_1  and  C_2
REMARK    2  A    between atoms: C_2  and  N_3
REMARK    3  A    between atoms: N_3  and  C_4
REMARK    4  A    between atoms: N_3  and  C_6
REMARK    5  A    between atoms: C_4  and  C_5
REMARK                            x       y       z     vdW  Elec       q    Type
REMARK                         _______ _______ _______ _____ _____    ______ ____
ROOT
ATOM      1  C   UNL     1       4.930   3.990  17.814  0.00  0.00    +0.000 C 
ATOM      2  C   UNL     1       6.050   4.813  18.544  0.00  0.00    +0.000 C 
ATOM      3  C   UNL     1       6.190   6.181  17.854  0.00  0.00    +0.000 C 
ATOM      4  S   UNL     1       6.065   5.682  16.145  0.00  0.00    +0.000 S 
ATOM      5  O   UNL     1       7.446   5.627  15.475  0.00  0.00    +0.000 OA
ATOM      6  O   UNL     1       5.240   6.635  15.269  0.00  0.00    +0.000 OA
ATOM      7  C   UNL     1       5.359   4.042  16.313  0.00  0.00    +0.000 C 
ENDROOT
BRANCH   1   8
ATOM      8  N   UNL     1       3.538   4.528  18.046  0.00  0.00    +0.000 NA
BRANCH   8  10
ATOM      9  C   UNL     1       2.468   2.220  17.916  0.00  0.00    +0.000 C 
ATOM     10  C   UNL     1       2.524   3.655  17.378  0.00  0.00    +0.000 C 
ENDBRANCH   8  10
BRANCH   8  11
ATOM     11  C   UNL     1       3.226   4.735  19.492  0.00  0.00    +0.000 C 
ATOM     12  C   UNL     1       2.400   6.000  19.799  0.00  0.00    +0.000 C 
ENDBRANCH   8  11
ENDBRANCH   1   8
TORSDOF 3
ENDMDL
MODEL 5
REMARK VINA RESULT:      -5.0      2.845      4.565
REMARK  Name = 
REMARK  5 active torsions:
REMARK  status: ('A' for Active; 'I' for Inactive)
REMARK    1  A    between atoms: C_1  and  C_2
REMARK    2  A    between atoms: C_2  and  N_3
REMARK    3  A    between atoms: N_3  and  C_4
REMARK    4  A    between atoms: N_3  and  C_6
REMARK    5  A    between atoms: C_4  and  C_5
REMARK                            x       y       z     vdW  Elec       q    Type
REMARK                         _______ _______ _______ _____ _____    ______ ____
ROOT
ATOM      1  C   UNL     1       4.344   4.766  17.123  0.00  0.00    +0.000 C 
ATOM      2  C   UNL     1       3.400   5.512  18.132  0.00  0.00    +0.000 C 
ATOM      3  C   UNL     1       3.681   4.992  19.552  0.00  0.00    +0.000 C 
ATOM      4  S   UNL     1       3.850   3.248  19.218  0.00  0.00    +0.000 S 
ATOM      5  O   UNL     1       2.576   2.478  19.597  0.00  0.00    +0.000 OA
ATOM      6  O   UNL     1       4.974   2.560  20.006  0.00  0.00    +0.000 OA
ATOM      7  C   UNL     1       4.097   3.256  17.442  0.00  0.00    +0.000 C 
ENDROOT
BRANCH   1   8
ATOM      8  N   UNL     1       5.795   5.163  17.250  0.00  0.00    +0.000 NA
BRANCH   8  10
ATOM      9  C   UNL     1       6.251   4.602  14.807  0.00  0.00    +0.000 C 
ATOM     10  C   UNL     1       6.633   4.394  16.278  0.00  0.00    +0.000 C 
ENDBRANCH   8  10
BRANCH   8  11
ATOM     11  C   UNL     1       6.010   6.636  17.124  0.00  0.00    +0.000 C 
ATOM     12  C   UNL     1       7.428   7.115  17.493  0.00  0.00    +0.000 C 
ENDBRANCH   8  11
ENDBRANCH   1   8
TORSDOF 3
ENDMDL
MODEL 6
REMARK VINA RESULT:      -4.9      1.710      2.110
REMARK  Name = 
REMARK  5 active torsions:
REMARK  status: ('A' for Active; 'I' for Inactive)
REMARK    1  A    between atoms: C_1  and  C_2
REMARK    2  A    between atoms: C_2  and  N_3
REMARK    3  A    between atoms: N_3  and  C_4
REMARK    4  A    between atoms: N_3  and  C_6
REMARK    5  A    between atoms: C_4  and  C_5
REMARK                            x       y       z     vdW  Elec       q    Type
REMARK                         _______ _______ _______ _____ _____    ______ ____
ROOT
ATOM      1  C   UNL     1       5.309   4.989  17.583  0.00  0.00    +0.000 C 
ATOM      2  C   UNL     1       5.293   6.425  16.947  0.00  0.00    +0.000 C 
ATOM      3  C   UNL     1       5.256   6.288  15.415  0.00  0.00    +0.000 C 
ATOM      4  S   UNL     1       6.417   4.951  15.194  0.00  0.00    +0.000 S 
ATOM      5  O   UNL     1       7.789   5.469  14.737  0.00  0.00    +0.000 OA
ATOM      6  O   UNL     1       6.006   3.929  14.124  0.00  0.00    +0.000 OA
ATOM      7  C   UNL     1       6.497   4.282  16.855  0.00  0.00    +0.000 C 
ENDROOT
BRANCH   1   8
ATOM      8  N   UNL     1       4.003   4.247  17.431  0.00  0.00    +0.000 NA
BRANCH   8  10
ATOM      9  C   UNL     1       4.400   2.976  19.603  0.00  0.00    +0.000 C 
ATOM     10  C   UNL     1       4.079   2.914  18.104  0.00  0.00    +0.000 C 
ENDBRANCH   8  10
BRANCH   8  11
ATOM     11  C   UNL     1       2.825   5.038  17.898  0.00  0.00    +0.000 C 
ATOM     12  C   UNL     1       1.463   4.342  17.706  0.00  0.00    +0.000 C 
ENDBRANCH   8  11
ENDBRANCH   1   8
TORSDOF 3
ENDMDL
MODEL 7
REMARK VINA RESULT:      -4.9      1.792      2.201
REMARK  Name = 
REMARK  5 active torsions:
REMARK  status: ('A' for Active; 'I' for Inactive)
REMARK    1  A    between atoms: C_1  and  C_2
REMARK    2  A    between atoms: C_2  and  N_3
REMARK    3  A    between atoms: N_3  and  C_4
REMARK    4  A    between atoms: N_3  and  C_6
REMARK    5  A    between atoms: C_4  and  C_5
REMARK                            x       y       z     vdW  Elec       q    Type
REMARK                         _______ _______ _______ _____ _____    ______ ____
ROOT
ATOM      1  C   UNL     1       5.102   5.313  18.000  0.00  0.00    +0.000 C 
ATOM      2  C   UNL     1       5.028   6.611  17.120  0.00  0.00    +0.000 C 
ATOM      3  C   UNL     1       5.098   6.209  15.636  0.00  0.00    +0.000 C 
ATOM      4  S   UNL     1       6.358   4.949  15.713  0.00  0.00    +0.000 S 
ATOM      5  O   UNL     1       7.718   5.485  15.240  0.00  0.00    +0.000 OA
ATOM      6  O   UNL     1       6.086   3.729  14.822  0.00  0.00    +0.000 OA
ATOM      7  C   UNL     1       6.380   4.586  17.469  0.00  0.00    +0.000 C 
ENDROOT
BRANCH   1   8
ATOM      8  N   UNL     1       3.862   4.456  17.916  0.00  0.00    +0.000 NA
BRANCH   8  10
ATOM      9  C   UNL     1       3.344   1.963  18.016  0.00  0.00    +0.000 C 
ATOM     10  C   UNL     1       4.072   3.162  18.637  0.00  0.00    +0.000 C 
ENDBRANCH   8  10
BRANCH   8  11
ATOM     11  C   UNL     1       2.633   5.161  18.389  0.00  0.00    +0.000 C 
ATOM     12  C   UNL     1       2.610   5.478  19.897  0.00  0.00    +0.000 C 
ENDBRANCH   8  11
ENDBRANCH   1   8
TORSDOF 3
ENDMDL
MODEL 8
REMARK VINA RESULT:      -4.9      3.791      5.059
REMARK  Name = 
REMARK  5 active torsions:
REMARK  status: ('A' for Active; 'I' for Inactive)
REMARK    1  A    between atoms: C_1  and  C_2
REMARK    2  A    between atoms: C_2  and  N_3
REMARK    3  A    between atoms: N_3  and  C_4
REMARK    4  A    between atoms: N_3  and  C_6
REMARK    5  A    between atoms: C_4  and  C_5
REMARK                            x       y       z     vdW  Elec       q    Type
REMARK                         _______ _______ _______ _____ _____    ______ ____
ROOT
ATOM      1  C   UNL     1       3.692   3.774  19.704  0.00  0.00    +0.000 C 
ATOM      2  C   UNL     1       3.811   2.318  19.126  0.00  0.00    +0.000 C 
ATOM      3  C   UNL     1       2.960   2.222  17.847  0.00  0.00    +0.000 C 
ATOM      4  S   UNL     1       1.517   3.135  18.364  0.00  0.00    +0.000 S 
ATOM      5  O   UNL     1       0.365   2.194  18.747  0.00  0.00    +0.000 OA
ATOM      6  O   UNL     1       0.930   4.054  17.282  0.00  0.00    +0.000 OA
ATOM      7  C   UNL     1       2.150   4.003  19.799  0.00  0.00    +0.000 C 
ENDROOT
BRANCH   1   8
ATOM      8  N   UNL     1       4.390   4.815  18.862  0.00  0.00    +0.000 NA
BRANCH   8  10
ATOM      9  C   UNL     1       3.664   6.937  17.654  0.00  0.00    +0.000 C 
ATOM     10  C   UNL     1       3.674   6.125  18.956  0.00  0.00    +0.000 C 
ENDBRANCH   8  10
BRANCH   8  11
ATOM     11  C   UNL     1       5.842   4.952  19.187  0.00  0.00    +0.000 C 
ATOM     12  C   UNL     1       6.792   4.762  17.989  0.00  0.00    +0.000 C 
ENDBRANCH   8  11
ENDBRANCH   1   8
TORSDOF 3
ENDMDL
MODEL 9
REMARK VINA RESULT:      -4.9      1.489      2.809
REMARK  Name = 
REMARK  5 active torsions:
REMARK  status: ('A' for Active; 'I' for Inactive)
REMARK    1  A    between atoms: C_1  and  C_2
REMARK    2  A    between atoms: C_2  and  N_3
REMARK    3  A    between atoms: N_3  and  C_4
REMARK    4  A    between atoms: N_3  and  C_6
REMARK    5  A    between atoms: C_4  and  C_5
REMARK                            x       y       z     vdW  Elec       q    Type
REMARK                         _______ _______ _______ _____ _____    ______ ____
ROOT
ATOM      1  C   UNL     1       5.415   4.114  18.006  0.00  0.00    +0.000 C 
ATOM      2  C   UNL     1       6.571   5.043  18.521  0.00  0.00    +0.000 C 
ATOM      3  C   UNL     1       6.538   6.362  17.729  0.00  0.00    +0.000 C 
ATOM      4  S   UNL     1       6.219   5.733  16.090  0.00  0.00    +0.000 S 
ATOM      5  O   UNL     1       7.501   5.697  15.244  0.00  0.00    +0.000 OA
ATOM      6  O   UNL     1       5.232   6.576  15.271  0.00  0.00    +0.000 OA
ATOM      7  C   UNL     1       5.640   4.077  16.460  0.00  0.00    +0.000 C 
ENDROOT
BRANCH   1   8
ATOM      8  N   UNL     1       4.037   4.597  18.386  0.00  0.00    +0.000 NA
BRANCH   8  10
ATOM      9  C   UNL     1       1.591   4.290  17.742  0.00  0.00    +0.000 C 
ATOM     10  C   UNL     1       3.059   4.297  17.295  0.00  0.00    +0.000 C 
ENDBRANCH   8  10
BRANCH   8  11
ATOM     11  C   UNL     1       3.576   4.068  19.706  0.00  0.00    +0.000 C 
ATOM     12  C   UNL     1       4.052   2.637  20.028  0.00  0.00    +0.000 C 
ENDBRANCH   8  11
ENDBRANCH   1   8
TORSDOF 3
ENDMDL
