MODEL 1
REMARK VINA RESULT:      -7.5      0.000      0.000
REMARK  Name = 
REMARK  8 active torsions:
REMARK  status: ('A' for Active; 'I' for Inactive)
REMARK    1  A    between atoms: C_1  and  C_2
REMARK    2  A    between atoms: C_2  and  C_22
REMARK    3  A    between atoms: N_3  and  N_4
REMARK    4  A    between atoms: C_5  and  C_7
REMARK    5  A    between atoms: C_7  and  N_8
REMARK    6  A    between atoms: N_11  and  C_12
REMARK    7  A    between atoms: C_12  and  C_13
REMARK    8  A    between atoms: C_16  and  C_17
REMARK                            x       y       z     vdW  Elec       q    Type
REMARK                         _______ _______ _______ _____ _____    ______ ____
ROOT
ATOM      1  C   UNL     1       7.986   7.325  18.392  0.00  0.00    +0.000 C 
ENDROOT
BRANCH   1   2
ATOM      2  N   UNL     1       6.618   6.872  18.060  0.00  0.00    +0.000 NA
ATOM      3  C   UNL     1       6.449   6.472  16.662  0.00  0.00    +0.000 C 
ATOM      4  C   UNL     1       6.923   5.034  16.420  0.00  0.00    +0.000 C 
ATOM      5  N   UNL     1       6.023   4.047  17.031  0.00  0.00    +0.000 NA
ATOM      6  C   UNL     1       5.920   4.350  18.478  0.00  0.00    +0.000 C 
ATOM      7  C   UNL     1       6.087   5.837  18.975  0.00  0.00    +0.000 C 
BRANCH   5   8
ATOM      8  C   UNL     1       4.693   3.988  16.376  0.00  0.00    +0.000 C 
BRANCH   8   9
ATOM      9  C   UNL     1       3.534   3.724  17.332  0.00  0.00    +0.000 A 
ATOM     10  C   UNL     1       2.752   4.768  17.847  0.00  0.00    +0.000 A 
ATOM     11  C   UNL     1       1.802   4.526  18.848  0.00  0.00    +0.000 A 
ATOM     12  C   UNL     1       1.583   3.229  19.320  0.00  0.00    +0.000 A 
ATOM     13  C   UNL     1       0.689   2.976  20.502  0.00  0.00    +0.000 C 
ATOM     14  C   UNL     1       2.298   2.171  18.748  0.00  0.00    +0.000 A 
ATOM     15  C   UNL     1       3.253   2.416  17.756  0.00  0.00    +0.000 A 
ENDBRANCH   8   9
ENDBRANCH   5   8
ENDBRANCH   1   2
BRANCH   1  17
ATOM     16  N   UNL     1       9.090   9.462  18.919  0.00  0.00    +0.000 N 
ATOM     17  C   UNL     1       8.178   8.830  18.066  0.00  0.00    +0.000 C 
ATOM     18  O   UNL     1       7.594   9.376  17.135  0.00  0.00    +0.000 OA
ATOM     19  H   UNL     1       9.595   8.894  19.582  0.00  0.00    +0.000 HD
BRANCH  16  22
ATOM     20  C   UNL     1       9.634  11.369  21.019  0.00  0.00    +0.000 C 
ATOM     21  C   UNL     1       9.838  11.579  19.531  0.00  0.00    +0.000 C 
ATOM     22  N   UNL     1       9.560  10.706  18.604  0.00  0.00    +0.000 NA
BRANCH  21  23
ATOM     23  C   UNL     1      10.397  12.917  19.105  0.00  0.00    +0.000 A 
ATOM     24  C   UNL     1       9.679  13.792  18.283  0.00  0.00    +0.000 A 
ATOM     25  C   UNL     1      10.269  14.992  17.923  0.00  0.00    +0.000 A 
ATOM     26  N   UNL     1      11.497  15.375  18.320  0.00  0.00    +0.000 NA
ATOM     27  C   UNL     1      12.172  14.519  19.117  0.00  0.00    +0.000 A 
ATOM     28  C   UNL     1      11.671  13.296  19.532  0.00  0.00    +0.000 A 
ENDBRANCH  21  23
ENDBRANCH  16  22
ENDBRANCH   1  17
TORSDOF 6
ENDMDL
MODEL 2
REMARK VINA RESULT:      -7.3      0.534      1.069
REMARK  Name = 
REMARK  8 active torsions:
REMARK  status: ('A' for Active; 'I' for Inactive)
REMARK    1  A    between atoms: C_1  and  C_2
REMARK    2  A    between atoms: C_2  and  C_22
REMARK    3  A    between atoms: N_3  and  N_4
REMARK    4  A    between atoms: C_5  and  C_7
REMARK    5  A    between atoms: C_7  and  N_8
REMARK    6  A    between atoms: N_11  and  C_12
REMARK    7  A    between atoms: C_12  and  C_13
REMARK    8  A    between atoms: C_16  and  C_17
REMARK                            x       y       z     vdW  Elec       q    Type
REMARK                         _______ _______ _______ _____ _____    ______ ____
ROOT
ATOM      1  C   UNL     1       8.191   7.336  18.394  0.00  0.00    +0.000 C 
ENDROOT
BRANCH   1   2
ATOM      2  N   UNL     1       6.824   6.830  18.142  0.00  0.00    +0.000 NA
ATOM      3  C   UNL     1       6.494   6.696  16.722  0.00  0.00    +0.000 C 
ATOM      4  C   UNL     1       7.027   5.384  16.134  0.00  0.00    +0.000 C 
ATOM      5  N   UNL     1       6.287   4.217  16.633  0.00  0.00    +0.000 NA
ATOM      6  C   UNL     1       6.362   4.221  18.113  0.00  0.00    +0.000 C 
ATOM      7  C   UNL     1       6.494   5.591  18.881  0.00  0.00    +0.000 C 
BRANCH   5   8
ATOM      8  C   UNL     1       4.888   4.163  16.143  0.00  0.00    +0.000 C 
BRANCH   8   9
ATOM      9  C   UNL     1       3.856   3.867  17.227  0.00  0.00    +0.000 A 
ATOM     10  C   UNL     1       3.643   2.566  17.705  0.00  0.00    +0.000 A 
ATOM     11  C   UNL     1       2.581   2.287  18.576  0.00  0.00    +0.000 A 
ATOM     12  C   UNL     1       1.741   3.311  19.022  0.00  0.00    +0.000 A 
ATOM     13  C   UNL     1       0.505   3.005  19.823  0.00  0.00    +0.000 C 
ATOM     14  C   UNL     1       2.002   4.624  18.618  0.00  0.00    +0.000 A 
ATOM     15  C   UNL     1       3.055   4.900  17.741  0.00  0.00    +0.000 A 
ENDBRANCH   8   9
ENDBRANCH   5   8
ENDBRANCH   1   2
BRANCH   1  17
ATOM     16  N   UNL     1       9.222   9.468  19.067  0.00  0.00    +0.000 N 
ATOM     17  C   UNL     1       8.261   8.878  18.238  0.00  0.00    +0.000 C 
ATOM     18  O   UNL     1       7.551   9.487  17.444  0.00  0.00    +0.000 OA
ATOM     19  H   UNL     1       9.826   8.863  19.602  0.00  0.00    +0.000 HD
BRANCH  16  22
ATOM     20  C   UNL     1       9.096  11.357  21.249  0.00  0.00    +0.000 C 
ATOM     21  C   UNL     1       9.561  11.639  19.833  0.00  0.00    +0.000 C 
ATOM     22  N   UNL     1       9.584  10.769  18.862  0.00  0.00    +0.000 NA
BRANCH  21  23
ATOM     23  C   UNL     1      10.019  13.049  19.538  0.00  0.00    +0.000 A 
ATOM     24  C   UNL     1       9.500  13.789  18.470  0.00  0.00    +0.000 A 
ATOM     25  C   UNL     1       9.987  15.068  18.257  0.00  0.00    +0.000 A 
ATOM     26  N   UNL     1      10.930  15.651  19.019  0.00  0.00    +0.000 NA
ATOM     27  C   UNL     1      11.414  14.923  20.048  0.00  0.00    +0.000 A 
ATOM     28  C   UNL     1      10.997  13.636  20.345  0.00  0.00    +0.000 A 
ENDBRANCH  21  23
ENDBRANCH  16  22
ENDBRANCH   1  17
TORSDOF 6
ENDMDL
MODEL 3
REMARK VINA RESULT:      -7.3      1.558      2.085
REMARK  Name = 
REMARK  8 active torsions:
REMARK  status: ('A' for Active; 'I' for Inactive)
REMARK    1  A    between atoms: C_1  and  C_2
REMARK    2  A    between atoms: C_2  and  C_22
REMARK    3  A    between atoms: N_3  and  N_4
REMARK    4  A    between atoms: C_5  and  C_7
REMARK    5  A    between atoms: C_7  and  N_8
REMARK    6  A    between atoms: N_11  and  C_12
REMARK    7  A    between atoms: C_12  and  C_13
REMARK    8  A    between atoms: C_16  and  C_17
REMARK                            x       y       z     vdW  Elec       q    Type
REMARK                         _______ _______ _______ _____ _____    ______ ____
ROOT
ATOM      1  C   UNL     1       7.498   6.994  16.902  0.00  0.00    +0.000 C 
ENDROOT
BRANCH   1   2
ATOM      2  N   UNL     1       6.072   6.701  17.164  0.00  0.00    +0.000 NA
ATOM      3  C   UNL     1       5.334   6.244  15.986  0.00  0.00    +0.000 C 
ATOM      4  C   UNL     1       5.537   4.745  15.732  0.00  0.00    +0.000 C 
ATOM      5  N   UNL     1       4.857   3.920  16.739  0.00  0.00    +0.000 NA
ATOM      6  C   UNL     1       5.355   4.318  18.076  0.00  0.00    +0.000 C 
ATOM      7  C   UNL     1       5.844   5.797  18.315  0.00  0.00    +0.000 C 
BRANCH   5   8
ATOM      8  C   UNL     1       3.378   3.993  16.649  0.00  0.00    +0.000 C 
BRANCH   8   9
ATOM      9  C   UNL     1       2.652   3.627  17.939  0.00  0.00    +0.000 A 
ATOM     10  C   UNL     1       2.014   4.597  18.725  0.00  0.00    +0.000 A 
ATOM     11  C   UNL     1       1.497   4.272  19.987  0.00  0.00    +0.000 A 
ATOM     12  C   UNL     1       1.566   2.961  20.465  0.00  0.00    +0.000 A 
ATOM     13  C   UNL     1       1.165   2.630  21.876  0.00  0.00    +0.000 C 
ATOM     14  C   UNL     1       2.122   1.971  19.649  0.00  0.00    +0.000 A 
ATOM     15  C   UNL     1       2.647   2.299  18.395  0.00  0.00    +0.000 A 
ENDBRANCH   8   9
ENDBRANCH   5   8
ENDBRANCH   1   2
BRANCH   1  17
ATOM     16  N   UNL     1       8.058   9.220  17.793  0.00  0.00    +0.000 N 
ATOM     17  C   UNL     1       8.118   7.844  18.042  0.00  0.00    +0.000 C 
ATOM     18  O   UNL     1       8.584   7.335  19.057  0.00  0.00    +0.000 OA
ATOM     19  H   UNL     1       7.555   9.535  16.976  0.00  0.00    +0.000 HD
BRANCH  16  22
ATOM     20  C   UNL     1      10.265  11.067  17.550  0.00  0.00    +0.000 C 
ATOM     21  C   UNL     1       9.294  10.964  18.711  0.00  0.00    +0.000 C 
ATOM     22  N   UNL     1       8.321  10.102  18.802  0.00  0.00    +0.000 NA
BRANCH  21  23
ATOM     23  C   UNL     1       9.494  11.938  19.850  0.00  0.00    +0.000 A 
ATOM     24  C   UNL     1      10.188  13.140  19.684  0.00  0.00    +0.000 A 
ATOM     25  C   UNL     1      10.342  13.969  20.783  0.00  0.00    +0.000 A 
ATOM     26  N   UNL     1       9.860  13.691  22.008  0.00  0.00    +0.000 NA
ATOM     27  C   UNL     1       9.188  12.528  22.147  0.00  0.00    +0.000 A 
ATOM     28  C   UNL     1       8.980  11.631  21.112  0.00  0.00    +0.000 A 
ENDBRANCH  21  23
ENDBRANCH  16  22
ENDBRANCH   1  17
TORSDOF 6
ENDMDL
MODEL 4
REMARK VINA RESULT:      -7.1      6.192      8.326
REMARK  Name = 
REMARK  8 active torsions:
REMARK  status: ('A' for Active; 'I' for Inactive)
REMARK    1  A    between atoms: C_1  and  C_2
REMARK    2  A    between atoms: C_2  and  C_22
REMARK    3  A    between atoms: N_3  and  N_4
REMARK    4  A    between atoms: C_5  and  C_7
REMARK    5  A    between atoms: C_7  and  N_8
REMARK    6  A    between atoms: N_11  and  C_12
REMARK    7  A    between atoms: C_12  and  C_13
REMARK    8  A    between atoms: C_16  and  C_17
REMARK                            x       y       z     vdW  Elec       q    Type
REMARK                         _______ _______ _______ _____ _____    ______ ____
ROOT
ATOM      1  C   UNL     1       2.838   4.095  19.516  0.00  0.00    +0.000 C 
ENDROOT
BRANCH   1   2
ATOM      2  N   UNL     1       2.923   4.451  18.083  0.00  0.00    +0.000 NA
ATOM      3  C   UNL     1       3.594   5.726  17.828  0.00  0.00    +0.000 C 
ATOM      4  C   UNL     1       5.120   5.577  17.823  0.00  0.00    +0.000 C 
ATOM      5  N   UNL     1       5.598   4.848  16.642  0.00  0.00    +0.000 NA
ATOM      6  C   UNL     1       4.923   3.530  16.607  0.00  0.00    +0.000 C 
ATOM      7  C   UNL     1       3.482   3.378  17.229  0.00  0.00    +0.000 C 
BRANCH   5   8
ATOM      8  C   UNL     1       5.415   5.604  15.378  0.00  0.00    +0.000 C 
BRANCH   8   9
ATOM      9  C   UNL     1       5.834   4.841  14.125  0.00  0.00    +0.000 A 
ATOM     10  C   UNL     1       4.931   4.033  13.419  0.00  0.00    +0.000 A 
ATOM     11  C   UNL     1       5.370   3.212  12.372  0.00  0.00    +0.000 A 
ATOM     12  C   UNL     1       6.712   3.219  11.980  0.00  0.00    +0.000 A 
ATOM     13  C   UNL     1       7.229   2.230  10.972  0.00  0.00    +0.000 C 
ATOM     14  C   UNL     1       7.600   4.087  12.622  0.00  0.00    +0.000 A 
ATOM     15  C   UNL     1       7.162   4.899  13.674  0.00  0.00    +0.000 A 
ENDBRANCH   8   9
ENDBRANCH   5   8
ENDBRANCH   1   2
BRANCH   1  17
ATOM     16  N   UNL     1       2.412   6.237  20.653  0.00  0.00    +0.000 N 
ATOM     17  C   UNL     1       1.843   5.017  20.269  0.00  0.00    +0.000 C 
ATOM     18  O   UNL     1       0.677   4.694  20.471  0.00  0.00    +0.000 OA
ATOM     19  H   UNL     1       3.349   6.445  20.341  0.00  0.00    +0.000 HD
BRANCH  16  22
ATOM     20  C   UNL     1       1.981   8.550  18.977  0.00  0.00    +0.000 C 
ATOM     21  C   UNL     1       1.374   8.296  20.344  0.00  0.00    +0.000 C 
ATOM     22  N   UNL     1       1.608   7.251  21.087  0.00  0.00    +0.000 NA
BRANCH  21  23
ATOM     23  C   UNL     1       0.436   9.356  20.877  0.00  0.00    +0.000 A 
ATOM     24  C   UNL     1      -0.089  10.360  20.057  0.00  0.00    +0.000 A 
ATOM     25  C   UNL     1      -0.927  11.304  20.627  0.00  0.00    +0.000 A 
ATOM     26  N   UNL     1      -1.275  11.314  21.927  0.00  0.00    +0.000 NA
ATOM     27  C   UNL     1      -0.762  10.333  22.700  0.00  0.00    +0.000 A 
ATOM     28  C   UNL     1       0.085   9.344  22.228  0.00  0.00    +0.000 A 
ENDBRANCH  21  23
ENDBRANCH  16  22
ENDBRANCH   1  17
TORSDOF 6
ENDMDL
MODEL 5
REMARK VINA RESULT:      -7.1      7.413     11.209
REMARK  Name = 
REMARK  8 active torsions:
REMARK  status: ('A' for Active; 'I' for Inactive)
REMARK    1  A    between atoms: C_1  and  C_2
REMARK    2  A    between atoms: C_2  and  C_22
REMARK    3  A    between atoms: N_3  and  N_4
REMARK    4  A    between atoms: C_5  and  C_7
REMARK    5  A    between atoms: C_7  and  N_8
REMARK    6  A    between atoms: N_11  and  C_12
REMARK    7  A    between atoms: C_12  and  C_13
REMARK    8  A    between atoms: C_16  and  C_17
REMARK                            x       y       z     vdW  Elec       q    Type
REMARK                         _______ _______ _______ _____ _____    ______ ____
ROOT
ATOM      1  C   UNL     1       1.443   9.875  18.094  0.00  0.00    +0.000 C 
ENDROOT
BRANCH   1   2
ATOM      2  N   UNL     1       0.433   9.696  19.160  0.00  0.00    +0.000 NA
ATOM      3  C   UNL     1       0.929   9.999  20.504  0.00  0.00    +0.000 C 
ATOM      4  C   UNL     1       0.891  11.503  20.799  0.00  0.00    +0.000 C 
ATOM      5  N   UNL     1      -0.482  11.996  20.966  0.00  0.00    +0.000 NA
ATOM      6  C   UNL     1      -1.245  11.663  19.740  0.00  0.00    +0.000 C 
ATOM      7  C   UNL     1      -0.848  10.390  18.899  0.00  0.00    +0.000 C 
BRANCH   5   8
ATOM      8  C   UNL     1      -1.141  11.482  22.191  0.00  0.00    +0.000 C 
BRANCH   8   9
ATOM      9  C   UNL     1      -1.808  12.556  23.044  0.00  0.00    +0.000 A 
ATOM     10  C   UNL     1      -3.109  12.396  23.544  0.00  0.00    +0.000 A 
ATOM     11  C   UNL     1      -3.767  13.456  24.182  0.00  0.00    +0.000 A 
ATOM     12  C   UNL     1      -3.121  14.681  24.373  0.00  0.00    +0.000 A 
ATOM     13  C   UNL     1      -3.865  15.874  24.906  0.00  0.00    +0.000 C 
ATOM     14  C   UNL     1      -1.794  14.818  23.954  0.00  0.00    +0.000 A 
ATOM     15  C   UNL     1      -1.142  13.763  23.309  0.00  0.00    +0.000 A 
ENDBRANCH   8   9
ENDBRANCH   5   8
ENDBRANCH   1   2
BRANCH   1  17
ATOM     16  N   UNL     1       1.867   7.528  18.704  0.00  0.00    +0.000 N 
ATOM     17  C   UNL     1       2.278   8.585  17.884  0.00  0.00    +0.000 C 
ATOM     18  O   UNL     1       3.184   8.520  17.058  0.00  0.00    +0.000 OA
ATOM     19  H   UNL     1       1.041   7.656  19.269  0.00  0.00    +0.000 HD
BRANCH  16  22
ATOM     20  C   UNL     1       1.758   5.528  20.785  0.00  0.00    +0.000 C 
ATOM     21  C   UNL     1       2.264   5.334  19.368  0.00  0.00    +0.000 C 
ATOM     22  N   UNL     1       2.323   6.264  18.457  0.00  0.00    +0.000 NA
BRANCH  21  23
ATOM     23  C   UNL     1       2.747   3.948  19.005  0.00  0.00    +0.000 A 
ATOM     24  C   UNL     1       2.317   3.294  17.846  0.00  0.00    +0.000 A 
ATOM     25  C   UNL     1       2.793   2.018  17.594  0.00  0.00    +0.000 A 
ATOM     26  N   UNL     1       3.653   1.364  18.396  0.00  0.00    +0.000 NA
ATOM     27  C   UNL     1       4.061   2.015  19.507  0.00  0.00    +0.000 A 
ATOM     28  C   UNL     1       3.643   3.290  19.850  0.00  0.00    +0.000 A 
ENDBRANCH  21  23
ENDBRANCH  16  22
ENDBRANCH   1  17
TORSDOF 6
ENDMDL
MODEL 6
REMARK VINA RESULT:      -7.1      6.442      8.498
REMARK  Name = 
REMARK  8 active torsions:
REMARK  status: ('A' for Active; 'I' for Inactive)
REMARK    1  A    between atoms: C_1  and  C_2
REMARK    2  A    between atoms: C_2  and  C_22
REMARK    3  A    between atoms: N_3  and  N_4
REMARK    4  A    between atoms: C_5  and  C_7
REMARK    5  A    between atoms: C_7  and  N_8
REMARK    6  A    between atoms: N_11  and  C_12
REMARK    7  A    between atoms: C_12  and  C_13
REMARK    8  A    between atoms: C_16  and  C_17
REMARK                            x       y       z     vdW  Elec       q    Type
REMARK                         _______ _______ _______ _____ _____    ______ ____
ROOT
ATOM      1  C   UNL     1       2.995   2.098  19.234  0.00  0.00    +0.000 C 
ENDROOT
BRANCH   1   2
ATOM      2  N   UNL     1       2.080   3.120  19.787  0.00  0.00    +0.000 NA
ATOM      3  C   UNL     1       2.707   4.013  20.761  0.00  0.00    +0.000 C 
ATOM      4  C   UNL     1       3.475   5.151  20.078  0.00  0.00    +0.000 C 
ATOM      5  N   UNL     1       2.572   6.126  19.452  0.00  0.00    +0.000 NA
ATOM      6  C   UNL     1       1.706   5.401  18.492  0.00  0.00    +0.000 C 
ATOM      7  C   UNL     1       1.345   3.890  18.758  0.00  0.00    +0.000 C 
BRANCH   5   8
ATOM      8  C   UNL     1       1.784   6.907  20.437  0.00  0.00    +0.000 C 
BRANCH   8   9
ATOM      9  C   UNL     1       1.527   8.354  20.028  0.00  0.00    +0.000 A 
ATOM     10  C   UNL     1       0.905   9.264  20.895  0.00  0.00    +0.000 A 
ATOM     11  C   UNL     1       0.526  10.537  20.448  0.00  0.00    +0.000 A 
ATOM     12  C   UNL     1       0.805  10.941  19.139  0.00  0.00    +0.000 A 
ATOM     13  C   UNL     1       0.263  12.235  18.597  0.00  0.00    +0.000 C 
ATOM     14  C   UNL     1       1.502  10.070  18.296  0.00  0.00    +0.000 A 
ATOM     15  C   UNL     1       1.870   8.796  18.741  0.00  0.00    +0.000 A 
ENDBRANCH   8   9
ENDBRANCH   5   8
ENDBRANCH   1   2
BRANCH   1  17
ATOM     16  N   UNL     1       4.592   3.020  17.601  0.00  0.00    +0.000 N 
ATOM     17  C   UNL     1       3.347   2.397  17.753  0.00  0.00    +0.000 C 
ATOM     18  O   UNL     1       2.602   2.085  16.828  0.00  0.00    +0.000 OA
ATOM     19  H   UNL     1       5.171   3.132  18.420  0.00  0.00    +0.000 HD
BRANCH  16  22
ATOM     20  C   UNL     1       4.985   5.611  16.388  0.00  0.00    +0.000 C 
ATOM     21  C   UNL     1       5.369   4.268  15.798  0.00  0.00    +0.000 C 
ATOM     22  N   UNL     1       5.156   3.111  16.361  0.00  0.00    +0.000 NA
BRANCH  21  23
ATOM     23  C   UNL     1       6.038   4.288  14.443  0.00  0.00    +0.000 A 
ATOM     24  C   UNL     1       5.562   3.530  13.369  0.00  0.00    +0.000 A 
ATOM     25  C   UNL     1       6.243   3.591  12.165  0.00  0.00    +0.000 A 
ATOM     26  N   UNL     1       7.340   4.342  11.959  0.00  0.00    +0.000 NA
ATOM     27  C   UNL     1       7.782   5.072  13.007  0.00  0.00    +0.000 A 
ATOM     28  C   UNL     1       7.174   5.079  14.251  0.00  0.00    +0.000 A 
ENDBRANCH  21  23
ENDBRANCH  16  22
ENDBRANCH   1  17
TORSDOF 6
ENDMDL
MODEL 7
REMARK VINA RESULT:      -6.9      6.224      8.442
REMARK  Name = 
REMARK  8 active torsions:
REMARK  status: ('A' for Active; 'I' for Inactive)
REMARK    1  A    between atoms: C_1  and  C_2
REMARK    2  A    between atoms: C_2  and  C_22
REMARK    3  A    between atoms: N_3  and  N_4
REMARK    4  A    between atoms: C_5  and  C_7
REMARK    5  A    between atoms: C_7  and  N_8
REMARK    6  A    between atoms: N_11  and  C_12
REMARK    7  A    between atoms: C_12  and  C_13
REMARK    8  A    between atoms: C_16  and  C_17
REMARK                            x       y       z     vdW  Elec       q    Type
REMARK                         _______ _______ _______ _____ _____    ______ ____
ROOT
ATOM      1  C   UNL     1       3.266   2.265  19.265  0.00  0.00    +0.000 C 
ENDROOT
BRANCH   1   2
ATOM      2  N   UNL     1       2.408   3.273  19.925  0.00  0.00    +0.000 NA
ATOM      3  C   UNL     1       3.152   4.290  20.669  0.00  0.00    +0.000 C 
ATOM      4  C   UNL     1       3.662   5.408  19.752  0.00  0.00    +0.000 C 
ATOM      5  N   UNL     1       2.571   6.261  19.265  0.00  0.00    +0.000 NA
ATOM      6  C   UNL     1       1.584   5.398  18.574  0.00  0.00    +0.000 C 
ATOM      7  C   UNL     1       1.412   3.898  19.025  0.00  0.00    +0.000 C 
BRANCH   5   8
ATOM      8  C   UNL     1       1.948   7.078  20.335  0.00  0.00    +0.000 C 
BRANCH   8   9
ATOM      9  C   UNL     1       1.434   8.436  19.870  0.00  0.00    +0.000 A 
ATOM     10  C   UNL     1       1.784   8.966  18.619  0.00  0.00    +0.000 A 
ATOM     11  C   UNL     1       1.442  10.281  18.275  0.00  0.00    +0.000 A 
ATOM     12  C   UNL     1       0.703  11.075  19.157  0.00  0.00    +0.000 A 
ATOM     13  C   UNL     1       0.469  12.533  18.874  0.00  0.00    +0.000 C 
ATOM     14  C   UNL     1       0.276  10.523  20.369  0.00  0.00    +0.000 A 
ATOM     15  C   UNL     1       0.627   9.214  20.715  0.00  0.00    +0.000 A 
ENDBRANCH   8   9
ENDBRANCH   5   8
ENDBRANCH   1   2
BRANCH   1  17
ATOM     16  N   UNL     1       4.548   3.357  17.468  0.00  0.00    +0.000 N 
ATOM     17  C   UNL     1       3.429   2.565  17.752  0.00  0.00    +0.000 C 
ATOM     18  O   UNL     1       2.654   2.120  16.910  0.00  0.00    +0.000 OA
ATOM     19  H   UNL     1       5.179   3.577  18.223  0.00  0.00    +0.000 HD
BRANCH  16  22
ATOM     20  C   UNL     1       6.901   4.926  16.881  0.00  0.00    +0.000 C 
ATOM     21  C   UNL     1       6.044   4.171  15.883  0.00  0.00    +0.000 C 
ATOM     22  N   UNL     1       4.972   3.490  16.177  0.00  0.00    +0.000 NA
BRANCH  21  23
ATOM     23  C   UNL     1       6.475   4.234  14.435  0.00  0.00    +0.000 A 
ATOM     24  C   UNL     1       5.915   3.404  13.459  0.00  0.00    +0.000 A 
ATOM     25  C   UNL     1       6.378   3.512  12.158  0.00  0.00    +0.000 A 
ATOM     26  N   UNL     1       7.334   4.375  11.769  0.00  0.00    +0.000 NA
ATOM     27  C   UNL     1       7.858   5.172  12.725  0.00  0.00    +0.000 A 
ATOM     28  C   UNL     1       7.467   5.140  14.054  0.00  0.00    +0.000 A 
ENDBRANCH  21  23
ENDBRANCH  16  22
ENDBRANCH   1  17
TORSDOF 6
ENDMDL
MODEL 8
REMARK VINA RESULT:      -6.9      7.497     10.297
REMARK  Name = 
REMARK  8 active torsions:
REMARK  status: ('A' for Active; 'I' for Inactive)
REMARK    1  A    between atoms: C_1  and  C_2
REMARK    2  A    between atoms: C_2  and  C_22
REMARK    3  A    between atoms: N_3  and  N_4
REMARK    4  A    between atoms: C_5  and  C_7
REMARK    5  A    between atoms: C_7  and  N_8
REMARK    6  A    between atoms: N_11  and  C_12
REMARK    7  A    between atoms: C_12  and  C_13
REMARK    8  A    between atoms: C_16  and  C_17
REMARK                            x       y       z     vdW  Elec       q    Type
REMARK                         _______ _______ _______ _____ _____    ______ ____
ROOT
ATOM      1  C   UNL     1       0.529   9.818  18.078  0.00  0.00    +0.000 C 
ENDROOT
BRANCH   1   2
ATOM      2  N   UNL     1       0.395  11.084  18.831  0.00  0.00    +0.000 NA
ATOM      3  C   UNL     1      -0.972  11.602  18.882  0.00  0.00    +0.000 C 
ATOM      4  C   UNL     1      -1.798  10.925  19.982  0.00  0.00    +0.000 C 
ATOM      5  N   UNL     1      -1.368  11.337  21.325  0.00  0.00    +0.000 NA
ATOM      6  C   UNL     1       0.075  11.031  21.461  0.00  0.00    +0.000 C 
ATOM      7  C   UNL     1       0.998  11.046  20.183  0.00  0.00    +0.000 C 
BRANCH   5   8
ATOM      8  C   UNL     1      -1.669  12.759  21.622  0.00  0.00    +0.000 C 
BRANCH   8   9
ATOM      9  C   UNL     1      -2.996  12.983  22.341  0.00  0.00    +0.000 A 
ATOM     10  C   UNL     1      -3.194  12.564  23.665  0.00  0.00    +0.000 A 
ATOM     11  C   UNL     1      -4.465  12.626  24.254  0.00  0.00    +0.000 A 
ATOM     12  C   UNL     1      -5.549  13.152  23.546  0.00  0.00    +0.000 A 
ATOM     13  C   UNL     1      -6.945  13.076  24.101  0.00  0.00    +0.000 C 
ATOM     14  C   UNL     1      -5.339  13.651  22.257  0.00  0.00    +0.000 A 
ATOM     15  C   UNL     1      -4.073  13.579  21.667  0.00  0.00    +0.000 A 
ENDBRANCH   8   9
ENDBRANCH   5   8
ENDBRANCH   1   2
BRANCH   1  17
ATOM     16  N   UNL     1       2.300   8.110  18.177  0.00  0.00    +0.000 N 
ATOM     17  C   UNL     1       2.019   9.444  17.862  0.00  0.00    +0.000 C 
ATOM     18  O   UNL     1       2.840  10.251  17.433  0.00  0.00    +0.000 OA
ATOM     19  H   UNL     1       1.529   7.505  18.417  0.00  0.00    +0.000 HD
BRANCH  16  22
ATOM     20  C   UNL     1       2.592   5.238  18.067  0.00  0.00    +0.000 C 
ATOM     21  C   UNL     1       3.647   6.270  17.715  0.00  0.00    +0.000 C 
ATOM     22  N   UNL     1       3.492   7.562  17.798  0.00  0.00    +0.000 NA
BRANCH  21  23
ATOM     23  C   UNL     1       4.983   5.741  17.245  0.00  0.00    +0.000 A 
ATOM     24  C   UNL     1       5.131   5.090  16.016  0.00  0.00    +0.000 A 
ATOM     25  C   UNL     1       6.386   4.619  15.666  0.00  0.00    +0.000 A 
ATOM     26  N   UNL     1       7.481   4.753  16.437  0.00  0.00    +0.000 NA
ATOM     27  C   UNL     1       7.318   5.389  17.617  0.00  0.00    +0.000 A 
ATOM     28  C   UNL     1       6.107   5.895  18.059  0.00  0.00    +0.000 A 
ENDBRANCH  21  23
ENDBRANCH  16  22
ENDBRANCH   1  17
TORSDOF 6
ENDMDL
MODEL 9
REMARK VINA RESULT:      -6.9      7.611     11.315
REMARK  Name = 
REMARK  8 active torsions:
REMARK  status: ('A' for Active; 'I' for Inactive)
REMARK    1  A    between atoms: C_1  and  C_2
REMARK    2  A    between atoms: C_2  and  C_22
REMARK    3  A    between atoms: N_3  and  N_4
REMARK    4  A    between atoms: C_5  and  C_7
REMARK    5  A    between atoms: C_7  and  N_8
REMARK    6  A    between atoms: N_11  and  C_12
REMARK    7  A    between atoms: C_12  and  C_13
REMARK    8  A    between atoms: C_16  and  C_17
REMARK                            x       y       z     vdW  Elec       q    Type
REMARK                         _______ _______ _______ _____ _____    ______ ____
ROOT
ATOM      1  C   UNL     1       1.516  10.350  18.660  0.00  0.00    +0.000 C 
ENDROOT
BRANCH   1   2
ATOM      2  N   UNL     1       0.532  10.087  19.733  0.00  0.00    +0.000 NA
ATOM      3  C   UNL     1       0.815  10.792  20.984  0.00  0.00    +0.000 C 
ATOM      4  C   UNL     1       0.308  12.238  20.950  0.00  0.00    +0.000 C 
ATOM      5  N   UNL     1      -1.159  12.308  20.998  0.00  0.00    +0.000 NA
ATOM      6  C   UNL     1      -1.695  11.516  19.866  0.00  0.00    +0.000 C 
ATOM      7  C   UNL     1      -0.876  10.285  19.320  0.00  0.00    +0.000 C 
BRANCH   5   8
ATOM      8  C   UNL     1      -1.720  11.873  22.301  0.00  0.00    +0.000 C 
BRANCH   8   9
ATOM      9  C   UNL     1      -3.077  12.485  22.635  0.00  0.00    +0.000 A 
ATOM     10  C   UNL     1      -3.764  13.295  21.719  0.00  0.00    +0.000 A 
ATOM     11  C   UNL     1      -4.925  13.982  22.100  0.00  0.00    +0.000 A 
ATOM     12  C   UNL     1      -5.445  13.836  23.388  0.00  0.00    +0.000 A 
ATOM     13  C   UNL     1      -6.590  14.688  23.862  0.00  0.00    +0.000 C 
ATOM     14  C   UNL     1      -4.814  12.962  24.279  0.00  0.00    +0.000 A 
ATOM     15  C   UNL     1      -3.650  12.285  23.901  0.00  0.00    +0.000 A 
ENDBRANCH   8   9
ENDBRANCH   5   8
ENDBRANCH   1   2
BRANCH   1  17
ATOM     16  N   UNL     1       2.213   8.031  19.103  0.00  0.00    +0.000 N 
ATOM     17  C   UNL     1       2.138   9.032  18.128  0.00  0.00    +0.000 C 
ATOM     18  O   UNL     1       2.497   8.903  16.962  0.00  0.00    +0.000 OA
ATOM     19  H   UNL     1       1.789   8.208  20.002  0.00  0.00    +0.000 HD
BRANCH  16  22
ATOM     20  C   UNL     1       1.538   5.846  20.868  0.00  0.00    +0.000 C 
ATOM     21  C   UNL     1       2.175   5.738  19.497  0.00  0.00    +0.000 C 
ATOM     22  N   UNL     1       2.491   6.746  18.733  0.00  0.00    +0.000 NA
BRANCH  21  23
ATOM     23  C   UNL     1       2.475   4.343  18.996  0.00  0.00    +0.000 A 
ATOM     24  C   UNL     1       1.740   3.231  19.418  0.00  0.00    +0.000 A 
ATOM     25  C   UNL     1       2.089   1.984  18.926  0.00  0.00    +0.000 A 
ATOM     26  N   UNL     1       3.096   1.774  18.058  0.00  0.00    +0.000 NA
ATOM     27  C   UNL     1       3.790   2.861  17.658  0.00  0.00    +0.000 A 
ATOM     28  C   UNL     1       3.521   4.149  18.092  0.00  0.00    +0.000 A 
ENDBRANCH  21  23
ENDBRANCH  16  22
ENDBRANCH   1  17
TORSDOF 6
ENDMDL
