MODEL 1
REMARK VINA RESULT:      -9.9      0.000      0.000
REMARK  Name = 
REMARK  6 active torsions:
REMARK  status: ('A' for Active; 'I' for Inactive)
REMARK    1  A    between atoms: C_2  and  C_3
REMARK    2  A    between atoms: C_3  and  C_4
REMARK    3  A    between atoms: C_4  and  C_5
REMARK    4  A    between atoms: C_5  and  C_6
REMARK    5  A    between atoms: C_5  and  C_13
REMARK    6  A    between atoms: N_30  and  C_31
REMARK                            x       y       z     vdW  Elec       q    Type
REMARK                         _______ _______ _______ _____ _____    ______ ____
ROOT
ATOM      1  O   UNL     1       1.865   8.841  17.786  0.00  0.00    +0.000 OA
ATOM      2  C   UNL     1       1.865   8.221  18.850  0.00  0.00    +0.000 C 
ATOM      3  N   UNL     1       2.085   6.853  18.905  0.00  0.00    +0.000 N 
ATOM      4  C   UNL     1       2.205   6.126  20.173  0.00  0.00    +0.000 C 
ATOM      5  C   UNL     1       1.894   4.654  20.058  0.00  0.00    +0.000 C 
ATOM      6  C   UNL     1       2.496   3.988  18.820  0.00  0.00    +0.000 C 
ATOM      7  C   UNL     1       2.194   4.779  17.553  0.00  0.00    +0.000 C 
ATOM      8  C   UNL     1       2.570   6.234  17.668  0.00  0.00    +0.000 C 
ATOM      9  C   UNL     1       1.742   2.649  18.670  0.00  0.00    +0.000 C 
ATOM     10  O   UNL     1       0.565   2.473  18.424  0.00  0.00    +0.000 OA
ATOM     11  N   UNL     1       2.635   1.638  18.906  0.00  0.00    +0.000 N 
ATOM     12  C   UNL     1       3.925   2.088  19.287  0.00  0.00    +0.000 C 
ATOM     13  N   UNL     1       3.909   3.524  19.019  0.00  0.00    +0.000 N 
ATOM     14  H   UNL     1       2.336   0.675  18.903  0.00  0.00    +0.000 HD
ENDROOT
BRANCH  13  15
ATOM     15  C   UNL     1       5.077   4.164  18.639  0.00  0.00    +0.000 A 
ATOM     16  C   UNL     1       5.774   5.045  19.483  0.00  0.00    +0.000 A 
ATOM     17  C   UNL     1       6.971   5.674  19.092  0.00  0.00    +0.000 A 
ATOM     18  C   UNL     1       7.532   5.421  17.848  0.00  0.00    +0.000 A 
ATOM     19  C   UNL     1       6.868   4.578  16.983  0.00  0.00    +0.000 A 
ATOM     20  C   UNL     1       5.649   4.001  17.371  0.00  0.00    +0.000 A 
ENDBRANCH  13  15
BRANCH   2  21
ATOM     21  C   UNL     1       1.627   8.920  20.178  0.00  0.00    +0.000 C 
BRANCH  21  22
ATOM     22  C   UNL     1       0.164   9.307  20.266  0.00  0.00    +0.000 C 
BRANCH  22  23
ATOM     23  C   UNL     1      -0.171  10.719  19.756  0.00  0.00    +0.000 C 
BRANCH  23  24
ATOM     24  C   UNL     1      -1.328  10.735  18.762  0.00  0.00    +0.000 A 
ATOM     25  C   UNL     1      -2.431  11.585  18.950  0.00  0.00    +0.000 A 
ATOM     26  C   UNL     1      -3.468  11.628  18.017  0.00  0.00    +0.000 A 
ATOM     27  C   UNL     1      -3.407  10.818  16.889  0.00  0.00    +0.000 A 
ATOM     28  F   UNL     1      -4.396  10.871  15.987  0.00  0.00    +0.000 F 
ATOM     29  C   UNL     1      -2.337   9.957  16.688  0.00  0.00    +0.000 A 
ATOM     30  C   UNL     1      -1.300   9.911  17.621  0.00  0.00    +0.000 A 
ENDBRANCH  23  24
BRANCH  23  31
ATOM     31  C   UNL     1      -0.414  11.661  20.939  0.00  0.00    +0.000 A 
ATOM     32  C   UNL     1      -1.135  11.204  22.055  0.00  0.00    +0.000 A 
ATOM     33  C   UNL     1      -1.400  12.063  23.124  0.00  0.00    +0.000 A 
ATOM     34  C   UNL     1      -0.944  13.376  23.085  0.00  0.00    +0.000 A 
ATOM     35  F   UNL     1      -1.214  14.200  24.106  0.00  0.00    +0.000 F 
ATOM     36  C   UNL     1      -0.217  13.848  22.007  0.00  0.00    +0.000 A 
ATOM     37  C   UNL     1       0.058  12.992  20.945  0.00  0.00    +0.000 A 
ENDBRANCH  23  31
ENDBRANCH  22  23
ENDBRANCH  21  22
ENDBRANCH   2  21
TORSDOF 6
ENDMDL
MODEL 2
REMARK VINA RESULT:      -9.8      0.090      1.131
REMARK  Name = 
REMARK  6 active torsions:
REMARK  status: ('A' for Active; 'I' for Inactive)
REMARK    1  A    between atoms: C_2  and  C_3
REMARK    2  A    between atoms: C_3  and  C_4
REMARK    3  A    between atoms: C_4  and  C_5
REMARK    4  A    between atoms: C_5  and  C_6
REMARK    5  A    between atoms: C_5  and  C_13
REMARK    6  A    between atoms: N_30  and  C_31
REMARK                            x       y       z     vdW  Elec       q    Type
REMARK                         _______ _______ _______ _____ _____    ______ ____
ROOT
ATOM      1  O   UNL     1       1.902   8.852  17.810  0.00  0.00    +0.000 OA
ATOM      2  C   UNL     1       1.900   8.227  18.871  0.00  0.00    +0.000 C 
ATOM      3  N   UNL     1       2.110   6.857  18.920  0.00  0.00    +0.000 N 
ATOM      4  C   UNL     1       2.228   6.125  20.183  0.00  0.00    +0.000 C 
ATOM      5  C   UNL     1       1.906   4.655  20.063  0.00  0.00    +0.000 C 
ATOM      6  C   UNL     1       2.499   3.990  18.821  0.00  0.00    +0.000 C 
ATOM      7  C   UNL     1       2.200   4.789  17.558  0.00  0.00    +0.000 C 
ATOM      8  C   UNL     1       2.587   6.241  17.678  0.00  0.00    +0.000 C 
ATOM      9  C   UNL     1       1.735   2.658  18.667  0.00  0.00    +0.000 C 
ATOM     10  O   UNL     1       0.556   2.491  18.424  0.00  0.00    +0.000 OA
ATOM     11  N   UNL     1       2.621   1.638  18.896  0.00  0.00    +0.000 N 
ATOM     12  C   UNL     1       3.916   2.078  19.276  0.00  0.00    +0.000 C 
ATOM     13  N   UNL     1       3.910   3.515  19.013  0.00  0.00    +0.000 N 
ATOM     14  H   UNL     1       2.315   0.678  18.890  0.00  0.00    +0.000 HD
ENDROOT
BRANCH  13  15
ATOM     15  C   UNL     1       5.081   4.148  18.633  0.00  0.00    +0.000 A 
ATOM     16  C   UNL     1       5.653   3.993  17.359  0.00  0.00    +0.000 A 
ATOM     17  C   UNL     1       6.835   4.657  16.978  0.00  0.00    +0.000 A 
ATOM     18  C   UNL     1       7.472   5.528  17.850  0.00  0.00    +0.000 A 
ATOM     19  C   UNL     1       6.953   5.691  19.117  0.00  0.00    +0.000 A 
ATOM     20  C   UNL     1       5.805   4.981  19.497  0.00  0.00    +0.000 A 
ENDBRANCH  13  15
BRANCH   2  21
ATOM     21  C   UNL     1       1.672   8.922  20.202  0.00  0.00    +0.000 C 
BRANCH  21  22
ATOM     22  C   UNL     1       0.210   9.312  20.300  0.00  0.00    +0.000 C 
BRANCH  22  23
ATOM     23  C   UNL     1      -0.133  10.709  19.756  0.00  0.00    +0.000 C 
BRANCH  23  24
ATOM     24  C   UNL     1      -1.270  10.691  18.740  0.00  0.00    +0.000 A 
ATOM     25  C   UNL     1      -2.428  11.465  18.936  0.00  0.00    +0.000 A 
ATOM     26  C   UNL     1      -3.449  11.479  17.985  0.00  0.00    +0.000 A 
ATOM     27  C   UNL     1      -3.317  10.715  16.830  0.00  0.00    +0.000 A 
ATOM     28  F   UNL     1      -4.291  10.742  15.910  0.00  0.00    +0.000 F 
ATOM     29  C   UNL     1      -2.192   9.931  16.619  0.00  0.00    +0.000 A 
ATOM     30  C   UNL     1      -1.171   9.913  17.571  0.00  0.00    +0.000 A 
ENDBRANCH  23  24
BRANCH  23  31
ATOM     31  C   UNL     1      -0.410  11.671  20.916  0.00  0.00    +0.000 A 
ATOM     32  C   UNL     1       0.087  12.983  20.864  0.00  0.00    +0.000 A 
ATOM     33  C   UNL     1      -0.123  13.860  21.932  0.00  0.00    +0.000 A 
ATOM     34  C   UNL     1      -0.830  13.432  23.049  0.00  0.00    +0.000 A 
ATOM     35  F   UNL     1      -1.016  14.271  24.077  0.00  0.00    +0.000 F 
ATOM     36  C   UNL     1      -1.346  12.150  23.120  0.00  0.00    +0.000 A 
ATOM     37  C   UNL     1      -1.148  11.277  22.055  0.00  0.00    +0.000 A 
ENDBRANCH  23  31
ENDBRANCH  22  23
ENDBRANCH  21  22
ENDBRANCH   2  21
TORSDOF 6
ENDMDL
MODEL 3
REMARK VINA RESULT:      -9.6      0.357      3.802
REMARK  Name = 
REMARK  6 active torsions:
REMARK  status: ('A' for Active; 'I' for Inactive)
REMARK    1  A    between atoms: C_2  and  C_3
REMARK    2  A    between atoms: C_3  and  C_4
REMARK    3  A    between atoms: C_4  and  C_5
REMARK    4  A    between atoms: C_5  and  C_6
REMARK    5  A    between atoms: C_5  and  C_13
REMARK    6  A    between atoms: N_30  and  C_31
REMARK                            x       y       z     vdW  Elec       q    Type
REMARK                         _______ _______ _______ _____ _____    ______ ____
ROOT
ATOM      1  O   UNL     1       1.967   8.796  17.472  0.00  0.00    +0.000 OA
ATOM      2  C   UNL     1       1.928   8.231  18.565  0.00  0.00    +0.000 C 
ATOM      3  N   UNL     1       2.155   6.870  18.699  0.00  0.00    +0.000 N 
ATOM      4  C   UNL     1       2.229   6.210  20.006  0.00  0.00    +0.000 C 
ATOM      5  C   UNL     1       1.932   4.731  19.954  0.00  0.00    +0.000 C 
ATOM      6  C   UNL     1       2.587   4.008  18.777  0.00  0.00    +0.000 C 
ATOM      7  C   UNL     1       2.331   4.730  17.460  0.00  0.00    +0.000 C 
ATOM      8  C   UNL     1       2.693   6.193  17.515  0.00  0.00    +0.000 C 
ATOM      9  C   UNL     1       1.848   2.657  18.666  0.00  0.00    +0.000 C 
ATOM     10  O   UNL     1       0.683   2.459  18.384  0.00  0.00    +0.000 OA
ATOM     11  N   UNL     1       2.738   1.666  18.989  0.00  0.00    +0.000 N 
ATOM     12  C   UNL     1       4.009   2.146  19.397  0.00  0.00    +0.000 C 
ATOM     13  N   UNL     1       3.995   3.567  19.055  0.00  0.00    +0.000 N 
ATOM     14  H   UNL     1       2.445   0.702  19.024  0.00  0.00    +0.000 HD
ENDROOT
BRANCH  13  15
ATOM     15  C   UNL     1       5.173   4.196  18.689  0.00  0.00    +0.000 A 
ATOM     16  C   UNL     1       5.845   5.103  19.526  0.00  0.00    +0.000 A 
ATOM     17  C   UNL     1       7.053   5.721  19.150  0.00  0.00    +0.000 A 
ATOM     18  C   UNL     1       7.649   5.432  17.931  0.00  0.00    +0.000 A 
ATOM     19  C   UNL     1       7.009   4.563  17.073  0.00  0.00    +0.000 A 
ATOM     20  C   UNL     1       5.780   3.996  17.443  0.00  0.00    +0.000 A 
ENDBRANCH  13  15
BRANCH   2  21
ATOM     21  C   UNL     1       1.634   8.995  19.845  0.00  0.00    +0.000 C 
BRANCH  21  22
ATOM     22  C   UNL     1       0.966  10.307  19.482  0.00  0.00    +0.000 C 
BRANCH  22  23
ATOM     23  C   UNL     1      -0.448  10.501  20.053  0.00  0.00    +0.000 C 
BRANCH  23  24
ATOM     24  C   UNL     1      -0.532  11.640  21.065  0.00  0.00    +0.000 A 
ATOM     25  C   UNL     1       0.133  12.858  20.840  0.00  0.00    +0.000 A 
ATOM     26  C   UNL     1       0.021  13.912  21.748  0.00  0.00    +0.000 A 
ATOM     27  C   UNL     1      -0.758  13.753  22.888  0.00  0.00    +0.000 A 
ATOM     28  F   UNL     1      -0.878  14.771  23.750  0.00  0.00    +0.000 F 
ATOM     29  C   UNL     1      -1.412  12.555  23.142  0.00  0.00    +0.000 A 
ATOM     30  C   UNL     1      -1.299  11.498  22.237  0.00  0.00    +0.000 A 
ENDBRANCH  23  24
BRANCH  23  31
ATOM     31  C   UNL     1      -1.457  10.668  18.913  0.00  0.00    +0.000 A 
ATOM     32  C   UNL     1      -1.279   9.951  17.718  0.00  0.00    +0.000 A 
ATOM     33  C   UNL     1      -2.168  10.123  16.653  0.00  0.00    +0.000 A 
ATOM     34  C   UNL     1      -3.235  11.005  16.779  0.00  0.00    +0.000 A 
ATOM     35  F   UNL     1      -4.076  11.177  15.750  0.00  0.00    +0.000 F 
ATOM     36  C   UNL     1      -3.444  11.711  17.950  0.00  0.00    +0.000 A 
ATOM     37  C   UNL     1      -2.567  11.535  19.016  0.00  0.00    +0.000 A 
ENDBRANCH  23  31
ENDBRANCH  22  23
ENDBRANCH  21  22
ENDBRANCH   2  21
TORSDOF 6
ENDMDL
MODEL 4
REMARK VINA RESULT:      -9.6      0.385      3.802
REMARK  Name = 
REMARK  6 active torsions:
REMARK  status: ('A' for Active; 'I' for Inactive)
REMARK    1  A    between atoms: C_2  and  C_3
REMARK    2  A    between atoms: C_3  and  C_4
REMARK    3  A    between atoms: C_4  and  C_5
REMARK    4  A    between atoms: C_5  and  C_6
REMARK    5  A    between atoms: C_5  and  C_13
REMARK    6  A    between atoms: N_30  and  C_31
REMARK                            x       y       z     vdW  Elec       q    Type
REMARK                         _______ _______ _______ _____ _____    ______ ____
ROOT
ATOM      1  O   UNL     1       1.905   8.815  17.405  0.00  0.00    +0.000 OA
ATOM      2  C   UNL     1       1.933   8.326  18.535  0.00  0.00    +0.000 C 
ATOM      3  N   UNL     1       2.169   6.976  18.747  0.00  0.00    +0.000 N 
ATOM      4  C   UNL     1       2.321   6.406  20.089  0.00  0.00    +0.000 C 
ATOM      5  C   UNL     1       2.023   4.928  20.156  0.00  0.00    +0.000 C 
ATOM      6  C   UNL     1       2.608   4.125  18.994  0.00  0.00    +0.000 C 
ATOM      7  C   UNL     1       2.273   4.757  17.648  0.00  0.00    +0.000 C 
ATOM      8  C   UNL     1       2.635   6.219  17.582  0.00  0.00    +0.000 C 
ATOM      9  C   UNL     1       1.865   2.772  19.019  0.00  0.00    +0.000 C 
ATOM     10  O   UNL     1       0.685   2.557  18.820  0.00  0.00    +0.000 OA
ATOM     11  N   UNL     1       2.774   1.802  19.355  0.00  0.00    +0.000 N 
ATOM     12  C   UNL     1       4.066   2.305  19.653  0.00  0.00    +0.000 C 
ATOM     13  N   UNL     1       4.030   3.699  19.216  0.00  0.00    +0.000 N 
ATOM     14  H   UNL     1       2.484   0.844  19.472  0.00  0.00    +0.000 HD
ENDROOT
BRANCH  13  15
ATOM     15  C   UNL     1       5.183   4.299  18.739  0.00  0.00    +0.000 A 
ATOM     16  C   UNL     1       5.930   5.222  19.490  0.00  0.00    +0.000 A 
ATOM     17  C   UNL     1       7.112   5.810  19.001  0.00  0.00    +0.000 A 
ATOM     18  C   UNL     1       7.607   5.472  17.749  0.00  0.00    +0.000 A 
ATOM     19  C   UNL     1       6.892   4.586  16.973  0.00  0.00    +0.000 A 
ATOM     20  C   UNL     1       5.689   4.049  17.457  0.00  0.00    +0.000 A 
ENDBRANCH  13  15
BRANCH   2  21
ATOM     21  C   UNL     1       1.714   9.175  19.775  0.00  0.00    +0.000 C 
BRANCH  21  22
ATOM     22  C   UNL     1       0.961  10.429  19.376  0.00  0.00    +0.000 C 
BRANCH  22  23
ATOM     23  C   UNL     1      -0.460  10.550  19.950  0.00  0.00    +0.000 C 
BRANCH  23  24
ATOM     24  C   UNL     1      -0.596  11.670  20.977  0.00  0.00    +0.000 A 
ATOM     25  C   UNL     1      -1.328  11.480  22.162  0.00  0.00    +0.000 A 
ATOM     26  C   UNL     1      -1.416  12.493  23.118  0.00  0.00    +0.000 A 
ATOM     27  C   UNL     1      -0.772  13.704  22.893  0.00  0.00    +0.000 A 
ATOM     28  F   UNL     1      -0.844  14.669  23.819  0.00  0.00    +0.000 F 
ATOM     29  C   UNL     1      -0.056  13.923  21.724  0.00  0.00    +0.000 A 
ATOM     30  C   UNL     1       0.031  12.912  20.765  0.00  0.00    +0.000 A 
ENDBRANCH  23  24
BRANCH  23  31
ATOM     31  C   UNL     1      -1.477  10.684  18.812  0.00  0.00    +0.000 A 
ATOM     32  C   UNL     1      -2.603  11.507  18.979  0.00  0.00    +0.000 A 
ATOM     33  C   UNL     1      -3.559  11.608  17.965  0.00  0.00    +0.000 A 
ATOM     34  C   UNL     1      -3.394  10.893  16.784  0.00  0.00    +0.000 A 
ATOM     35  F   UNL     1      -4.322  10.982  15.822  0.00  0.00    +0.000 F 
ATOM     36  C   UNL     1      -2.286  10.089  16.586  0.00  0.00    +0.000 A 
ATOM     37  C   UNL     1      -1.326   9.993  17.589  0.00  0.00    +0.000 A 
ENDBRANCH  23  31
ENDBRANCH  22  23
ENDBRANCH  21  22
ENDBRANCH   2  21
TORSDOF 6
ENDMDL
MODEL 5
REMARK VINA RESULT:      -9.6      2.047      2.921
REMARK  Name = 
REMARK  6 active torsions:
REMARK  status: ('A' for Active; 'I' for Inactive)
REMARK    1  A    between atoms: C_2  and  C_3
REMARK    2  A    between atoms: C_3  and  C_4
REMARK    3  A    between atoms: C_4  and  C_5
REMARK    4  A    between atoms: C_5  and  C_6
REMARK    5  A    between atoms: C_5  and  C_13
REMARK    6  A    between atoms: N_30  and  C_31
REMARK                            x       y       z     vdW  Elec       q    Type
REMARK                         _______ _______ _______ _____ _____    ______ ____
ROOT
ATOM      1  O   UNL     1       1.781   8.778  17.962  0.00  0.00    +0.000 OA
ATOM      2  C   UNL     1       1.808   8.124  19.005  0.00  0.00    +0.000 C 
ATOM      3  N   UNL     1       2.049   6.758  19.011  0.00  0.00    +0.000 N 
ATOM      4  C   UNL     1       2.200   5.993  20.252  0.00  0.00    +0.000 C 
ATOM      5  C   UNL     1       1.909   4.521  20.093  0.00  0.00    +0.000 C 
ATOM      6  C   UNL     1       2.500   3.904  18.825  0.00  0.00    +0.000 C 
ATOM      7  C   UNL     1       2.165   4.731  17.590  0.00  0.00    +0.000 C 
ATOM      8  C   UNL     1       2.522   6.188  17.746  0.00  0.00    +0.000 C 
ATOM      9  C   UNL     1       1.763   2.560  18.643  0.00  0.00    +0.000 C 
ATOM     10  O   UNL     1       0.585   2.374  18.411  0.00  0.00    +0.000 OA
ATOM     11  N   UNL     1       2.675   1.555  18.831  0.00  0.00    +0.000 N 
ATOM     12  C   UNL     1       3.964   2.012  19.206  0.00  0.00    +0.000 C 
ATOM     13  N   UNL     1       3.923   3.456  18.985  0.00  0.00    +0.000 N 
ATOM     14  H   UNL     1       2.389   0.589  18.802  0.00  0.00    +0.000 HD
ENDROOT
BRANCH  13  15
ATOM     15  C   UNL     1       5.075   4.125  18.608  0.00  0.00    +0.000 A 
ATOM     16  C   UNL     1       5.749   5.021  19.454  0.00  0.00    +0.000 A 
ATOM     17  C   UNL     1       6.931   5.681  19.066  0.00  0.00    +0.000 A 
ATOM     18  C   UNL     1       7.499   5.444  17.822  0.00  0.00    +0.000 A 
ATOM     19  C   UNL     1       6.856   4.588  16.954  0.00  0.00    +0.000 A 
ATOM     20  C   UNL     1       5.652   3.979  17.340  0.00  0.00    +0.000 A 
ENDBRANCH  13  15
BRANCH   2  21
ATOM     21  C   UNL     1       1.583   8.775  20.358  0.00  0.00    +0.000 C 
BRANCH  21  22
ATOM     22  C   UNL     1       0.446   9.771  20.233  0.00  0.00    +0.000 C 
BRANCH  22  23
ATOM     23  C   UNL     1       0.647  11.093  20.993  0.00  0.00    +0.000 C 
BRANCH  23  24
ATOM     24  C   UNL     1       1.415  12.135  20.186  0.00  0.00    +0.000 A 
ATOM     25  C   UNL     1       2.029  13.230  20.818  0.00  0.00    +0.000 A 
ATOM     26  C   UNL     1       2.766  14.159  20.082  0.00  0.00    +0.000 A 
ATOM     27  C   UNL     1       2.892  13.997  18.707  0.00  0.00    +0.000 A 
ATOM     28  F   UNL     1       3.613  14.882  18.005  0.00  0.00    +0.000 F 
ATOM     29  C   UNL     1       2.282  12.934  18.057  0.00  0.00    +0.000 A 
ATOM     30  C   UNL     1       1.542  12.005  18.790  0.00  0.00    +0.000 A 
ENDBRANCH  23  24
BRANCH  23  31
ATOM     31  C   UNL     1      -0.702  11.625  21.486  0.00  0.00    +0.000 A 
ATOM     32  C   UNL     1      -1.078  11.432  22.826  0.00  0.00    +0.000 A 
ATOM     33  C   UNL     1      -2.322  11.876  23.281  0.00  0.00    +0.000 A 
ATOM     34  C   UNL     1      -3.192  12.514  22.404  0.00  0.00    +0.000 A 
ATOM     35  F   UNL     1      -4.389  12.924  22.841  0.00  0.00    +0.000 F 
ATOM     36  C   UNL     1      -2.841  12.733  21.083  0.00  0.00    +0.000 A 
ATOM     37  C   UNL     1      -1.599  12.301  20.629  0.00  0.00    +0.000 A 
ENDBRANCH  23  31
ENDBRANCH  22  23
ENDBRANCH  21  22
ENDBRANCH   2  21
TORSDOF 6
ENDMDL
MODEL 6
REMARK VINA RESULT:      -9.5      4.171      9.389
REMARK  Name = 
REMARK  6 active torsions:
REMARK  status: ('A' for Active; 'I' for Inactive)
REMARK    1  A    between atoms: C_2  and  C_3
REMARK    2  A    between atoms: C_3  and  C_4
REMARK    3  A    between atoms: C_4  and  C_5
REMARK    4  A    between atoms: C_5  and  C_6
REMARK    5  A    between atoms: C_5  and  C_13
REMARK    6  A    between atoms: N_30  and  C_31
REMARK                            x       y       z     vdW  Elec       q    Type
REMARK                         _______ _______ _______ _____ _____    ______ ____
ROOT
ATOM      1  O   UNL     1       1.738   8.384  20.869  0.00  0.00    +0.000 OA
ATOM      2  C   UNL     1       1.312   8.905  19.839  0.00  0.00    +0.000 C 
ATOM      3  N   UNL     1       0.601  10.096  19.857  0.00  0.00    +0.000 N 
ATOM      4  C   UNL     1       0.193  10.786  18.629  0.00  0.00    +0.000 C 
ATOM      5  C   UNL     1      -0.987  11.708  18.817  0.00  0.00    +0.000 C 
ATOM      6  C   UNL     1      -0.921  12.548  20.093  0.00  0.00    +0.000 C 
ATOM      7  C   UNL     1      -0.611  11.692  21.315  0.00  0.00    +0.000 C 
ATOM      8  C   UNL     1       0.608  10.825  21.129  0.00  0.00    +0.000 C 
ATOM      9  C   UNL     1      -2.354  13.081  20.305  0.00  0.00    +0.000 C 
ATOM     10  O   UNL     1      -3.363  12.449  20.549  0.00  0.00    +0.000 OA
ATOM     11  N   UNL     1      -2.325  14.440  20.129  0.00  0.00    +0.000 N 
ATOM     12  C   UNL     1      -1.057  14.941  19.737  0.00  0.00    +0.000 C 
ATOM     13  N   UNL     1      -0.140  13.820  19.930  0.00  0.00    +0.000 N 
ATOM     14  H   UNL     1      -3.172  14.984  20.179  0.00  0.00    +0.000 HD
ENDROOT
BRANCH  13  15
ATOM     15  C   UNL     1       1.176  14.063  20.287  0.00  0.00    +0.000 A 
ATOM     16  C   UNL     1       1.543  14.584  21.539  0.00  0.00    +0.000 A 
ATOM     17  C   UNL     1       2.886  14.808  21.897  0.00  0.00    +0.000 A 
ATOM     18  C   UNL     1       3.916  14.491  21.023  0.00  0.00    +0.000 A 
ATOM     19  C   UNL     1       3.595  13.998  19.776  0.00  0.00    +0.000 A 
ATOM     20  C   UNL     1       2.249  13.829  19.418  0.00  0.00    +0.000 A 
ENDBRANCH  13  15
BRANCH   2  21
ATOM     21  C   UNL     1       1.543   8.278  18.475  0.00  0.00    +0.000 C 
BRANCH  21  22
ATOM     22  C   UNL     1       2.841   7.495  18.517  0.00  0.00    +0.000 C 
BRANCH  22  23
ATOM     23  C   UNL     1       2.768   6.075  17.932  0.00  0.00    +0.000 C 
BRANCH  23  24
ATOM     24  C   UNL     1       4.072   5.631  17.278  0.00  0.00    +0.000 A 
ATOM     25  C   UNL     1       4.230   4.320  16.796  0.00  0.00    +0.000 A 
ATOM     26  C   UNL     1       5.409   3.928  16.160  0.00  0.00    +0.000 A 
ATOM     27  C   UNL     1       6.440   4.848  16.006  0.00  0.00    +0.000 A 
ATOM     28  F   UNL     1       7.565   4.475  15.381  0.00  0.00    +0.000 F 
ATOM     29  C   UNL     1       6.316   6.144  16.487  0.00  0.00    +0.000 A 
ATOM     30  C   UNL     1       5.139   6.537  17.125  0.00  0.00    +0.000 A 
ENDBRANCH  23  24
BRANCH  23  31
ATOM     31  C   UNL     1       2.296   5.089  19.006  0.00  0.00    +0.000 A 
ATOM     32  C   UNL     1       1.352   4.102  18.676  0.00  0.00    +0.000 A 
ATOM     33  C   UNL     1       0.882   3.222  19.654  0.00  0.00    +0.000 A 
ATOM     34  C   UNL     1       1.352   3.321  20.958  0.00  0.00    +0.000 A 
ATOM     35  F   UNL     1       0.887   2.484  21.895  0.00  0.00    +0.000 F 
ATOM     36  C   UNL     1       2.294   4.273  21.307  0.00  0.00    +0.000 A 
ATOM     37  C   UNL     1       2.773   5.145  20.335  0.00  0.00    +0.000 A 
ENDBRANCH  23  31
ENDBRANCH  22  23
ENDBRANCH  21  22
ENDBRANCH   2  21
TORSDOF 6
ENDMDL
MODEL 7
REMARK VINA RESULT:      -9.5      4.184      9.462
REMARK  Name = 
REMARK  6 active torsions:
REMARK  status: ('A' for Active; 'I' for Inactive)
REMARK    1  A    between atoms: C_2  and  C_3
REMARK    2  A    between atoms: C_3  and  C_4
REMARK    3  A    between atoms: C_4  and  C_5
REMARK    4  A    between atoms: C_5  and  C_6
REMARK    5  A    between atoms: C_5  and  C_13
REMARK    6  A    between atoms: N_30  and  C_31
REMARK                            x       y       z     vdW  Elec       q    Type
REMARK                         _______ _______ _______ _____ _____    ______ ____
ROOT
ATOM      1  O   UNL     1       1.733   8.451  20.897  0.00  0.00    +0.000 OA
ATOM      2  C   UNL     1       1.315   8.976  19.864  0.00  0.00    +0.000 C 
ATOM      3  N   UNL     1       0.601  10.165  19.880  0.00  0.00    +0.000 N 
ATOM      4  C   UNL     1       0.203  10.859  18.652  0.00  0.00    +0.000 C 
ATOM      5  C   UNL     1      -0.982  11.776  18.833  0.00  0.00    +0.000 C 
ATOM      6  C   UNL     1      -0.931  12.611  20.113  0.00  0.00    +0.000 C 
ATOM      7  C   UNL     1      -0.631  11.750  21.334  0.00  0.00    +0.000 C 
ATOM      8  C   UNL     1       0.593  10.887  21.156  0.00  0.00    +0.000 C 
ATOM      9  C   UNL     1      -2.367  13.138  20.313  0.00  0.00    +0.000 C 
ATOM     10  O   UNL     1      -3.377  12.502  20.544  0.00  0.00    +0.000 OA
ATOM     11  N   UNL     1      -2.341  14.498  20.143  0.00  0.00    +0.000 N 
ATOM     12  C   UNL     1      -1.071  15.004  19.766  0.00  0.00    +0.000 C 
ATOM     13  N   UNL     1      -0.152  13.885  19.964  0.00  0.00    +0.000 N 
ATOM     14  H   UNL     1      -3.190  15.039  20.187  0.00  0.00    +0.000 HD
ENDROOT
BRANCH  13  15
ATOM     15  C   UNL     1       1.159  14.131  20.334  0.00  0.00    +0.000 A 
ATOM     16  C   UNL     1       2.254  13.847  19.501  0.00  0.00    +0.000 A 
ATOM     17  C   UNL     1       3.582  14.120  19.882  0.00  0.00    +0.000 A 
ATOM     18  C   UNL     1       3.861  14.716  21.103  0.00  0.00    +0.000 A 
ATOM     19  C   UNL     1       2.815  14.992  21.958  0.00  0.00    +0.000 A 
ATOM     20  C   UNL     1       1.503  14.665  21.583  0.00  0.00    +0.000 A 
ENDBRANCH  13  15
BRANCH   2  21
ATOM     21  C   UNL     1       1.562   8.356  18.500  0.00  0.00    +0.000 C 
BRANCH  21  22
ATOM     22  C   UNL     1       2.827   7.523  18.569  0.00  0.00    +0.000 C 
BRANCH  22  23
ATOM     23  C   UNL     1       2.719   6.116  17.958  0.00  0.00    +0.000 C 
BRANCH  23  24
ATOM     24  C   UNL     1       4.014   5.649  17.301  0.00  0.00    +0.000 A 
ATOM     25  C   UNL     1       4.190   4.307  16.922  0.00  0.00    +0.000 A 
ATOM     26  C   UNL     1       5.360   3.891  16.284  0.00  0.00    +0.000 A 
ATOM     27  C   UNL     1       6.362   4.819  16.022  0.00  0.00    +0.000 A 
ATOM     28  F   UNL     1       7.477   4.422  15.394  0.00  0.00    +0.000 F 
ATOM     29  C   UNL     1       6.220   6.147  16.399  0.00  0.00    +0.000 A 
ATOM     30  C   UNL     1       5.052   6.564  17.041  0.00  0.00    +0.000 A 
ENDBRANCH  23  24
BRANCH  23  31
ATOM     31  C   UNL     1       2.215   5.123  19.010  0.00  0.00    +0.000 A 
ATOM     32  C   UNL     1       2.662   5.231  20.337  0.00  0.00    +0.000 A 
ATOM     33  C   UNL     1       2.243   4.309  21.300  0.00  0.00    +0.000 A 
ATOM     34  C   UNL     1       1.379   3.280  20.943  0.00  0.00    +0.000 A 
ATOM     35  F   UNL     1       0.993   2.390  21.866  0.00  0.00    +0.000 F 
ATOM     36  C   UNL     1       0.910   3.160  19.646  0.00  0.00    +0.000 A 
ATOM     37  C   UNL     1       1.316   4.082  18.688  0.00  0.00    +0.000 A 
ENDBRANCH  23  31
ENDBRANCH  22  23
ENDBRANCH  21  22
ENDBRANCH   2  21
TORSDOF 6
ENDMDL
MODEL 8
REMARK VINA RESULT:      -9.5      2.046      3.013
REMARK  Name = 
REMARK  6 active torsions:
REMARK  status: ('A' for Active; 'I' for Inactive)
REMARK    1  A    between atoms: C_2  and  C_3
REMARK    2  A    between atoms: C_3  and  C_4
REMARK    3  A    between atoms: C_4  and  C_5
REMARK    4  A    between atoms: C_5  and  C_6
REMARK    5  A    between atoms: C_5  and  C_13
REMARK    6  A    between atoms: N_30  and  C_31
REMARK                            x       y       z     vdW  Elec       q    Type
REMARK                         _______ _______ _______ _____ _____    ______ ____
ROOT
ATOM      1  O   UNL     1       1.768   8.769  18.004  0.00  0.00    +0.000 OA
ATOM      2  C   UNL     1       1.800   8.110  19.043  0.00  0.00    +0.000 C 
ATOM      3  N   UNL     1       2.043   6.744  19.042  0.00  0.00    +0.000 N 
ATOM      4  C   UNL     1       2.201   5.973  20.278  0.00  0.00    +0.000 C 
ATOM      5  C   UNL     1       1.911   4.501  20.114  0.00  0.00    +0.000 C 
ATOM      6  C   UNL     1       2.498   3.892  18.840  0.00  0.00    +0.000 C 
ATOM      7  C   UNL     1       2.157   4.724  17.610  0.00  0.00    +0.000 C 
ATOM      8  C   UNL     1       2.512   6.181  17.772  0.00  0.00    +0.000 C 
ATOM      9  C   UNL     1       1.762   2.548  18.655  0.00  0.00    +0.000 C 
ATOM     10  O   UNL     1       0.583   2.361  18.426  0.00  0.00    +0.000 OA
ATOM     11  N   UNL     1       2.676   1.543  18.834  0.00  0.00    +0.000 N 
ATOM     12  C   UNL     1       3.966   2.000  19.206  0.00  0.00    +0.000 C 
ATOM     13  N   UNL     1       3.922   3.445  18.993  0.00  0.00    +0.000 N 
ATOM     14  H   UNL     1       2.392   0.576  18.801  0.00  0.00    +0.000 HD
ENDROOT
BRANCH  13  15
ATOM     15  C   UNL     1       5.072   4.118  18.614  0.00  0.00    +0.000 A 
ATOM     16  C   UNL     1       5.751   5.006  19.465  0.00  0.00    +0.000 A 
ATOM     17  C   UNL     1       6.930   5.670  19.074  0.00  0.00    +0.000 A 
ATOM     18  C   UNL     1       7.490   5.444  17.825  0.00  0.00    +0.000 A 
ATOM     19  C   UNL     1       6.842   4.595  16.953  0.00  0.00    +0.000 A 
ATOM     20  C   UNL     1       5.640   3.983  17.341  0.00  0.00    +0.000 A 
ENDBRANCH  13  15
BRANCH   2  21
ATOM     21  C   UNL     1       1.579   8.754  20.401  0.00  0.00    +0.000 C 
BRANCH  21  22
ATOM     22  C   UNL     1       0.411   9.715  20.296  0.00  0.00    +0.000 C 
BRANCH  22  23
ATOM     23  C   UNL     1       0.589  11.045  21.046  0.00  0.00    +0.000 C 
BRANCH  23  24
ATOM     24  C   UNL     1       1.344  12.093  20.234  0.00  0.00    +0.000 A 
ATOM     25  C   UNL     1       1.486  11.963  18.842  0.00  0.00    +0.000 A 
ATOM     26  C   UNL     1       2.142  12.944  18.095  0.00  0.00    +0.000 A 
ATOM     27  C   UNL     1       2.660  14.061  18.741  0.00  0.00    +0.000 A 
ATOM     28  F   UNL     1       3.274  15.010  18.021  0.00  0.00    +0.000 F 
ATOM     29  C   UNL     1       2.546  14.206  20.116  0.00  0.00    +0.000 A 
ATOM     30  C   UNL     1       1.894  13.225  20.865  0.00  0.00    +0.000 A 
ENDBRANCH  23  24
BRANCH  23  31
ATOM     31  C   UNL     1      -0.770  11.560  21.531  0.00  0.00    +0.000 A 
ATOM     32  C   UNL     1      -1.638  12.192  20.625  0.00  0.00    +0.000 A 
ATOM     33  C   UNL     1      -2.863  12.703  21.061  0.00  0.00    +0.000 A 
ATOM     34  C   UNL     1      -3.227  12.583  22.397  0.00  0.00    +0.000 A 
ATOM     35  F   UNL     1      -4.396  13.087  22.812  0.00  0.00    +0.000 F 
ATOM     36  C   UNL     1      -2.400  11.950  23.308  0.00  0.00    +0.000 A 
ATOM     37  C   UNL     1      -1.183  11.431  22.876  0.00  0.00    +0.000 A 
ENDBRANCH  23  31
ENDBRANCH  22  23
ENDBRANCH  21  22
ENDBRANCH   2  21
TORSDOF 6
ENDMDL
MODEL 9
REMARK VINA RESULT:      -9.4      1.589      3.906
REMARK  Name = 
REMARK  6 active torsions:
REMARK  status: ('A' for Active; 'I' for Inactive)
REMARK    1  A    between atoms: C_2  and  C_3
REMARK    2  A    between atoms: C_3  and  C_4
REMARK    3  A    between atoms: C_4  and  C_5
REMARK    4  A    between atoms: C_5  and  C_6
REMARK    5  A    between atoms: C_5  and  C_13
REMARK    6  A    between atoms: N_30  and  C_31
REMARK                            x       y       z     vdW  Elec       q    Type
REMARK                         _______ _______ _______ _____ _____    ______ ____
ROOT
ATOM      1  O   UNL     1       1.895   8.847  17.466  0.00  0.00    +0.000 OA
ATOM      2  C   UNL     1       1.947   8.350  18.591  0.00  0.00    +0.000 C 
ATOM      3  N   UNL     1       2.183   6.998  18.789  0.00  0.00    +0.000 N 
ATOM      4  C   UNL     1       2.365   6.418  20.123  0.00  0.00    +0.000 C 
ATOM      5  C   UNL     1       2.063   4.941  20.187  0.00  0.00    +0.000 C 
ATOM      6  C   UNL     1       2.617   4.143  19.006  0.00  0.00    +0.000 C 
ATOM      7  C   UNL     1       2.253   4.786  17.673  0.00  0.00    +0.000 C 
ATOM      8  C   UNL     1       2.619   6.247  17.608  0.00  0.00    +0.000 C 
ATOM      9  C   UNL     1       1.870   2.793  19.040  0.00  0.00    +0.000 C 
ATOM     10  O   UNL     1       0.685   2.584  18.868  0.00  0.00    +0.000 OA
ATOM     11  N   UNL     1       2.783   1.818  19.348  0.00  0.00    +0.000 N 
ATOM     12  C   UNL     1       4.084   2.314  19.618  0.00  0.00    +0.000 C 
ATOM     13  N   UNL     1       4.042   3.712  19.192  0.00  0.00    +0.000 N 
ATOM     14  H   UNL     1       2.493   0.860  19.465  0.00  0.00    +0.000 HD
ENDROOT
BRANCH  13  15
ATOM     15  C   UNL     1       5.186   4.311  18.692  0.00  0.00    +0.000 A 
ATOM     16  C   UNL     1       5.672   4.064  17.397  0.00  0.00    +0.000 A 
ATOM     17  C   UNL     1       6.826   4.695  16.893  0.00  0.00    +0.000 A 
ATOM     18  C   UNL     1       7.521   5.620  17.658  0.00  0.00    +0.000 A 
ATOM     19  C   UNL     1       7.087   5.874  18.943  0.00  0.00    +0.000 A 
ATOM     20  C   UNL     1       5.966   5.197  19.446  0.00  0.00    +0.000 A 
ENDBRANCH  13  15
BRANCH   2  21
ATOM     21  C   UNL     1       1.761   9.192  19.842  0.00  0.00    +0.000 C 
BRANCH  21  22
ATOM     22  C   UNL     1       0.276   9.345  20.106  0.00  0.00    +0.000 C 
BRANCH  22  23
ATOM     23  C   UNL     1      -0.272  10.774  19.955  0.00  0.00    +0.000 C 
BRANCH  23  24
ATOM     24  C   UNL     1       0.822  11.811  19.726  0.00  0.00    +0.000 A 
ATOM     25  C   UNL     1       1.271  12.114  18.428  0.00  0.00    +0.000 A 
ATOM     26  C   UNL     1       2.243  13.094  18.218  0.00  0.00    +0.000 A 
ATOM     27  C   UNL     1       2.773  13.775  19.308  0.00  0.00    +0.000 A 
ATOM     28  F   UNL     1       3.694  14.726  19.103  0.00  0.00    +0.000 F 
ATOM     29  C   UNL     1       2.359  13.485  20.600  0.00  0.00    +0.000 A 
ATOM     30  C   UNL     1       1.389  12.503  20.813  0.00  0.00    +0.000 A 
ENDBRANCH  23  24
BRANCH  23  31
ATOM     31  C   UNL     1      -1.343  10.813  18.861  0.00  0.00    +0.000 A 
ATOM     32  C   UNL     1      -2.420  11.708  18.974  0.00  0.00    +0.000 A 
ATOM     33  C   UNL     1      -3.426  11.727  18.005  0.00  0.00    +0.000 A 
ATOM     34  C   UNL     1      -3.360  10.859  16.921  0.00  0.00    +0.000 A 
ATOM     35  F   UNL     1      -4.334  10.871  16.003  0.00  0.00    +0.000 F 
ATOM     36  C   UNL     1      -2.301   9.979  16.775  0.00  0.00    +0.000 A 
ATOM     37  C   UNL     1      -1.293   9.963  17.733  0.00  0.00    +0.000 A 
ENDBRANCH  23  31
ENDBRANCH  22  23
ENDBRANCH  21  22
ENDBRANCH   2  21
TORSDOF 6
ENDMDL
