MODEL 1
REMARK VINA RESULT:      -8.4      0.000      0.000
REMARK  Name = 
REMARK  8 active torsions:
REMARK  status: ('A' for Active; 'I' for Inactive)
REMARK    1  A    between atoms: C_2  and  C_16
REMARK    2  A    between atoms: N_3  and  C_4
REMARK    3  A    between atoms: C_4  and  C_5
REMARK    4  A    between atoms: C_5  and  C_6
REMARK    5  A    between atoms: C_19  and  C_20
REMARK    6  A    between atoms: C_20  and  N_21
REMARK    7  A    between atoms: N_21  and  C_22
REMARK    8  A    between atoms: C_22  and  C_23
REMARK                            x       y       z     vdW  Elec       q    Type
REMARK                         _______ _______ _______ _____ _____    ______ ____
ROOT
ATOM      1  O   UNL     1       1.763   4.980  19.611  0.00  0.00    +0.000 OA
ATOM      2  C   UNL     1       2.519   5.908  19.346  0.00  0.00    +0.000 C 
ATOM      3  N   UNL     1       3.863   5.741  19.062  0.00  0.00    +0.000 N 
ATOM      4  H   UNL     1       4.466   6.552  19.090  0.00  0.00    +0.000 HD
ENDROOT
BRANCH   2   5
ATOM      5  C   UNL     1       2.025   7.319  19.334  0.00  0.00    +0.000 A 
ATOM      6  C   UNL     1       1.507   7.895  20.502  0.00  0.00    +0.000 A 
ATOM      7  C   UNL     1       1.069   9.232  20.491  0.00  0.00    +0.000 A 
ATOM      8  C   UNL     1       1.136  10.002  19.312  0.00  0.00    +0.000 A 
ATOM      9  C   UNL     1       1.623   9.409  18.155  0.00  0.00    +0.000 A 
ATOM     10  C   UNL     1       2.050   8.071  18.159  0.00  0.00    +0.000 A 
BRANCH   8  11
ATOM     11  C   UNL     1       0.734  11.489  19.354  0.00  0.00    +0.000 C 
BRANCH  11  12
ATOM     12  N   UNL     1       0.092  11.828  18.086  0.00  0.00    +0.000 NA
ATOM     13  H   UNL     1       0.224  11.051  17.445  0.00  0.00    +0.000 HD
BRANCH  12  14
ATOM     14  C   UNL     1      -1.320  12.212  18.100  0.00  0.00    +0.000 C 
BRANCH  14  15
ATOM     15  C   UNL     1      -2.176  10.904  18.165  0.00  0.00    +0.000 C 
ATOM     16  C   UNL     1      -3.692  11.157  18.212  0.00  0.00    +0.000 C 
ATOM     17  C   UNL     1      -4.221  11.650  16.868  0.00  0.00    +0.000 C 
ATOM     18  C   UNL     1      -4.032  10.565  15.816  0.00  0.00    +0.000 C 
ATOM     19  C   UNL     1      -2.564  10.167  15.695  0.00  0.00    +0.000 C 
ATOM     20  C   UNL     1      -1.888   9.877  17.041  0.00  0.00    +0.000 C 
ENDBRANCH  14  15
ENDBRANCH  12  14
ENDBRANCH  11  12
ENDBRANCH   8  11
ENDBRANCH   2   5
BRANCH   3  21
ATOM     21  C   UNL     1       4.478   4.421  19.086  0.00  0.00    +0.000 C 
BRANCH  21  22
ATOM     22  C   UNL     1       4.551   3.783  17.695  0.00  0.00    +0.000 C 
BRANCH  22  23
ATOM     23  C   UNL     1       5.732   4.243  16.892  0.00  0.00    +0.000 A 
ATOM     24  C   UNL     1       6.894   4.815  17.392  0.00  0.00    +0.000 A 
ATOM     25  N   UNL     1       7.707   5.132  16.340  0.00  0.00    +0.000 N 
ATOM     26  C   UNL     1       7.111   4.782  15.156  0.00  0.00    +0.000 A 
ATOM     27  C   UNL     1       7.569   4.927  13.839  0.00  0.00    +0.000 A 
ATOM     28  C   UNL     1       6.746   4.462  12.810  0.00  0.00    +0.000 A 
ATOM     29  C   UNL     1       5.519   3.872  13.095  0.00  0.00    +0.000 A 
ATOM     30 CL   UNL     1       4.531   3.295  11.804  0.00  0.00    +0.000 Cl
ATOM     31  C   UNL     1       5.069   3.736  14.414  0.00  0.00    +0.000 A 
ATOM     32  C   UNL     1       5.880   4.205  15.469  0.00  0.00    +0.000 A 
ATOM     33  H   UNL     1       8.618   5.563  16.417  0.00  0.00    +0.000 HD
ENDBRANCH  22  23
ENDBRANCH  21  22
ENDBRANCH   3  21
TORSDOF 8
ENDMDL
MODEL 2
REMARK VINA RESULT:      -8.3      2.417      3.041
REMARK  Name = 
REMARK  8 active torsions:
REMARK  status: ('A' for Active; 'I' for Inactive)
REMARK    1  A    between atoms: C_2  and  C_16
REMARK    2  A    between atoms: N_3  and  C_4
REMARK    3  A    between atoms: C_4  and  C_5
REMARK    4  A    between atoms: C_5  and  C_6
REMARK    5  A    between atoms: C_19  and  C_20
REMARK    6  A    between atoms: C_20  and  N_21
REMARK    7  A    between atoms: N_21  and  C_22
REMARK    8  A    between atoms: C_22  and  C_23
REMARK                            x       y       z     vdW  Elec       q    Type
REMARK                         _______ _______ _______ _____ _____    ______ ____
ROOT
ATOM      1  O   UNL     1       3.511   5.211  20.023  0.00  0.00    +0.000 OA
ATOM      2  C   UNL     1       2.905   5.646  19.051  0.00  0.00    +0.000 C 
ATOM      3  N   UNL     1       2.706   4.924  17.887  0.00  0.00    +0.000 N 
ATOM      4  H   UNL     1       2.415   5.421  17.056  0.00  0.00    +0.000 HD
ENDROOT
BRANCH   2   5
ATOM      5  C   UNL     1       2.345   7.033  19.056  0.00  0.00    +0.000 A 
ATOM      6  C   UNL     1       1.737   7.544  20.211  0.00  0.00    +0.000 A 
ATOM      7  C   UNL     1       1.237   8.859  20.219  0.00  0.00    +0.000 A 
ATOM      8  C   UNL     1       1.330   9.671  19.071  0.00  0.00    +0.000 A 
ATOM      9  C   UNL     1       1.908   9.142  17.924  0.00  0.00    +0.000 A 
ATOM     10  C   UNL     1       2.398   7.826  17.910  0.00  0.00    +0.000 A 
BRANCH   8  11
ATOM     11  C   UNL     1       0.856  11.135  19.138  0.00  0.00    +0.000 C 
BRANCH  11  12
ATOM     12  N   UNL     1      -0.533  11.150  19.592  0.00  0.00    +0.000 NA
ATOM     13  H   UNL     1      -0.580  11.688  20.452  0.00  0.00    +0.000 HD
BRANCH  12  14
ATOM     14  C   UNL     1      -1.565  11.619  18.667  0.00  0.00    +0.000 C 
BRANCH  14  15
ATOM     15  C   UNL     1      -2.384  10.376  18.186  0.00  0.00    +0.000 C 
ATOM     16  C   UNL     1      -3.906  10.598  18.191  0.00  0.00    +0.000 C 
ATOM     17  C   UNL     1      -4.340  11.541  17.073  0.00  0.00    +0.000 C 
ATOM     18  C   UNL     1      -4.035  10.905  15.723  0.00  0.00    +0.000 C 
ATOM     19  C   UNL     1      -2.550  10.574  15.593  0.00  0.00    +0.000 C 
ATOM     20  C   UNL     1      -1.977   9.821  16.799  0.00  0.00    +0.000 C 
ENDBRANCH  14  15
ENDBRANCH  12  14
ENDBRANCH  11  12
ENDBRANCH   8  11
ENDBRANCH   2   5
BRANCH   3  21
ATOM     21  C   UNL     1       3.240   3.579  17.738  0.00  0.00    +0.000 C 
BRANCH  21  22
ATOM     22  C   UNL     1       4.466   3.532  16.821  0.00  0.00    +0.000 C 
BRANCH  22  23
ATOM     23  C   UNL     1       5.129   4.867  16.648  0.00  0.00    +0.000 A 
ATOM     24  C   UNL     1       4.887   5.780  15.631  0.00  0.00    +0.000 A 
ATOM     25  N   UNL     1       5.719   6.850  15.804  0.00  0.00    +0.000 N 
ATOM     26  C   UNL     1       6.504   6.669  16.913  0.00  0.00    +0.000 A 
ATOM     27  C   UNL     1       7.496   7.494  17.461  0.00  0.00    +0.000 A 
ATOM     28  C   UNL     1       8.136   7.058  18.623  0.00  0.00    +0.000 A 
ATOM     29  C   UNL     1       7.789   5.845  19.211  0.00  0.00    +0.000 A 
ATOM     30 CL   UNL     1       8.588   5.339  20.654  0.00  0.00    +0.000 Cl
ATOM     31  C   UNL     1       6.800   5.026  18.653  0.00  0.00    +0.000 A 
ATOM     32  C   UNL     1       6.145   5.443  17.475  0.00  0.00    +0.000 A 
ATOM     33  H   UNL     1       5.755   7.663  15.203  0.00  0.00    +0.000 HD
ENDBRANCH  22  23
ENDBRANCH  21  22
ENDBRANCH   3  21
TORSDOF 8
ENDMDL
MODEL 3
REMARK VINA RESULT:      -8.2      4.728      8.575
REMARK  Name = 
REMARK  8 active torsions:
REMARK  status: ('A' for Active; 'I' for Inactive)
REMARK    1  A    between atoms: C_2  and  C_16
REMARK    2  A    between atoms: N_3  and  C_4
REMARK    3  A    between atoms: C_4  and  C_5
REMARK    4  A    between atoms: C_5  and  C_6
REMARK    5  A    between atoms: C_19  and  C_20
REMARK    6  A    between atoms: C_20  and  N_21
REMARK    7  A    between atoms: N_21  and  C_22
REMARK    8  A    between atoms: C_22  and  C_23
REMARK                            x       y       z     vdW  Elec       q    Type
REMARK                         _______ _______ _______ _____ _____    ______ ____
ROOT
ATOM      1  O   UNL     1       5.194   3.240  19.707  0.00  0.00    +0.000 OA
ATOM      2  C   UNL     1       5.245   3.805  18.621  0.00  0.00    +0.000 C 
ATOM      3  N   UNL     1       4.521   3.400  17.513  0.00  0.00    +0.000 N 
ATOM      4  H   UNL     1       4.789   3.756  16.606  0.00  0.00    +0.000 HD
ENDROOT
BRANCH   2   5
ATOM      5  C   UNL     1       6.136   4.989  18.414  0.00  0.00    +0.000 A 
ATOM      6  C   UNL     1       5.847   5.922  17.409  0.00  0.00    +0.000 A 
ATOM      7  C   UNL     1       6.673   7.048  17.238  0.00  0.00    +0.000 A 
ATOM      8  C   UNL     1       7.800   7.246  18.061  0.00  0.00    +0.000 A 
ATOM      9  C   UNL     1       8.092   6.298  19.033  0.00  0.00    +0.000 A 
ATOM     10  C   UNL     1       7.275   5.167  19.199  0.00  0.00    +0.000 A 
BRANCH   8  11
ATOM     11  C   UNL     1       8.633   8.533  17.909  0.00  0.00    +0.000 C 
BRANCH  11  12
ATOM     12  N   UNL     1       7.716   9.669  17.837  0.00  0.00    +0.000 NA
ATOM     13  H   UNL     1       6.934   9.486  18.459  0.00  0.00    +0.000 HD
BRANCH  12  14
ATOM     14  C   UNL     1       8.243  11.009  18.099  0.00  0.00    +0.000 C 
BRANCH  14  15
ATOM     15  C   UNL     1       9.674  10.854  18.711  0.00  0.00    +0.000 C 
ATOM     16  C   UNL     1      10.755  11.659  17.970  0.00  0.00    +0.000 C 
ATOM     17  C   UNL     1      10.613  13.157  18.225  0.00  0.00    +0.000 C 
ATOM     18  C   UNL     1      10.844  13.448  19.702  0.00  0.00    +0.000 C 
ATOM     19  C   UNL     1       9.866  12.665  20.575  0.00  0.00    +0.000 C 
ATOM     20  C   UNL     1       9.777  11.176  20.223  0.00  0.00    +0.000 C 
ENDBRANCH  14  15
ENDBRANCH  12  14
ENDBRANCH  11  12
ENDBRANCH   8  11
ENDBRANCH   2   5
BRANCH   3  21
ATOM     21  C   UNL     1       3.651   2.235  17.570  0.00  0.00    +0.000 C 
BRANCH  21  22
ATOM     22  C   UNL     1       2.175   2.611  17.735  0.00  0.00    +0.000 C 
BRANCH  22  23
ATOM     23  C   UNL     1       1.902   3.411  18.976  0.00  0.00    +0.000 A 
ATOM     24  C   UNL     1       1.492   2.909  20.203  0.00  0.00    +0.000 A 
ATOM     25  N   UNL     1       1.312   3.959  21.060  0.00  0.00    +0.000 N 
ATOM     26  C   UNL     1       1.597   5.143  20.430  0.00  0.00    +0.000 A 
ATOM     27  C   UNL     1       1.543   6.458  20.913  0.00  0.00    +0.000 A 
ATOM     28  C   UNL     1       1.906   7.486  20.040  0.00  0.00    +0.000 A 
ATOM     29  C   UNL     1       2.311   7.203  18.739  0.00  0.00    +0.000 A 
ATOM     30 CL   UNL     1       2.767   8.493  17.689  0.00  0.00    +0.000 Cl
ATOM     31  C   UNL     1       2.357   5.886  18.265  0.00  0.00    +0.000 A 
ATOM     32  C   UNL     1       1.988   4.831  19.127  0.00  0.00    +0.000 A 
ATOM     33  H   UNL     1       1.014   3.880  22.023  0.00  0.00    +0.000 HD
ENDBRANCH  22  23
ENDBRANCH  21  22
ENDBRANCH   3  21
TORSDOF 8
ENDMDL
MODEL 4
REMARK VINA RESULT:      -8.1      2.661      9.551
REMARK  Name = 
REMARK  8 active torsions:
REMARK  status: ('A' for Active; 'I' for Inactive)
REMARK    1  A    between atoms: C_2  and  C_16
REMARK    2  A    between atoms: N_3  and  C_4
REMARK    3  A    between atoms: C_4  and  C_5
REMARK    4  A    between atoms: C_5  and  C_6
REMARK    5  A    between atoms: C_19  and  C_20
REMARK    6  A    between atoms: C_20  and  N_21
REMARK    7  A    between atoms: N_21  and  C_22
REMARK    8  A    between atoms: C_22  and  C_23
REMARK                            x       y       z     vdW  Elec       q    Type
REMARK                         _______ _______ _______ _____ _____    ______ ____
ROOT
ATOM      1  O   UNL     1       1.551   8.487  21.978  0.00  0.00    +0.000 OA
ATOM      2  C   UNL     1       1.485   8.252  20.777  0.00  0.00    +0.000 C 
ATOM      3  N   UNL     1       1.004   9.157  19.847  0.00  0.00    +0.000 N 
ATOM      4  H   UNL     1       0.758   8.816  18.927  0.00  0.00    +0.000 HD
ENDROOT
BRANCH   2   5
ATOM      5  C   UNL     1       1.913   6.927  20.231  0.00  0.00    +0.000 A 
ATOM      6  C   UNL     1       2.584   6.854  19.002  0.00  0.00    +0.000 A 
ATOM      7  C   UNL     1       3.008   5.608  18.507  0.00  0.00    +0.000 A 
ATOM      8  C   UNL     1       2.758   4.424  19.228  0.00  0.00    +0.000 A 
ATOM      9  C   UNL     1       2.067   4.507  20.430  0.00  0.00    +0.000 A 
ATOM     10  C   UNL     1       1.631   5.748  20.922  0.00  0.00    +0.000 A 
BRANCH   8  11
ATOM     11  C   UNL     1       3.315   3.085  18.705  0.00  0.00    +0.000 C 
BRANCH  11  12
ATOM     12  N   UNL     1       4.600   3.342  18.060  0.00  0.00    +0.000 NA
ATOM     13  H   UNL     1       5.240   2.597  18.320  0.00  0.00    +0.000 HD
BRANCH  12  14
ATOM     14  C   UNL     1       4.629   3.523  16.608  0.00  0.00    +0.000 C 
BRANCH  14  15
ATOM     15  C   UNL     1       5.999   4.179  16.231  0.00  0.00    +0.000 C 
ATOM     16  C   UNL     1       5.868   5.385  15.285  0.00  0.00    +0.000 C 
ATOM     17  C   UNL     1       5.279   6.598  16.000  0.00  0.00    +0.000 C 
ATOM     18  C   UNL     1       6.232   7.055  17.097  0.00  0.00    +0.000 C 
ATOM     19  C   UNL     1       6.502   5.931  18.094  0.00  0.00    +0.000 C 
ATOM     20  C   UNL     1       6.878   4.598  17.435  0.00  0.00    +0.000 C 
ENDBRANCH  14  15
ENDBRANCH  12  14
ENDBRANCH  11  12
ENDBRANCH   8  11
ENDBRANCH   2   5
BRANCH   3  21
ATOM     21  C   UNL     1       0.515  10.465  20.254  0.00  0.00    +0.000 C 
BRANCH  21  22
ATOM     22  C   UNL     1       0.136  11.348  19.062  0.00  0.00    +0.000 C 
BRANCH  22  23
ATOM     23  C   UNL     1      -1.325  11.688  19.014  0.00  0.00    +0.000 A 
ATOM     24  C   UNL     1      -2.058  12.306  20.017  0.00  0.00    +0.000 A 
ATOM     25  N   UNL     1      -3.359  12.400  19.606  0.00  0.00    +0.000 N 
ATOM     26  C   UNL     1      -3.502  11.861  18.354  0.00  0.00    +0.000 A 
ATOM     27  C   UNL     1      -4.646  11.734  17.553  0.00  0.00    +0.000 A 
ATOM     28  C   UNL     1      -4.495  11.146  16.294  0.00  0.00    +0.000 A 
ATOM     29  C   UNL     1      -3.247  10.711  15.859  0.00  0.00    +0.000 A 
ATOM     30 CL   UNL     1      -3.091  10.002  14.295  0.00  0.00    +0.000 Cl
ATOM     31  C   UNL     1      -2.113  10.839  16.669  0.00  0.00    +0.000 A 
ATOM     32  C   UNL     1      -2.242  11.423  17.947  0.00  0.00    +0.000 A 
ATOM     33  H   UNL     1      -4.111  12.809  20.144  0.00  0.00    +0.000 HD
ENDBRANCH  22  23
ENDBRANCH  21  22
ENDBRANCH   3  21
TORSDOF 8
ENDMDL
MODEL 5
REMARK VINA RESULT:      -8.1      4.499     10.191
REMARK  Name = 
REMARK  8 active torsions:
REMARK  status: ('A' for Active; 'I' for Inactive)
REMARK    1  A    between atoms: C_2  and  C_16
REMARK    2  A    between atoms: N_3  and  C_4
REMARK    3  A    between atoms: C_4  and  C_5
REMARK    4  A    between atoms: C_5  and  C_6
REMARK    5  A    between atoms: C_19  and  C_20
REMARK    6  A    between atoms: C_20  and  N_21
REMARK    7  A    between atoms: N_21  and  C_22
REMARK    8  A    between atoms: C_22  and  C_23
REMARK                            x       y       z     vdW  Elec       q    Type
REMARK                         _______ _______ _______ _____ _____    ______ ____
ROOT
ATOM      1  O   UNL     1       2.125   9.539  17.258  0.00  0.00    +0.000 OA
ATOM      2  C   UNL     1       1.963   8.768  18.196  0.00  0.00    +0.000 C 
ATOM      3  N   UNL     1       0.941   8.894  19.121  0.00  0.00    +0.000 N 
ATOM      4  H   UNL     1       1.009   8.378  19.988  0.00  0.00    +0.000 HD
ENDROOT
BRANCH   2   5
ATOM      5  C   UNL     1       2.900   7.624  18.419  0.00  0.00    +0.000 A 
ATOM      6  C   UNL     1       3.898   7.336  17.478  0.00  0.00    +0.000 A 
ATOM      7  C   UNL     1       4.794   6.276  17.706  0.00  0.00    +0.000 A 
ATOM      8  C   UNL     1       4.695   5.488  18.870  0.00  0.00    +0.000 A 
ATOM      9  C   UNL     1       3.683   5.765  19.780  0.00  0.00    +0.000 A 
ATOM     10  C   UNL     1       2.780   6.816  19.550  0.00  0.00    +0.000 A 
BRANCH   8  11
ATOM     11  C   UNL     1       5.746   4.393  19.136  0.00  0.00    +0.000 C 
BRANCH  11  12
ATOM     12  N   UNL     1       5.153   3.098  18.810  0.00  0.00    +0.000 NA
ATOM     13  H   UNL     1       5.906   2.442  18.624  0.00  0.00    +0.000 HD
BRANCH  12  14
ATOM     14  C   UNL     1       4.212   2.501  19.759  0.00  0.00    +0.000 C 
BRANCH  14  15
ATOM     15  C   UNL     1       3.054   1.840  18.941  0.00  0.00    +0.000 C 
ATOM     16  C   UNL     1       1.672   1.979  19.601  0.00  0.00    +0.000 C 
ATOM     17  C   UNL     1       1.152   3.411  19.520  0.00  0.00    +0.000 C 
ATOM     18  C   UNL     1       0.937   3.795  18.062  0.00  0.00    +0.000 C 
ATOM     19  C   UNL     1       2.228   3.652  17.260  0.00  0.00    +0.000 C 
ATOM     20  C   UNL     1       2.941   2.311  17.470  0.00  0.00    +0.000 C 
ENDBRANCH  14  15
ENDBRANCH  12  14
ENDBRANCH  11  12
ENDBRANCH   8  11
ENDBRANCH   2   5
BRANCH   3  21
ATOM     21  C   UNL     1      -0.012   9.992  19.042  0.00  0.00    +0.000 C 
BRANCH  21  22
ATOM     22  C   UNL     1       0.355  11.155  19.968  0.00  0.00    +0.000 C 
BRANCH  22  23
ATOM     23  C   UNL     1      -0.392  11.138  21.269  0.00  0.00    +0.000 A 
ATOM     24  C   UNL     1      -0.149  10.296  22.346  0.00  0.00    +0.000 A 
ATOM     25  N   UNL     1      -1.070  10.564  23.321  0.00  0.00    +0.000 N 
ATOM     26  C   UNL     1      -1.913  11.566  22.916  0.00  0.00    +0.000 A 
ATOM     27  C   UNL     1      -2.999  12.154  23.579  0.00  0.00    +0.000 A 
ATOM     28  C   UNL     1      -3.683  13.180  22.924  0.00  0.00    +0.000 A 
ATOM     29  C   UNL     1      -3.289  13.600  21.658  0.00  0.00    +0.000 A 
ATOM     30 CL   UNL     1      -4.145  14.879  20.879  0.00  0.00    +0.000 Cl
ATOM     31  C   UNL     1      -2.205  13.004  21.002  0.00  0.00    +0.000 A 
ATOM     32  C   UNL     1      -1.503  11.960  21.641  0.00  0.00    +0.000 A 
ATOM     33  H   UNL     1      -1.124  10.096  24.215  0.00  0.00    +0.000 HD
ENDBRANCH  22  23
ENDBRANCH  21  22
ENDBRANCH   3  21
TORSDOF 8
ENDMDL
MODEL 6
REMARK VINA RESULT:      -8.1      6.249      8.609
REMARK  Name = 
REMARK  8 active torsions:
REMARK  status: ('A' for Active; 'I' for Inactive)
REMARK    1  A    between atoms: C_2  and  C_16
REMARK    2  A    between atoms: N_3  and  C_4
REMARK    3  A    between atoms: C_4  and  C_5
REMARK    4  A    between atoms: C_5  and  C_6
REMARK    5  A    between atoms: C_19  and  C_20
REMARK    6  A    between atoms: C_20  and  N_21
REMARK    7  A    between atoms: N_21  and  C_22
REMARK    8  A    between atoms: C_22  and  C_23
REMARK                            x       y       z     vdW  Elec       q    Type
REMARK                         _______ _______ _______ _____ _____    ______ ____
ROOT
ATOM      1  O   UNL     1       7.515   7.966  16.946  0.00  0.00    +0.000 OA
ATOM      2  C   UNL     1       8.090   8.167  18.009  0.00  0.00    +0.000 C 
ATOM      3  N   UNL     1       8.336   7.177  18.944  0.00  0.00    +0.000 N 
ATOM      4  H   UNL     1       8.592   7.453  19.883  0.00  0.00    +0.000 HD
ENDROOT
BRANCH   2   5
ATOM      5  C   UNL     1       8.555   9.539  18.382  0.00  0.00    +0.000 A 
ATOM      6  C   UNL     1       8.317  10.621  17.523  0.00  0.00    +0.000 A 
ATOM      7  C   UNL     1       8.732  11.914  17.892  0.00  0.00    +0.000 A 
ATOM      8  C   UNL     1       9.396  12.135  19.115  0.00  0.00    +0.000 A 
ATOM      9  C   UNL     1       9.652  11.049  19.942  0.00  0.00    +0.000 A 
ATOM     10  C   UNL     1       9.249   9.756  19.572  0.00  0.00    +0.000 A 
BRANCH   8  11
ATOM     11  C   UNL     1       9.757  13.574  19.532  0.00  0.00    +0.000 C 
BRANCH  11  12
ATOM     12  N   UNL     1       8.715  14.069  20.428  0.00  0.00    +0.000 NA
ATOM     13  H   UNL     1       7.892  13.484  20.312  0.00  0.00    +0.000 HD
BRANCH  12  14
ATOM     14  C   UNL     1       9.022  14.198  21.853  0.00  0.00    +0.000 C 
BRANCH  14  15
ATOM     15  C   UNL     1       7.709  13.920  22.657  0.00  0.00    +0.000 C 
ATOM     16  C   UNL     1       7.329  12.431  22.726  0.00  0.00    +0.000 C 
ATOM     17  C   UNL     1       8.268  11.654  23.643  0.00  0.00    +0.000 C 
ATOM     18  C   UNL     1       8.127  12.166  25.070  0.00  0.00    +0.000 C 
ATOM     19  C   UNL     1       8.424  13.661  25.149  0.00  0.00    +0.000 C 
ATOM     20  C   UNL     1       7.687  14.495  24.095  0.00  0.00    +0.000 C 
ENDBRANCH  14  15
ENDBRANCH  12  14
ENDBRANCH  11  12
ENDBRANCH   8  11
ENDBRANCH   2   5
BRANCH   3  21
ATOM     21  C   UNL     1       7.894   5.808  18.722  0.00  0.00    +0.000 C 
BRANCH  21  22
ATOM     22  C   UNL     1       6.489   5.548  19.274  0.00  0.00    +0.000 C 
BRANCH  22  23
ATOM     23  C   UNL     1       5.577   4.882  18.286  0.00  0.00    +0.000 A 
ATOM     24  C   UNL     1       5.830   4.687  16.935  0.00  0.00    +0.000 A 
ATOM     25  N   UNL     1       4.739   4.084  16.373  0.00  0.00    +0.000 N 
ATOM     26  C   UNL     1       3.772   3.872  17.321  0.00  0.00    +0.000 A 
ATOM     27  C   UNL     1       2.499   3.297  17.199  0.00  0.00    +0.000 A 
ATOM     28  C   UNL     1       1.718   3.195  18.352  0.00  0.00    +0.000 A 
ATOM     29  C   UNL     1       2.199   3.647  19.577  0.00  0.00    +0.000 A 
ATOM     30 CL   UNL     1       1.216   3.495  20.986  0.00  0.00    +0.000 Cl
ATOM     31  C   UNL     1       3.470   4.224  19.688  0.00  0.00    +0.000 A 
ATOM     32  C   UNL     1       4.274   4.345  18.535  0.00  0.00    +0.000 A 
ATOM     33  H   UNL     1       4.653   3.827  15.400  0.00  0.00    +0.000 HD
ENDBRANCH  22  23
ENDBRANCH  21  22
ENDBRANCH   3  21
TORSDOF 8
ENDMDL
MODEL 7
REMARK VINA RESULT:      -8.0      6.477      9.391
REMARK  Name = 
REMARK  8 active torsions:
REMARK  status: ('A' for Active; 'I' for Inactive)
REMARK    1  A    between atoms: C_2  and  C_16
REMARK    2  A    between atoms: N_3  and  C_4
REMARK    3  A    between atoms: C_4  and  C_5
REMARK    4  A    between atoms: C_5  and  C_6
REMARK    5  A    between atoms: C_19  and  C_20
REMARK    6  A    between atoms: C_20  and  N_21
REMARK    7  A    between atoms: N_21  and  C_22
REMARK    8  A    between atoms: C_22  and  C_23
REMARK                            x       y       z     vdW  Elec       q    Type
REMARK                         _______ _______ _______ _____ _____    ______ ____
ROOT
ATOM      1  O   UNL     1       7.845  10.265  17.464  0.00  0.00    +0.000 OA
ATOM      2  C   UNL     1       8.248   9.335  18.152  0.00  0.00    +0.000 C 
ATOM      3  N   UNL     1       9.226   9.469  19.121  0.00  0.00    +0.000 N 
ATOM      4  H   UNL     1       9.671   8.632  19.475  0.00  0.00    +0.000 HD
ENDROOT
BRANCH   2   5
ATOM      5  C   UNL     1       7.705   7.954  17.966  0.00  0.00    +0.000 A 
ATOM      6  C   UNL     1       8.208   6.890  18.728  0.00  0.00    +0.000 A 
ATOM      7  C   UNL     1       7.674   5.598  18.569  0.00  0.00    +0.000 A 
ATOM      8  C   UNL     1       6.642   5.355  17.641  0.00  0.00    +0.000 A 
ATOM      9  C   UNL     1       6.173   6.412  16.871  0.00  0.00    +0.000 A 
ATOM     10  C   UNL     1       6.712   7.701  17.020  0.00  0.00    +0.000 A 
BRANCH   8  11
ATOM     11  C   UNL     1       6.016   3.950  17.554  0.00  0.00    +0.000 C 
BRANCH  11  12
ATOM     12  N   UNL     1       4.565   4.085  17.666  0.00  0.00    +0.000 NA
ATOM     13  H   UNL     1       4.221   4.530  16.821  0.00  0.00    +0.000 HD
BRANCH  12  14
ATOM     14  C   UNL     1       3.772   2.886  17.942  0.00  0.00    +0.000 C 
BRANCH  14  15
ATOM     15  C   UNL     1       2.260   3.273  17.837  0.00  0.00    +0.000 C 
ATOM     16  C   UNL     1       1.325   2.334  18.618  0.00  0.00    +0.000 C 
ATOM     17  C   UNL     1       1.456   2.536  20.124  0.00  0.00    +0.000 C 
ATOM     18  C   UNL     1       1.004   3.944  20.492  0.00  0.00    +0.000 C 
ATOM     19  C   UNL     1       1.817   4.996  19.741  0.00  0.00    +0.000 C 
ATOM     20  C   UNL     1       1.929   4.732  18.235  0.00  0.00    +0.000 C 
ENDBRANCH  14  15
ENDBRANCH  12  14
ENDBRANCH  11  12
ENDBRANCH   8  11
ENDBRANCH   2   5
BRANCH   3  21
ATOM     21  C   UNL     1       9.867  10.752  19.370  0.00  0.00    +0.000 C 
BRANCH  21  22
ATOM     22  C   UNL     1      10.670  11.249  18.164  0.00  0.00    +0.000 C 
BRANCH  22  23
ATOM     23  C   UNL     1      10.794  12.744  18.109  0.00  0.00    +0.000 A 
ATOM     24  C   UNL     1      11.975  13.473  18.154  0.00  0.00    +0.000 A 
ATOM     25  N   UNL     1      11.663  14.803  18.121  0.00  0.00    +0.000 N 
ATOM     26  C   UNL     1      10.304  14.972  18.052  0.00  0.00    +0.000 A 
ATOM     27  C   UNL     1       9.542  16.148  18.007  0.00  0.00    +0.000 A 
ATOM     28  C   UNL     1       8.153  16.020  17.925  0.00  0.00    +0.000 A 
ATOM     29  C   UNL     1       7.558  14.763  17.884  0.00  0.00    +0.000 A 
ATOM     30 CL   UNL     1       5.842  14.637  17.768  0.00  0.00    +0.000 Cl
ATOM     31  C   UNL     1       8.328  13.595  17.933  0.00  0.00    +0.000 A 
ATOM     32  C   UNL     1       9.732  13.699  18.024  0.00  0.00    +0.000 A 
ATOM     33  H   UNL     1      12.333  15.559  18.143  0.00  0.00    +0.000 HD
ENDBRANCH  22  23
ENDBRANCH  21  22
ENDBRANCH   3  21
TORSDOF 8
ENDMDL
MODEL 8
REMARK VINA RESULT:      -7.9      4.719     10.462
REMARK  Name = 
REMARK  8 active torsions:
REMARK  status: ('A' for Active; 'I' for Inactive)
REMARK    1  A    between atoms: C_2  and  C_16
REMARK    2  A    between atoms: N_3  and  C_4
REMARK    3  A    between atoms: C_4  and  C_5
REMARK    4  A    between atoms: C_5  and  C_6
REMARK    5  A    between atoms: C_19  and  C_20
REMARK    6  A    between atoms: C_20  and  N_21
REMARK    7  A    between atoms: N_21  and  C_22
REMARK    8  A    between atoms: C_22  and  C_23
REMARK                            x       y       z     vdW  Elec       q    Type
REMARK                         _______ _______ _______ _____ _____    ______ ____
ROOT
ATOM      1  O   UNL     1       1.574   9.531  17.469  0.00  0.00    +0.000 OA
ATOM      2  C   UNL     1       1.762   8.842  18.464  0.00  0.00    +0.000 C 
ATOM      3  N   UNL     1       1.098   9.034  19.663  0.00  0.00    +0.000 N 
ATOM      4  H   UNL     1       1.469   8.595  20.495  0.00  0.00    +0.000 HD
ENDROOT
BRANCH   2   5
ATOM      5  C   UNL     1       2.765   7.733  18.450  0.00  0.00    +0.000 A 
ATOM      6  C   UNL     1       2.851   6.847  19.533  0.00  0.00    +0.000 A 
ATOM      7  C   UNL     1       3.778   5.788  19.502  0.00  0.00    +0.000 A 
ATOM      8  C   UNL     1       4.633   5.613  18.396  0.00  0.00    +0.000 A 
ATOM      9  C   UNL     1       4.558   6.516  17.343  0.00  0.00    +0.000 A 
ATOM     10  C   UNL     1       3.642   7.580  17.376  0.00  0.00    +0.000 A 
BRANCH   8  11
ATOM     11  C   UNL     1       5.574   4.393  18.350  0.00  0.00    +0.000 C 
BRANCH  11  12
ATOM     12  N   UNL     1       4.756   3.183  18.296  0.00  0.00    +0.000 NA
ATOM     13  H   UNL     1       5.269   2.477  17.777  0.00  0.00    +0.000 HD
BRANCH  12  14
ATOM     14  C   UNL     1       4.274   2.609  19.553  0.00  0.00    +0.000 C 
BRANCH  14  15
ATOM     15  C   UNL     1       2.898   1.920  19.273  0.00  0.00    +0.000 C 
ATOM     16  C   UNL     1       1.921   1.983  20.460  0.00  0.00    +0.000 C 
ATOM     17  C   UNL     1       1.376   3.393  20.665  0.00  0.00    +0.000 C 
ATOM     18  C   UNL     1       0.553   3.804  19.451  0.00  0.00    +0.000 C 
ATOM     19  C   UNL     1       1.387   3.737  18.174  0.00  0.00    +0.000 C 
ATOM     20  C   UNL     1       2.160   2.423  18.008  0.00  0.00    +0.000 C 
ENDBRANCH  14  15
ENDBRANCH  12  14
ENDBRANCH  11  12
ENDBRANCH   8  11
ENDBRANCH   2   5
BRANCH   3  21
ATOM     21  C   UNL     1       0.129  10.109  19.821  0.00  0.00    +0.000 C 
BRANCH  21  22
ATOM     22  C   UNL     1      -0.301  10.302  21.279  0.00  0.00    +0.000 C 
BRANCH  22  23
ATOM     23  C   UNL     1      -0.354  11.742  21.697  0.00  0.00    +0.000 A 
ATOM     24  C   UNL     1       0.550  12.734  21.344  0.00  0.00    +0.000 A 
ATOM     25  N   UNL     1       0.177  13.897  21.959  0.00  0.00    +0.000 N 
ATOM     26  C   UNL     1      -0.955  13.698  22.706  0.00  0.00    +0.000 A 
ATOM     27  C   UNL     1      -1.679  14.597  23.502  0.00  0.00    +0.000 A 
ATOM     28  C   UNL     1      -2.819  14.117  24.151  0.00  0.00    +0.000 A 
ATOM     29  C   UNL     1      -3.216  12.792  24.001  0.00  0.00    +0.000 A 
ATOM     30 CL   UNL     1      -4.636  12.232  24.804  0.00  0.00    +0.000 Cl
ATOM     31  C   UNL     1      -2.483  11.902  23.207  0.00  0.00    +0.000 A 
ATOM     32  C   UNL     1      -1.324  12.362  22.547  0.00  0.00    +0.000 A 
ATOM     33  H   UNL     1       0.661  14.781  21.876  0.00  0.00    +0.000 HD
ENDBRANCH  22  23
ENDBRANCH  21  22
ENDBRANCH   3  21
TORSDOF 8
ENDMDL
MODEL 9
REMARK VINA RESULT:      -7.9      3.196      9.346
REMARK  Name = 
REMARK  8 active torsions:
REMARK  status: ('A' for Active; 'I' for Inactive)
REMARK    1  A    between atoms: C_2  and  C_16
REMARK    2  A    between atoms: N_3  and  C_4
REMARK    3  A    between atoms: C_4  and  C_5
REMARK    4  A    between atoms: C_5  and  C_6
REMARK    5  A    between atoms: C_19  and  C_20
REMARK    6  A    between atoms: C_20  and  N_21
REMARK    7  A    between atoms: N_21  and  C_22
REMARK    8  A    between atoms: C_22  and  C_23
REMARK                            x       y       z     vdW  Elec       q    Type
REMARK                         _______ _______ _______ _____ _____    ______ ____
ROOT
ATOM      1  O   UNL     1       0.831   9.398  17.956  0.00  0.00    +0.000 OA
ATOM      2  C   UNL     1       1.351   8.860  18.925  0.00  0.00    +0.000 C 
ATOM      3  N   UNL     1       1.043   9.182  20.236  0.00  0.00    +0.000 N 
ATOM      4  H   UNL     1       1.672   8.877  20.967  0.00  0.00    +0.000 HD
ENDROOT
BRANCH   2   5
ATOM      5  C   UNL     1       2.398   7.807  18.746  0.00  0.00    +0.000 A 
ATOM      6  C   UNL     1       3.193   7.792  17.592  0.00  0.00    +0.000 A 
ATOM      7  C   UNL     1       4.195   6.815  17.441  0.00  0.00    +0.000 A 
ATOM      8  C   UNL     1       4.405   5.841  18.437  0.00  0.00    +0.000 A 
ATOM      9  C   UNL     1       3.591   5.850  19.563  0.00  0.00    +0.000 A 
ATOM     10  C   UNL     1       2.582   6.816  19.710  0.00  0.00    +0.000 A 
BRANCH   8  11
ATOM     11  C   UNL     1       5.568   4.842  18.287  0.00  0.00    +0.000 C 
BRANCH  11  12
ATOM     12  N   UNL     1       5.007   3.521  18.012  0.00  0.00    +0.000 NA
ATOM     13  H   UNL     1       5.714   2.969  17.533  0.00  0.00    +0.000 HD
BRANCH  12  14
ATOM     14  C   UNL     1       4.461   2.747  19.129  0.00  0.00    +0.000 C 
BRANCH  14  15
ATOM     15  C   UNL     1       3.197   1.983  18.614  0.00  0.00    +0.000 C 
ATOM     16  C   UNL     1       2.168   1.676  19.715  0.00  0.00    +0.000 C 
ATOM     17  C   UNL     1       1.440   2.937  20.171  0.00  0.00    +0.000 C 
ATOM     18  C   UNL     1       0.628   3.504  19.014  0.00  0.00    +0.000 C 
ATOM     19  C   UNL     1       1.520   3.809  17.813  0.00  0.00    +0.000 C 
ATOM     20  C   UNL     1       2.460   2.659  17.432  0.00  0.00    +0.000 C 
ENDBRANCH  14  15
ENDBRANCH  12  14
ENDBRANCH  11  12
ENDBRANCH   8  11
ENDBRANCH   2   5
BRANCH   3  21
ATOM     21  C   UNL     1       0.073  10.222  20.545  0.00  0.00    +0.000 C 
BRANCH  21  22
ATOM     22  C   UNL     1      -0.109  11.216  19.394  0.00  0.00    +0.000 C 
BRANCH  22  23
ATOM     23  C   UNL     1      -1.537  11.631  19.188  0.00  0.00    +0.000 A 
ATOM     24  C   UNL     1      -2.333  12.314  20.096  0.00  0.00    +0.000 A 
ATOM     25  N   UNL     1      -3.578  12.465  19.551  0.00  0.00    +0.000 N 
ATOM     26  C   UNL     1      -3.622  11.901  18.302  0.00  0.00    +0.000 A 
ATOM     27  C   UNL     1      -4.682  11.812  17.390  0.00  0.00    +0.000 A 
ATOM     28  C   UNL     1      -4.437  11.184  16.167  0.00  0.00    +0.000 A 
ATOM     29  C   UNL     1      -3.177  10.672  15.873  0.00  0.00    +0.000 A 
ATOM     30 CL   UNL     1      -2.900   9.914  14.348  0.00  0.00    +0.000 Cl
ATOM     31  C   UNL     1      -2.125  10.762  16.793  0.00  0.00    +0.000 A 
ATOM     32  C   UNL     1      -2.352  11.386  18.038  0.00  0.00    +0.000 A 
ATOM     33  H   UNL     1      -4.357  12.927  19.999  0.00  0.00    +0.000 HD
ENDBRANCH  22  23
ENDBRANCH  21  22
ENDBRANCH   3  21
TORSDOF 8
ENDMDL
