MODEL 1
REMARK VINA RESULT:      -8.0      0.000      0.000
REMARK  Name = 
REMARK  7 active torsions:
REMARK  status: ('A' for Active; 'I' for Inactive)
REMARK    1  A    between atoms: C_1  and  C_2
REMARK    2  A    between atoms: N_4  and  C_5
REMARK    3  A    between atoms: C_8  and  N_9
REMARK    4  A    between atoms: C_10  and  C_12
REMARK    5  A    between atoms: C_16  and  C_18
REMARK    6  A    between atoms: N_22  and  C_23
REMARK    7  A    between atoms: C_26  and  C_27
REMARK                            x       y       z     vdW  Elec       q    Type
REMARK                         _______ _______ _______ _____ _____    ______ ____
ROOT
ATOM      1  C   UNL     1      -0.604  12.129  19.921  0.00  0.00    +0.000 C 
ATOM      2  C   UNL     1      -0.697  13.218  18.831  0.00  0.00    +0.000 C 
ATOM      3  C   UNL     1       0.677  13.708  18.365  0.00  0.00    +0.000 C 
ATOM      4  N   UNL     1       1.509  14.091  19.508  0.00  0.00    +0.000 N 
ATOM      5  C   UNL     1       2.072  15.361  19.532  0.00  0.00    +0.000 C 
ATOM      6  O   UNL     1       1.862  16.162  18.619  0.00  0.00    +0.000 OA
ATOM      7  C   UNL     1       1.707  13.019  20.480  0.00  0.00    +0.000 C 
ATOM      8  C   UNL     1       0.352  12.576  21.039  0.00  0.00    +0.000 C 
ENDROOT
BRANCH   5   9
ATOM      9  C   UNL     1       3.003  15.741  20.686  0.00  0.00    +0.000 C 
ATOM     10  C   UNL     1       3.610  17.129  20.545  0.00  0.00    +0.000 C 
ATOM     11  C   UNL     1       4.957  16.895  19.910  0.00  0.00    +0.000 C 
ATOM     12  O   UNL     1       5.627  17.818  19.470  0.00  0.00    +0.000 OA
ATOM     13  N   UNL     1       5.249  15.532  19.983  0.00  0.00    +0.000 N 
ATOM     14  C   UNL     1       4.233  14.835  20.743  0.00  0.00    +0.000 C 
BRANCH  13  15
ATOM     15  C   UNL     1       6.364  14.883  19.384  0.00  0.00    +0.000 A 
ATOM     16  C   UNL     1       7.545  14.652  20.102  0.00  0.00    +0.000 A 
ATOM     17  C   UNL     1       8.677  14.093  19.497  0.00  0.00    +0.000 A 
ATOM     18  C   UNL     1       8.658  13.737  18.150  0.00  0.00    +0.000 A 
ATOM     19  C   UNL     1       9.889  13.204  17.481  0.00  0.00    +0.000 C 
ATOM     20  C   UNL     1       7.481  13.935  17.425  0.00  0.00    +0.000 A 
ATOM     21  C   UNL     1       6.349  14.496  18.035  0.00  0.00    +0.000 A 
ENDBRANCH  13  15
ENDBRANCH   5   9
BRANCH   1  23
ATOM     22  N   UNL     1       0.721  10.065  20.071  0.00  0.00    +0.000 N 
ATOM     23  C   UNL     1      -0.184  10.789  19.313  0.00  0.00    +0.000 C 
ATOM     24  O   UNL     1      -0.663  10.417  18.244  0.00  0.00    +0.000 OA
ATOM     25  H   UNL     1       0.838  10.325  21.042  0.00  0.00    +0.000 HD
BRANCH  22  29
ATOM     26  C   UNL     1       2.665   6.491  18.844  0.00  0.00    +0.000 A 
ATOM     27  C   UNL     1       2.562   7.575  17.977  0.00  0.00    +0.000 A 
ATOM     28  C   UNL     1       1.928   8.753  18.374  0.00  0.00    +0.000 A 
ATOM     29  C   UNL     1       1.369   8.879  19.643  0.00  0.00    +0.000 A 
ATOM     30  C   UNL     1       1.479   7.800  20.529  0.00  0.00    +0.000 A 
ATOM     31  C   UNL     1       2.106   6.606  20.122  0.00  0.00    +0.000 A 
BRANCH  26  35
ATOM     32  C   UNL     1       3.601   3.025  17.691  0.00  0.00    +0.000 C 
ATOM     33  C   UNL     1       2.687   4.206  17.860  0.00  0.00    +0.000 C 
ATOM     34  O   UNL     1       1.529   4.153  17.458  0.00  0.00    +0.000 OA
ATOM     35  N   UNL     1       3.300   5.285  18.478  0.00  0.00    +0.000 N 
ATOM     36  H   UNL     1       4.303   5.241  18.602  0.00  0.00    +0.000 HD
ENDBRANCH  26  35
ENDBRANCH  22  29
ENDBRANCH   1  23
TORSDOF 5
ENDMDL
MODEL 2
REMARK VINA RESULT:      -7.9      0.950      1.501
REMARK  Name = 
REMARK  7 active torsions:
REMARK  status: ('A' for Active; 'I' for Inactive)
REMARK    1  A    between atoms: C_1  and  C_2
REMARK    2  A    between atoms: N_4  and  C_5
REMARK    3  A    between atoms: C_8  and  N_9
REMARK    4  A    between atoms: C_10  and  C_12
REMARK    5  A    between atoms: C_16  and  C_18
REMARK    6  A    between atoms: N_22  and  C_23
REMARK    7  A    between atoms: C_26  and  C_27
REMARK                            x       y       z     vdW  Elec       q    Type
REMARK                         _______ _______ _______ _____ _____    ______ ____
ROOT
ATOM      1  C   UNL     1      -0.570  12.119  19.931  0.00  0.00    +0.000 C 
ATOM      2  C   UNL     1      -0.623  13.153  18.786  0.00  0.00    +0.000 C 
ATOM      3  C   UNL     1       0.767  13.600  18.328  0.00  0.00    +0.000 C 
ATOM      4  N   UNL     1       1.580  14.029  19.469  0.00  0.00    +0.000 N 
ATOM      5  C   UNL     1       2.160  15.291  19.442  0.00  0.00    +0.000 C 
ATOM      6  O   UNL     1       1.982  16.048  18.486  0.00  0.00    +0.000 OA
ATOM      7  C   UNL     1       1.740  13.004  20.498  0.00  0.00    +0.000 C 
ATOM      8  C   UNL     1       0.367  12.608  21.047  0.00  0.00    +0.000 C 
ENDROOT
BRANCH   5   9
ATOM      9  C   UNL     1       3.072  15.715  20.596  0.00  0.00    +0.000 C 
ATOM     10  C   UNL     1       3.624  17.125  20.447  0.00  0.00    +0.000 C 
ATOM     11  C   UNL     1       4.981  16.940  19.820  0.00  0.00    +0.000 C 
ATOM     12  O   UNL     1       5.616  17.885  19.374  0.00  0.00    +0.000 OA
ATOM     13  N   UNL     1       5.326  15.590  19.903  0.00  0.00    +0.000 N 
ATOM     14  C   UNL     1       4.336  14.859  20.665  0.00  0.00    +0.000 C 
BRANCH  13  15
ATOM     15  C   UNL     1       6.469  14.981  19.313  0.00  0.00    +0.000 A 
ATOM     16  C   UNL     1       6.431  14.472  18.008  0.00  0.00    +0.000 A 
ATOM     17  C   UNL     1       7.522  13.795  17.450  0.00  0.00    +0.000 A 
ATOM     18  C   UNL     1       8.693  13.613  18.183  0.00  0.00    +0.000 A 
ATOM     19  C   UNL     1       9.838  12.828  17.616  0.00  0.00    +0.000 C 
ATOM     20  C   UNL     1       8.759  14.136  19.476  0.00  0.00    +0.000 A 
ATOM     21  C   UNL     1       7.663  14.814  20.031  0.00  0.00    +0.000 A 
ENDBRANCH  13  15
ENDBRANCH   5   9
BRANCH   1  23
ATOM     22  N   UNL     1       0.711  10.041  20.220  0.00  0.00    +0.000 N 
ATOM     23  C   UNL     1      -0.157  10.744  19.400  0.00  0.00    +0.000 C 
ATOM     24  O   UNL     1      -0.609  10.330  18.335  0.00  0.00    +0.000 OA
ATOM     25  H   UNL     1       0.803  10.346  21.181  0.00  0.00    +0.000 HD
BRANCH  22  29
ATOM     26  C   UNL     1       2.626   6.413  19.113  0.00  0.00    +0.000 A 
ATOM     27  C   UNL     1       2.054   6.557  20.375  0.00  0.00    +0.000 A 
ATOM     28  C   UNL     1       1.421   7.744  20.744  0.00  0.00    +0.000 A 
ATOM     29  C   UNL     1       1.350   8.826  19.869  0.00  0.00    +0.000 A 
ATOM     30  C   UNL     1       1.909   8.687  18.593  0.00  0.00    +0.000 A 
ATOM     31  C   UNL     1       2.561   7.494  18.226  0.00  0.00    +0.000 A 
BRANCH  26  35
ATOM     32  C   UNL     1       5.020   3.609  18.326  0.00  0.00    +0.000 C 
ATOM     33  C   UNL     1       4.587   4.888  18.986  0.00  0.00    +0.000 C 
ATOM     34  O   UNL     1       5.370   5.513  19.696  0.00  0.00    +0.000 OA
ATOM     35  N   UNL     1       3.273   5.227  18.705  0.00  0.00    +0.000 N 
ATOM     36  H   UNL     1       2.702   4.532  18.242  0.00  0.00    +0.000 HD
ENDBRANCH  26  35
ENDBRANCH  22  29
ENDBRANCH   1  23
TORSDOF 5
ENDMDL
MODEL 3
REMARK VINA RESULT:      -7.6      0.590      1.242
REMARK  Name = 
REMARK  7 active torsions:
REMARK  status: ('A' for Active; 'I' for Inactive)
REMARK    1  A    between atoms: C_1  and  C_2
REMARK    2  A    between atoms: N_4  and  C_5
REMARK    3  A    between atoms: C_8  and  N_9
REMARK    4  A    between atoms: C_10  and  C_12
REMARK    5  A    between atoms: C_16  and  C_18
REMARK    6  A    between atoms: N_22  and  C_23
REMARK    7  A    between atoms: C_26  and  C_27
REMARK                            x       y       z     vdW  Elec       q    Type
REMARK                         _______ _______ _______ _____ _____    ______ ____
ROOT
ATOM      1  C   UNL     1      -0.409  12.198  19.903  0.00  0.00    +0.000 C 
ATOM      2  C   UNL     1      -0.311  13.262  18.789  0.00  0.00    +0.000 C 
ATOM      3  C   UNL     1       1.136  13.621  18.439  0.00  0.00    +0.000 C 
ATOM      4  N   UNL     1       1.895  13.962  19.645  0.00  0.00    +0.000 N 
ATOM      5  C   UNL     1       2.561  15.180  19.696  0.00  0.00    +0.000 C 
ATOM      6  O   UNL     1       2.502  15.972  18.753  0.00  0.00    +0.000 OA
ATOM      7  C   UNL     1       1.912  12.903  20.651  0.00  0.00    +0.000 C 
ATOM      8  C   UNL     1       0.480  12.592  21.094  0.00  0.00    +0.000 C 
ENDROOT
BRANCH   5   9
ATOM      9  C   UNL     1       3.417  15.510  20.921  0.00  0.00    +0.000 C 
ATOM     10  C   UNL     1       3.802  16.979  21.016  0.00  0.00    +0.000 C 
ATOM     11  C   UNL     1       5.171  17.057  20.393  0.00  0.00    +0.000 C 
ATOM     12  O   UNL     1       5.692  18.128  20.120  0.00  0.00    +0.000 OA
ATOM     13  N   UNL     1       5.671  15.759  20.261  0.00  0.00    +0.000 N 
ATOM     14  C   UNL     1       4.772  14.805  20.872  0.00  0.00    +0.000 C 
BRANCH  13  15
ATOM     15  C   UNL     1       6.876  15.391  19.601  0.00  0.00    +0.000 A 
ATOM     16  C   UNL     1       7.175  15.859  18.315  0.00  0.00    +0.000 A 
ATOM     17  C   UNL     1       8.316  15.434  17.623  0.00  0.00    +0.000 A 
ATOM     18  C   UNL     1       9.202  14.529  18.206  0.00  0.00    +0.000 A 
ATOM     19  C   UNL     1      10.386  14.017  17.443  0.00  0.00    +0.000 C 
ATOM     20  C   UNL     1       8.934  14.072  19.498  0.00  0.00    +0.000 A 
ATOM     21  C   UNL     1       7.789  14.501  20.187  0.00  0.00    +0.000 A 
ENDBRANCH  13  15
ENDBRANCH   5   9
BRANCH   1  23
ATOM     22  N   UNL     1       0.848  10.098  20.132  0.00  0.00    +0.000 N 
ATOM     23  C   UNL     1      -0.055  10.811  19.360  0.00  0.00    +0.000 C 
ATOM     24  O   UNL     1      -0.579  10.398  18.329  0.00  0.00    +0.000 OA
ATOM     25  H   UNL     1       1.004  10.408  21.083  0.00  0.00    +0.000 HD
BRANCH  22  29
ATOM     26  C   UNL     1       2.624   6.426  18.943  0.00  0.00    +0.000 A 
ATOM     27  C   UNL     1       2.092   6.575  20.222  0.00  0.00    +0.000 A 
ATOM     28  C   UNL     1       1.505   7.777  20.618  0.00  0.00    +0.000 A 
ATOM     29  C   UNL     1       1.441   8.868  19.754  0.00  0.00    +0.000 A 
ATOM     30  C   UNL     1       1.960   8.724  18.461  0.00  0.00    +0.000 A 
ATOM     31  C   UNL     1       2.566   7.515  18.067  0.00  0.00    +0.000 A 
BRANCH  26  35
ATOM     32  C   UNL     1       3.460   3.007  17.591  0.00  0.00    +0.000 C 
ATOM     33  C   UNL     1       2.582   4.203  17.826  0.00  0.00    +0.000 C 
ATOM     34  O   UNL     1       1.424   4.209  17.419  0.00  0.00    +0.000 OA
ATOM     35  N   UNL     1       3.224   5.225  18.508  0.00  0.00    +0.000 N 
ATOM     36  H   UNL     1       4.225   5.144  18.631  0.00  0.00    +0.000 HD
ENDBRANCH  26  35
ENDBRANCH  22  29
ENDBRANCH   1  23
TORSDOF 5
ENDMDL
MODEL 4
REMARK VINA RESULT:      -7.5      1.528      1.716
REMARK  Name = 
REMARK  7 active torsions:
REMARK  status: ('A' for Active; 'I' for Inactive)
REMARK    1  A    between atoms: C_1  and  C_2
REMARK    2  A    between atoms: N_4  and  C_5
REMARK    3  A    between atoms: C_8  and  N_9
REMARK    4  A    between atoms: C_10  and  C_12
REMARK    5  A    between atoms: C_16  and  C_18
REMARK    6  A    between atoms: N_22  and  C_23
REMARK    7  A    between atoms: C_26  and  C_27
REMARK                            x       y       z     vdW  Elec       q    Type
REMARK                         _______ _______ _______ _____ _____    ______ ____
ROOT
ATOM      1  C   UNL     1       0.631  12.241  20.044  0.00  0.00    +0.000 C 
ATOM      2  C   UNL     1       0.958  12.601  18.579  0.00  0.00    +0.000 C 
ATOM      3  C   UNL     1       2.453  12.837  18.346  0.00  0.00    +0.000 C 
ATOM      4  N   UNL     1       2.988  13.793  19.319  0.00  0.00    +0.000 N 
ATOM      5  C   UNL     1       3.665  14.914  18.855  0.00  0.00    +0.000 C 
ATOM      6  O   UNL     1       3.799  15.115  17.647  0.00  0.00    +0.000 OA
ATOM      7  C   UNL     1       2.795  13.390  20.710  0.00  0.00    +0.000 C 
ATOM      8  C   UNL     1       1.298  13.244  20.999  0.00  0.00    +0.000 C 
ENDROOT
BRANCH   5   9
ATOM      9  C   UNL     1       4.291  15.877  19.867  0.00  0.00    +0.000 C 
ATOM     10  C   UNL     1       4.890  17.122  19.230  0.00  0.00    +0.000 C 
ATOM     11  C   UNL     1       6.351  16.800  19.059  0.00  0.00    +0.000 C 
ATOM     12  O   UNL     1       7.090  17.507  18.389  0.00  0.00    +0.000 OA
ATOM     13  N   UNL     1       6.642  15.657  19.806  0.00  0.00    +0.000 N 
ATOM     14  C   UNL     1       5.489  15.249  20.579  0.00  0.00    +0.000 C 
BRANCH  13  15
ATOM     15  C   UNL     1       7.879  14.953  19.811  0.00  0.00    +0.000 A 
ATOM     16  C   UNL     1       8.767  15.048  20.890  0.00  0.00    +0.000 A 
ATOM     17  C   UNL     1      10.023  14.429  20.867  0.00  0.00    +0.000 A 
ATOM     18  C   UNL     1      10.425  13.685  19.759  0.00  0.00    +0.000 A 
ATOM     19  C   UNL     1      11.796  13.080  19.700  0.00  0.00    +0.000 C 
ATOM     20  C   UNL     1       9.543  13.558  18.684  0.00  0.00    +0.000 A 
ATOM     21  C   UNL     1       8.285  14.181  18.713  0.00  0.00    +0.000 A 
ENDBRANCH  13  15
ENDBRANCH   5   9
BRANCH   1  23
ATOM     22  N   UNL     1       1.452  10.065  19.251  0.00  0.00    +0.000 N 
ATOM     23  C   UNL     1       1.042  10.799  20.351  0.00  0.00    +0.000 C 
ATOM     24  O   UNL     1       1.018  10.381  21.506  0.00  0.00    +0.000 OA
ATOM     25  H   UNL     1       1.694  10.572  18.408  0.00  0.00    +0.000 HD
BRANCH  22  29
ATOM     26  C   UNL     1       2.270   5.897  19.343  0.00  0.00    +0.000 A 
ATOM     27  C   UNL     1       2.546   6.648  18.203  0.00  0.00    +0.000 A 
ATOM     28  C   UNL     1       2.282   8.017  18.167  0.00  0.00    +0.000 A 
ATOM     29  C   UNL     1       1.727   8.675  19.262  0.00  0.00    +0.000 A 
ATOM     30  C   UNL     1       1.459   7.931  20.418  0.00  0.00    +0.000 A 
ATOM     31  C   UNL     1       1.711   6.546  20.449  0.00  0.00    +0.000 A 
BRANCH  26  35
ATOM     32  C   UNL     1       2.303   2.138  19.039  0.00  0.00    +0.000 C 
ATOM     33  C   UNL     1       1.894   3.534  18.661  0.00  0.00    +0.000 C 
ATOM     34  O   UNL     1       1.083   3.716  17.757  0.00  0.00    +0.000 OA
ATOM     35  N   UNL     1       2.524   4.510  19.416  0.00  0.00    +0.000 N 
ATOM     36  H   UNL     1       3.290   4.217  20.009  0.00  0.00    +0.000 HD
ENDBRANCH  26  35
ENDBRANCH  22  29
ENDBRANCH   1  23
TORSDOF 5
ENDMDL
MODEL 5
REMARK VINA RESULT:      -7.5      2.212      3.195
REMARK  Name = 
REMARK  7 active torsions:
REMARK  status: ('A' for Active; 'I' for Inactive)
REMARK    1  A    between atoms: C_1  and  C_2
REMARK    2  A    between atoms: N_4  and  C_5
REMARK    3  A    between atoms: C_8  and  N_9
REMARK    4  A    between atoms: C_10  and  C_12
REMARK    5  A    between atoms: C_16  and  C_18
REMARK    6  A    between atoms: N_22  and  C_23
REMARK    7  A    between atoms: C_26  and  C_27
REMARK                            x       y       z     vdW  Elec       q    Type
REMARK                         _______ _______ _______ _____ _____    ______ ____
ROOT
ATOM      1  C   UNL     1      -0.335   9.887  20.876  0.00  0.00    +0.000 C 
ATOM      2  C   UNL     1      -0.912  10.288  19.501  0.00  0.00    +0.000 C 
ATOM      3  C   UNL     1      -0.058  11.337  18.785  0.00  0.00    +0.000 C 
ATOM      4  N   UNL     1       0.212  12.479  19.663  0.00  0.00    +0.000 N 
ATOM      5  C   UNL     1      -0.109  13.755  19.220  0.00  0.00    +0.000 C 
ATOM      6  O   UNL     1      -0.629  13.929  18.117  0.00  0.00    +0.000 OA
ATOM      7  C   UNL     1       0.877  12.117  20.913  0.00  0.00    +0.000 C 
ATOM      8  C   UNL     1      -0.003  11.143  21.700  0.00  0.00    +0.000 C 
ENDROOT
BRANCH   5   9
ATOM      9  C   UNL     1       0.240  14.958  20.101  0.00  0.00    +0.000 C 
ATOM     10  C   UNL     1      -0.041  16.298  19.438  0.00  0.00    +0.000 C 
ATOM     11  C   UNL     1       1.278  16.714  18.841  0.00  0.00    +0.000 C 
ATOM     12  O   UNL     1       1.363  17.649  18.059  0.00  0.00    +0.000 OA
ATOM     13  N   UNL     1       2.280  15.899  19.373  0.00  0.00    +0.000 N 
ATOM     14  C   UNL     1       1.738  15.029  20.395  0.00  0.00    +0.000 C 
BRANCH  13  15
ATOM     15  C   UNL     1       3.645  15.882  18.972  0.00  0.00    +0.000 A 
ATOM     16  C   UNL     1       4.154  14.857  18.164  0.00  0.00    +0.000 A 
ATOM     17  C   UNL     1       5.514  14.785  17.835  0.00  0.00    +0.000 A 
ATOM     18  C   UNL     1       6.407  15.748  18.300  0.00  0.00    +0.000 A 
ATOM     19  C   UNL     1       7.873  15.636  18.010  0.00  0.00    +0.000 C 
ATOM     20  C   UNL     1       5.913  16.792  19.085  0.00  0.00    +0.000 A 
ATOM     21  C   UNL     1       4.550  16.860  19.412  0.00  0.00    +0.000 A 
ENDBRANCH  13  15
ENDBRANCH   5   9
BRANCH   1  23
ATOM     22  N   UNL     1       1.272   8.763  19.396  0.00  0.00    +0.000 N 
ATOM     23  C   UNL     1       0.882   8.976  20.709  0.00  0.00    +0.000 C 
ATOM     24  O   UNL     1       1.451   8.514  21.695  0.00  0.00    +0.000 OA
ATOM     25  H   UNL     1       0.917   9.395  18.690  0.00  0.00    +0.000 HD
BRANCH  22  29
ATOM     26  C   UNL     1       4.255   6.020  18.117  0.00  0.00    +0.000 A 
ATOM     27  C   UNL     1       3.501   5.765  19.260  0.00  0.00    +0.000 A 
ATOM     28  C   UNL     1       2.518   6.660  19.684  0.00  0.00    +0.000 A 
ATOM     29  C   UNL     1       2.266   7.839  18.987  0.00  0.00    +0.000 A 
ATOM     30  C   UNL     1       3.009   8.099  17.829  0.00  0.00    +0.000 A 
ATOM     31  C   UNL     1       4.012   7.203  17.410  0.00  0.00    +0.000 A 
BRANCH  26  35
ATOM     32  C   UNL     1       7.425   4.303  17.013  0.00  0.00    +0.000 C 
ATOM     33  C   UNL     1       6.619   5.392  17.663  0.00  0.00    +0.000 C 
ATOM     34  O   UNL     1       7.179   6.376  18.137  0.00  0.00    +0.000 OA
ATOM     35  N   UNL     1       5.256   5.138  17.658  0.00  0.00    +0.000 N 
ATOM     36  H   UNL     1       4.957   4.212  17.382  0.00  0.00    +0.000 HD
ENDBRANCH  26  35
ENDBRANCH  22  29
ENDBRANCH   1  23
TORSDOF 5
ENDMDL
MODEL 6
REMARK VINA RESULT:      -7.4      1.405      1.665
REMARK  Name = 
REMARK  7 active torsions:
REMARK  status: ('A' for Active; 'I' for Inactive)
REMARK    1  A    between atoms: C_1  and  C_2
REMARK    2  A    between atoms: N_4  and  C_5
REMARK    3  A    between atoms: C_8  and  N_9
REMARK    4  A    between atoms: C_10  and  C_12
REMARK    5  A    between atoms: C_16  and  C_18
REMARK    6  A    between atoms: N_22  and  C_23
REMARK    7  A    between atoms: C_26  and  C_27
REMARK                            x       y       z     vdW  Elec       q    Type
REMARK                         _______ _______ _______ _____ _____    ______ ____
ROOT
ATOM      1  C   UNL     1      -0.783  11.328  19.828  0.00  0.00    +0.000 C 
ATOM      2  C   UNL     1      -1.111  12.478  18.852  0.00  0.00    +0.000 C 
ATOM      3  C   UNL     1       0.128  13.281  18.446  0.00  0.00    +0.000 C 
ATOM      4  N   UNL     1       0.883  13.710  19.627  0.00  0.00    +0.000 N 
ATOM      5  C   UNL     1       1.176  15.059  19.781  0.00  0.00    +0.000 C 
ATOM      6  O   UNL     1       0.795  15.887  18.952  0.00  0.00    +0.000 OA
ATOM      7  C   UNL     1       1.308  12.609  20.487  0.00  0.00    +0.000 C 
ATOM      8  C   UNL     1       0.079  11.847  20.991  0.00  0.00    +0.000 C 
ENDROOT
BRANCH   5   9
ATOM      9  C   UNL     1       2.028  15.503  20.972  0.00  0.00    +0.000 C 
ATOM     10  C   UNL     1       2.457  16.961  20.902  0.00  0.00    +0.000 C 
ATOM     11  C   UNL     1       3.835  16.926  20.294  0.00  0.00    +0.000 C 
ATOM     12  O   UNL     1       4.391  17.943  19.908  0.00  0.00    +0.000 OA
ATOM     13  N   UNL     1       4.296  15.608  20.320  0.00  0.00    +0.000 N 
ATOM     14  C   UNL     1       3.361  14.758  21.025  0.00  0.00    +0.000 C 
BRANCH  13  15
ATOM     15  C   UNL     1       5.497  15.131  19.725  0.00  0.00    +0.000 A 
ATOM     16  C   UNL     1       6.679  15.010  20.466  0.00  0.00    +0.000 A 
ATOM     17  C   UNL     1       7.886  14.623  19.870  0.00  0.00    +0.000 A 
ATOM     18  C   UNL     1       7.942  14.337  18.507  0.00  0.00    +0.000 A 
ATOM     19  C   UNL     1       9.246  13.991  17.851  0.00  0.00    +0.000 C 
ATOM     20  C   UNL     1       6.768  14.426  17.757  0.00  0.00    +0.000 A 
ATOM     21  C   UNL     1       5.561  14.814  18.359  0.00  0.00    +0.000 A 
ENDBRANCH  13  15
ENDBRANCH   5   9
BRANCH   1  23
ATOM     22  N   UNL     1       0.862   9.502  19.820  0.00  0.00    +0.000 N 
ATOM     23  C   UNL     1      -0.109  10.168  19.090  0.00  0.00    +0.000 C 
ATOM     24  O   UNL     1      -0.457   9.875  17.949  0.00  0.00    +0.000 OA
ATOM     25  H   UNL     1       0.878   9.642  20.822  0.00  0.00    +0.000 HD
BRANCH  22  29
ATOM     26  C   UNL     1       3.446   6.541  18.206  0.00  0.00    +0.000 A 
ATOM     27  C   UNL     1       2.791   6.326  19.415  0.00  0.00    +0.000 A 
ATOM     28  C   UNL     1       1.938   7.293  19.950  0.00  0.00    +0.000 A 
ATOM     29  C   UNL     1       1.723   8.505  19.299  0.00  0.00    +0.000 A 
ATOM     30  C   UNL     1       2.367   8.725  18.074  0.00  0.00    +0.000 A 
ATOM     31  C   UNL     1       3.239   7.755  17.543  0.00  0.00    +0.000 A 
BRANCH  26  35
ATOM     32  C   UNL     1       6.298   4.275  17.230  0.00  0.00    +0.000 C 
ATOM     33  C   UNL     1       5.571   5.250  18.113  0.00  0.00    +0.000 C 
ATOM     34  O   UNL     1       6.096   5.659  19.144  0.00  0.00    +0.000 OA
ATOM     35  N   UNL     1       4.314   5.585  17.635  0.00  0.00    +0.000 N 
ATOM     36  H   UNL     1       3.951   5.042  16.862  0.00  0.00    +0.000 HD
ENDBRANCH  26  35
ENDBRANCH  22  29
ENDBRANCH   1  23
TORSDOF 5
ENDMDL
MODEL 7
REMARK VINA RESULT:      -7.3      3.904     10.609
REMARK  Name = 
REMARK  7 active torsions:
REMARK  status: ('A' for Active; 'I' for Inactive)
REMARK    1  A    between atoms: C_1  and  C_2
REMARK    2  A    between atoms: N_4  and  C_5
REMARK    3  A    between atoms: C_8  and  N_9
REMARK    4  A    between atoms: C_10  and  C_12
REMARK    5  A    between atoms: C_16  and  C_18
REMARK    6  A    between atoms: N_22  and  C_23
REMARK    7  A    between atoms: C_26  and  C_27
REMARK                            x       y       z     vdW  Elec       q    Type
REMARK                         _______ _______ _______ _____ _____    ______ ____
ROOT
ATOM      1  C   UNL     1       8.082   6.008  18.617  0.00  0.00    +0.000 C 
ATOM      2  C   UNL     1       8.063   5.140  17.340  0.00  0.00    +0.000 C 
ATOM      3  C   UNL     1       6.679   5.078  16.687  0.00  0.00    +0.000 C 
ATOM      4  N   UNL     1       5.656   4.704  17.668  0.00  0.00    +0.000 N 
ATOM      5  C   UNL     1       4.833   3.618  17.396  0.00  0.00    +0.000 C 
ATOM      6  O   UNL     1       4.969   2.966  16.359  0.00  0.00    +0.000 OA
ATOM      7  C   UNL     1       5.584   5.601  18.818  0.00  0.00    +0.000 C 
ATOM      8  C   UNL     1       6.929   5.605  19.550  0.00  0.00    +0.000 C 
ENDROOT
BRANCH   5   9
ATOM      9  C   UNL     1       3.714   3.268  18.379  0.00  0.00    +0.000 C 
ATOM     10  C   UNL     1       2.368   3.034  17.710  0.00  0.00    +0.000 C 
ATOM     11  C   UNL     1       1.655   4.357  17.811  0.00  0.00    +0.000 C 
ATOM     12  O   UNL     1       0.625   4.580  17.192  0.00  0.00    +0.000 OA
ATOM     13  N   UNL     1       2.345   5.163  18.718  0.00  0.00    +0.000 N 
ATOM     14  C   UNL     1       3.422   4.421  19.339  0.00  0.00    +0.000 C 
BRANCH  13  15
ATOM     15  C   UNL     1       2.072   6.531  18.998  0.00  0.00    +0.000 A 
ATOM     16  C   UNL     1       1.674   6.948  20.275  0.00  0.00    +0.000 A 
ATOM     17  C   UNL     1       1.320   8.277  20.538  0.00  0.00    +0.000 A 
ATOM     18  C   UNL     1       1.363   9.235  19.527  0.00  0.00    +0.000 A 
ATOM     19  C   UNL     1       0.917  10.643  19.786  0.00  0.00    +0.000 C 
ATOM     20  C   UNL     1       1.783   8.843  18.254  0.00  0.00    +0.000 A 
ATOM     21  C   UNL     1       2.137   7.510  17.995  0.00  0.00    +0.000 A 
ENDBRANCH  13  15
ENDBRANCH   5   9
BRANCH   1  23
ATOM     22  N   UNL     1       8.907   8.293  18.985  0.00  0.00    +0.000 N 
ATOM     23  C   UNL     1       8.036   7.495  18.261  0.00  0.00    +0.000 C 
ATOM     24  O   UNL     1       7.286   7.898  17.375  0.00  0.00    +0.000 OA
ATOM     25  H   UNL     1       9.661   7.837  19.483  0.00  0.00    +0.000 HD
BRANCH  22  29
ATOM     26  C   UNL     1       8.976  12.537  18.800  0.00  0.00    +0.000 A 
ATOM     27  C   UNL     1       9.387  11.872  19.952  0.00  0.00    +0.000 A 
ATOM     28  C   UNL     1       9.370  10.478  20.018  0.00  0.00    +0.000 A 
ATOM     29  C   UNL     1       8.933   9.709  18.942  0.00  0.00    +0.000 A 
ATOM     30  C   UNL     1       8.530  10.369  17.774  0.00  0.00    +0.000 A 
ATOM     31  C   UNL     1       8.533  11.776  17.713  0.00  0.00    +0.000 A 
BRANCH  26  35
ATOM     32  C   UNL     1       9.759  16.188  18.274  0.00  0.00    +0.000 C 
ATOM     33  C   UNL     1       9.997  14.710  18.145  0.00  0.00    +0.000 C 
ATOM     34  O   UNL     1      11.007  14.293  17.588  0.00  0.00    +0.000 OA
ATOM     35  N   UNL     1       8.980  13.945  18.697  0.00  0.00    +0.000 N 
ATOM     36  H   UNL     1       8.134  14.426  18.972  0.00  0.00    +0.000 HD
ENDBRANCH  26  35
ENDBRANCH  22  29
ENDBRANCH   1  23
TORSDOF 5
ENDMDL
MODEL 8
REMARK VINA RESULT:      -7.3      2.057      2.902
REMARK  Name = 
REMARK  7 active torsions:
REMARK  status: ('A' for Active; 'I' for Inactive)
REMARK    1  A    between atoms: C_1  and  C_2
REMARK    2  A    between atoms: N_4  and  C_5
REMARK    3  A    between atoms: C_8  and  N_9
REMARK    4  A    between atoms: C_10  and  C_12
REMARK    5  A    between atoms: C_16  and  C_18
REMARK    6  A    between atoms: N_22  and  C_23
REMARK    7  A    between atoms: C_26  and  C_27
REMARK                            x       y       z     vdW  Elec       q    Type
REMARK                         _______ _______ _______ _____ _____    ______ ____
ROOT
ATOM      1  C   UNL     1      -0.098   9.837  20.589  0.00  0.00    +0.000 C 
ATOM      2  C   UNL     1      -0.681  10.410  19.279  0.00  0.00    +0.000 C 
ATOM      3  C   UNL     1       0.223  11.468  18.642  0.00  0.00    +0.000 C 
ATOM      4  N   UNL     1       0.592  12.496  19.619  0.00  0.00    +0.000 N 
ATOM      5  C   UNL     1       0.346  13.829  19.314  0.00  0.00    +0.000 C 
ATOM      6  O   UNL     1      -0.189  14.145  18.250  0.00  0.00    +0.000 OA
ATOM      7  C   UNL     1       1.262  11.970  20.805  0.00  0.00    +0.000 C 
ATOM      8  C   UNL     1       0.339  10.980  21.520  0.00  0.00    +0.000 C 
ENDROOT
BRANCH   5   9
ATOM      9  C   UNL     1       0.798  14.912  20.296  0.00  0.00    +0.000 C 
ATOM     10  C   UNL     1       0.540  16.327  19.801  0.00  0.00    +0.000 C 
ATOM     11  C   UNL     1       1.839  16.756  19.172  0.00  0.00    +0.000 C 
ATOM     12  O   UNL     1       1.920  17.769  18.493  0.00  0.00    +0.000 OA
ATOM     13  N   UNL     1       2.833  15.851  19.550  0.00  0.00    +0.000 N 
ATOM     14  C   UNL     1       2.312  14.894  20.503  0.00  0.00    +0.000 C 
BRANCH  13  15
ATOM     15  C   UNL     1       4.170  15.827  19.065  0.00  0.00    +0.000 A 
ATOM     16  C   UNL     1       4.639  14.771  18.272  0.00  0.00    +0.000 A 
ATOM     17  C   UNL     1       5.976  14.695  17.863  0.00  0.00    +0.000 A 
ATOM     18  C   UNL     1       6.886  15.684  18.230  0.00  0.00    +0.000 A 
ATOM     19  C   UNL     1       8.333  15.570  17.854  0.00  0.00    +0.000 C 
ATOM     20  C   UNL     1       6.432  16.758  18.998  0.00  0.00    +0.000 A 
ATOM     21  C   UNL     1       5.091  16.829  19.406  0.00  0.00    +0.000 A 
ENDBRANCH  13  15
ENDBRANCH   5   9
BRANCH   1  23
ATOM     22  N   UNL     1       1.296   8.654  18.948  0.00  0.00    +0.000 N 
ATOM     23  C   UNL     1       1.050   8.870  20.294  0.00  0.00    +0.000 C 
ATOM     24  O   UNL     1       1.692   8.371  21.215  0.00  0.00    +0.000 OA
ATOM     25  H   UNL     1       0.902   9.310  18.285  0.00  0.00    +0.000 HD
BRANCH  22  29
ATOM     26  C   UNL     1       4.026   5.801  17.381  0.00  0.00    +0.000 A 
ATOM     27  C   UNL     1       2.836   5.390  17.975  0.00  0.00    +0.000 A 
ATOM     28  C   UNL     1       1.933   6.322  18.489  0.00  0.00    +0.000 A 
ATOM     29  C   UNL     1       2.197   7.688  18.434  0.00  0.00    +0.000 A 
ATOM     30  C   UNL     1       3.385   8.112  17.827  0.00  0.00    +0.000 A 
ATOM     31  C   UNL     1       4.303   7.171  17.321  0.00  0.00    +0.000 A 
BRANCH  26  35
ATOM     32  C   UNL     1       6.444   3.809  15.282  0.00  0.00    +0.000 C 
ATOM     33  C   UNL     1       5.576   4.991  15.611  0.00  0.00    +0.000 C 
ATOM     34  O   UNL     1       5.474   5.922  14.818  0.00  0.00    +0.000 OA
ATOM     35  N   UNL     1       4.962   4.887  16.849  0.00  0.00    +0.000 N 
ATOM     36  H   UNL     1       5.271   4.143  17.460  0.00  0.00    +0.000 HD
ENDBRANCH  26  35
ENDBRANCH  22  29
ENDBRANCH   1  23
TORSDOF 5
ENDMDL
MODEL 9
REMARK VINA RESULT:      -7.3      3.596      6.193
REMARK  Name = 
REMARK  7 active torsions:
REMARK  status: ('A' for Active; 'I' for Inactive)
REMARK    1  A    between atoms: C_1  and  C_2
REMARK    2  A    between atoms: N_4  and  C_5
REMARK    3  A    between atoms: C_8  and  N_9
REMARK    4  A    between atoms: C_10  and  C_12
REMARK    5  A    between atoms: C_16  and  C_18
REMARK    6  A    between atoms: N_22  and  C_23
REMARK    7  A    between atoms: C_26  and  C_27
REMARK                            x       y       z     vdW  Elec       q    Type
REMARK                         _______ _______ _______ _____ _____    ______ ____
ROOT
ATOM      1  C   UNL     1       4.803  16.488  21.585  0.00  0.00    +0.000 C 
ATOM      2  C   UNL     1       4.893  17.527  20.446  0.00  0.00    +0.000 C 
ATOM      3  C   UNL     1       5.800  17.072  19.300  0.00  0.00    +0.000 C 
ATOM      4  N   UNL     1       7.106  16.642  19.808  0.00  0.00    +0.000 N 
ATOM      5  C   UNL     1       8.254  17.219  19.280  0.00  0.00    +0.000 C 
ATOM      6  O   UNL     1       8.180  18.092  18.413  0.00  0.00    +0.000 OA
ATOM      7  C   UNL     1       7.031  15.566  20.793  0.00  0.00    +0.000 C 
ATOM      8  C   UNL     1       6.211  16.030  21.999  0.00  0.00    +0.000 C 
ENDROOT
BRANCH   5   9
ATOM      9  C   UNL     1       9.622  16.721  19.751  0.00  0.00    +0.000 C 
ATOM     10  C   UNL     1      10.690  16.763  18.668  0.00  0.00    +0.000 C 
ATOM     11  C   UNL     1      10.701  15.373  18.087  0.00  0.00    +0.000 C 
ATOM     12  O   UNL     1      11.302  15.113  17.055  0.00  0.00    +0.000 OA
ATOM     13  N   UNL     1       9.983  14.532  18.940  0.00  0.00    +0.000 N 
ATOM     14  C   UNL     1       9.585  15.242  20.136  0.00  0.00    +0.000 C 
BRANCH  13  15
ATOM     15  C   UNL     1       9.649  13.172  18.687  0.00  0.00    +0.000 A 
ATOM     16  C   UNL     1       8.668  12.826  17.748  0.00  0.00    +0.000 A 
ATOM     17  C   UNL     1       8.272  11.496  17.555  0.00  0.00    +0.000 A 
ATOM     18  C   UNL     1       8.856  10.468  18.292  0.00  0.00    +0.000 A 
ATOM     19  C   UNL     1       8.385   9.053  18.139  0.00  0.00    +0.000 C 
ATOM     20  C   UNL     1       9.854  10.792  19.213  0.00  0.00    +0.000 A 
ATOM     21  C   UNL     1      10.248  12.126  19.404  0.00  0.00    +0.000 A 
ENDBRANCH  13  15
ENDBRANCH   5   9
BRANCH   1  23
ATOM     22  N   UNL     1       3.259  15.473  19.965  0.00  0.00    +0.000 N 
ATOM     23  C   UNL     1       3.916  15.311  21.173  0.00  0.00    +0.000 C 
ATOM     24  O   UNL     1       3.847  14.310  21.883  0.00  0.00    +0.000 OA
ATOM     25  H   UNL     1       3.591  16.197  19.341  0.00  0.00    +0.000 HD
BRANCH  22  29
ATOM     26  C   UNL     1       0.255  12.863  18.475  0.00  0.00    +0.000 A 
ATOM     27  C   UNL     1       1.604  12.568  18.294  0.00  0.00    +0.000 A 
ATOM     28  C   UNL     1       2.595  13.419  18.783  0.00  0.00    +0.000 A 
ATOM     29  C   UNL     1       2.270  14.593  19.457  0.00  0.00    +0.000 A 
ATOM     30  C   UNL     1       0.917  14.893  19.657  0.00  0.00    +0.000 A 
ATOM     31  C   UNL     1      -0.084  14.041  19.149  0.00  0.00    +0.000 A 
BRANCH  26  35
ATOM     32  C   UNL     1      -2.148  10.068  17.679  0.00  0.00    +0.000 C 
ATOM     33  C   UNL     1      -1.061  10.751  18.460  0.00  0.00    +0.000 C 
ATOM     34  O   UNL     1      -0.530  10.181  19.408  0.00  0.00    +0.000 OA
ATOM     35  N   UNL     1      -0.775  12.025  17.994  0.00  0.00    +0.000 N 
ATOM     36  H   UNL     1      -1.407  12.424  17.313  0.00  0.00    +0.000 HD
ENDBRANCH  26  35
ENDBRANCH  22  29
ENDBRANCH   1  23
TORSDOF 5
ENDMDL
