MODEL 1
REMARK VINA RESULT:      -6.8      0.000      0.000
REMARK  Name = 
REMARK  4 active torsions:
REMARK  status: ('A' for Active; 'I' for Inactive)
REMARK    1  A    between atoms: C_1  and  C_2
REMARK    2  A    between atoms: C_2  and  C_3
REMARK    3  A    between atoms: C_5  and  C_6
REMARK    4  A    between atoms: N_11  and  C_12
REMARK                            x       y       z     vdW  Elec       q    Type
REMARK                         _______ _______ _______ _____ _____    ______ ____
ROOT
ATOM      1  C   UNL     1       4.650   4.698  17.128  0.00  0.00    +0.000 A 
ATOM      2  N   UNL     1       4.532   3.662  16.347  0.00  0.00    +0.000 NA
ATOM      3  N   UNL     1       5.811   3.398  15.971  0.00  0.00    +0.000 N 
ATOM      4  C   UNL     1       6.679   4.351  16.482  0.00  0.00    +0.000 A 
ATOM      5  O   UNL     1       7.854   4.452  16.184  0.00  0.00    +0.000 OA
ATOM      6  N   UNL     1       5.926   5.135  17.328  0.00  0.00    +0.000 N 
ATOM      7  H   UNL     1       6.049   2.690  15.290  0.00  0.00    +0.000 HD
ENDROOT
BRANCH   1  12
ATOM      8  C   UNL     1       2.405   5.923  20.014  0.00  0.00    +0.000 C 
ATOM      9  C   UNL     1       2.891   4.867  19.054  0.00  0.00    +0.000 C 
ATOM     10  C   UNL     1       3.473   3.645  19.724  0.00  0.00    +0.000 C 
ATOM     11  C   UNL     1       2.122   4.650  17.774  0.00  0.00    +0.000 C 
ATOM     12  C   UNL     1       3.464   5.345  17.720  0.00  0.00    +0.000 C 
ENDBRANCH   1  12
BRANCH   6  13
ATOM     13  C   UNL     1       6.417   6.342  18.002  0.00  0.00    +0.000 C 
ATOM     14  C   UNL     1       7.727   6.134  18.757  0.00  0.00    +0.000 C 
ATOM     15  C   UNL     1       8.411   7.490  18.839  0.00  0.00    +0.000 C 
ATOM     16  C   UNL     1       7.831   8.334  17.720  0.00  0.00    +0.000 C 
ATOM     17  C   UNL     1       6.758   7.492  17.045  0.00  0.00    +0.000 C 
ENDBRANCH   6  13
TORSDOF 2
ENDMDL
MODEL 2
REMARK VINA RESULT:      -6.6      2.413      4.523
REMARK  Name = 
REMARK  4 active torsions:
REMARK  status: ('A' for Active; 'I' for Inactive)
REMARK    1  A    between atoms: C_1  and  C_2
REMARK    2  A    between atoms: C_2  and  C_3
REMARK    3  A    between atoms: C_5  and  C_6
REMARK    4  A    between atoms: N_11  and  C_12
REMARK                            x       y       z     vdW  Elec       q    Type
REMARK                         _______ _______ _______ _____ _____    ______ ____
ROOT
ATOM      1  C   UNL     1       5.134   4.459  19.114  0.00  0.00    +0.000 A 
ATOM      2  N   UNL     1       5.567   3.302  19.528  0.00  0.00    +0.000 NA
ATOM      3  N   UNL     1       4.474   2.500  19.434  0.00  0.00    +0.000 N 
ATOM      4  C   UNL     1       3.364   3.229  19.034  0.00  0.00    +0.000 A 
ATOM      5  O   UNL     1       2.224   2.805  19.015  0.00  0.00    +0.000 OA
ATOM      6  N   UNL     1       3.829   4.487  18.720  0.00  0.00    +0.000 N 
ATOM      7  H   UNL     1       4.463   1.545  19.763  0.00  0.00    +0.000 HD
ENDROOT
BRANCH   1  12
ATOM      8  C   UNL     1       7.338   7.174  17.487  0.00  0.00    +0.000 C 
ATOM      9  C   UNL     1       7.117   5.797  18.061  0.00  0.00    +0.000 C 
ATOM     10  C   UNL     1       7.390   4.674  17.089  0.00  0.00    +0.000 C 
ATOM     11  C   UNL     1       7.469   5.557  19.509  0.00  0.00    +0.000 C 
ATOM     12  C   UNL     1       6.013   5.643  19.107  0.00  0.00    +0.000 C 
ENDBRANCH   1  12
BRANCH   6  13
ATOM     13  C   UNL     1       2.975   5.624  18.356  0.00  0.00    +0.000 C 
ATOM     14  C   UNL     1       2.498   6.440  19.554  0.00  0.00    +0.000 C 
ATOM     15  C   UNL     1       2.208   7.844  19.044  0.00  0.00    +0.000 C 
ATOM     16  C   UNL     1       2.997   8.009  17.759  0.00  0.00    +0.000 C 
ATOM     17  C   UNL     1       3.679   6.675  17.488  0.00  0.00    +0.000 C 
ENDBRANCH   6  13
TORSDOF 2
ENDMDL
MODEL 3
REMARK VINA RESULT:      -6.6      3.707      5.629
REMARK  Name = 
REMARK  4 active torsions:
REMARK  status: ('A' for Active; 'I' for Inactive)
REMARK    1  A    between atoms: C_1  and  C_2
REMARK    2  A    between atoms: C_2  and  C_3
REMARK    3  A    between atoms: C_5  and  C_6
REMARK    4  A    between atoms: N_11  and  C_12
REMARK                            x       y       z     vdW  Elec       q    Type
REMARK                         _______ _______ _______ _____ _____    ______ ____
ROOT
ATOM      1  C   UNL     1       2.799   5.722  18.284  0.00  0.00    +0.000 A 
ATOM      2  N   UNL     1       3.163   6.788  17.630  0.00  0.00    +0.000 NA
ATOM      3  N   UNL     1       2.847   7.805  18.476  0.00  0.00    +0.000 N 
ATOM      4  C   UNL     1       2.214   7.320  19.609  0.00  0.00    +0.000 A 
ATOM      5  O   UNL     1       1.687   8.012  20.460  0.00  0.00    +0.000 OA
ATOM      6  N   UNL     1       2.285   5.947  19.526  0.00  0.00    +0.000 N 
ATOM      7  H   UNL     1       2.935   8.779  18.221  0.00  0.00    +0.000 HD
ENDROOT
BRANCH   1  12
ATOM      8  C   UNL     1       3.749   1.985  18.233  0.00  0.00    +0.000 C 
ATOM      9  C   UNL     1       4.072   3.449  18.074  0.00  0.00    +0.000 C 
ATOM     10  C   UNL     1       5.157   3.945  19.000  0.00  0.00    +0.000 C 
ATOM     11  C   UNL     1       4.018   4.051  16.692  0.00  0.00    +0.000 C 
ATOM     12  C   UNL     1       2.925   4.381  17.684  0.00  0.00    +0.000 C 
ENDBRANCH   1  12
BRANCH   6  13
ATOM     13  C   UNL     1       1.638   5.021  20.464  0.00  0.00    +0.000 C 
ATOM     14  C   UNL     1       0.910   3.867  19.782  0.00  0.00    +0.000 C 
ATOM     15  C   UNL     1       0.862   2.722  20.782  0.00  0.00    +0.000 C 
ATOM     16  C   UNL     1       1.979   2.971  21.778  0.00  0.00    +0.000 C 
ATOM     17  C   UNL     1       2.619   4.299  21.397  0.00  0.00    +0.000 C 
ENDBRANCH   6  13
TORSDOF 2
ENDMDL
MODEL 4
REMARK VINA RESULT:      -6.4      1.761      3.397
REMARK  Name = 
REMARK  4 active torsions:
REMARK  status: ('A' for Active; 'I' for Inactive)
REMARK    1  A    between atoms: C_1  and  C_2
REMARK    2  A    between atoms: C_2  and  C_3
REMARK    3  A    between atoms: C_5  and  C_6
REMARK    4  A    between atoms: N_11  and  C_12
REMARK                            x       y       z     vdW  Elec       q    Type
REMARK                         _______ _______ _______ _____ _____    ______ ____
ROOT
ATOM      1  C   UNL     1       5.058   4.503  18.848  0.00  0.00    +0.000 A 
ATOM      2  N   UNL     1       5.742   4.743  19.930  0.00  0.00    +0.000 NA
ATOM      3  N   UNL     1       6.908   5.263  19.462  0.00  0.00    +0.000 N 
ATOM      4  C   UNL     1       6.929   5.248  18.076  0.00  0.00    +0.000 A 
ATOM      5  O   UNL     1       7.902   5.509  17.393  0.00  0.00    +0.000 OA
ATOM      6  N   UNL     1       5.671   4.851  17.681  0.00  0.00    +0.000 N 
ATOM      7  H   UNL     1       7.692   5.480  20.061  0.00  0.00    +0.000 HD
ENDROOT
BRANCH   1  12
ATOM      8  C   UNL     1       1.360   4.026  17.864  0.00  0.00    +0.000 C 
ATOM      9  C   UNL     1       2.458   4.689  18.657  0.00  0.00    +0.000 C 
ATOM     10  C   UNL     1       2.557   6.181  18.445  0.00  0.00    +0.000 C 
ATOM     11  C   UNL     1       2.761   4.167  20.040  0.00  0.00    +0.000 C 
ATOM     12  C   UNL     1       3.726   3.874  18.913  0.00  0.00    +0.000 C 
ENDBRANCH   1  12
BRANCH   6  13
ATOM     13  C   UNL     1       5.278   4.588  16.291  0.00  0.00    +0.000 C 
ATOM     14  C   UNL     1       5.389   5.807  15.381  0.00  0.00    +0.000 C 
ATOM     15  C   UNL     1       5.582   5.286  13.965  0.00  0.00    +0.000 C 
ATOM     16  C   UNL     1       6.121   3.874  14.094  0.00  0.00    +0.000 C 
ATOM     17  C   UNL     1       6.163   3.554  15.582  0.00  0.00    +0.000 C 
ENDBRANCH   6  13
TORSDOF 2
ENDMDL
MODEL 5
REMARK VINA RESULT:      -6.3      2.435      3.262
REMARK  Name = 
REMARK  4 active torsions:
REMARK  status: ('A' for Active; 'I' for Inactive)
REMARK    1  A    between atoms: C_1  and  C_2
REMARK    2  A    between atoms: C_2  and  C_3
REMARK    3  A    between atoms: C_5  and  C_6
REMARK    4  A    between atoms: N_11  and  C_12
REMARK                            x       y       z     vdW  Elec       q    Type
REMARK                         _______ _______ _______ _____ _____    ______ ____
ROOT
ATOM      1  C   UNL     1       3.256   3.989  18.824  0.00  0.00    +0.000 A 
ATOM      2  N   UNL     1       2.308   3.258  19.338  0.00  0.00    +0.000 NA
ATOM      3  N   UNL     1       2.979   2.347  20.091  0.00  0.00    +0.000 N 
ATOM      4  C   UNL     1       4.349   2.506  19.945  0.00  0.00    +0.000 A 
ATOM      5  O   UNL     1       5.188   1.738  20.379  0.00  0.00    +0.000 OA
ATOM      6  N   UNL     1       4.522   3.652  19.201  0.00  0.00    +0.000 N 
ATOM      7  H   UNL     1       2.522   1.578  20.560  0.00  0.00    +0.000 HD
ENDROOT
BRANCH   1  12
ATOM      8  C   UNL     1       3.170   7.653  17.623  0.00  0.00    +0.000 C 
ATOM      9  C   UNL     1       2.607   6.484  18.391  0.00  0.00    +0.000 C 
ATOM     10  C   UNL     1       2.469   6.730  19.874  0.00  0.00    +0.000 C 
ATOM     11  C   UNL     1       1.548   5.634  17.732  0.00  0.00    +0.000 C 
ATOM     12  C   UNL     1       2.949   5.083  17.884  0.00  0.00    +0.000 C 
ENDBRANCH   1  12
BRANCH   6  13
ATOM     13  C   UNL     1       5.816   4.139  18.710  0.00  0.00    +0.000 C 
ATOM     14  C   UNL     1       5.858   4.351  17.199  0.00  0.00    +0.000 C 
ATOM     15  C   UNL     1       6.930   5.396  16.929  0.00  0.00    +0.000 C 
ATOM     16  C   UNL     1       7.115   6.169  18.221  0.00  0.00    +0.000 C 
ATOM     17  C   UNL     1       6.208   5.519  19.256  0.00  0.00    +0.000 C 
ENDBRANCH   6  13
TORSDOF 2
ENDMDL
MODEL 6
REMARK VINA RESULT:      -6.3      2.659      4.028
REMARK  Name = 
REMARK  4 active torsions:
REMARK  status: ('A' for Active; 'I' for Inactive)
REMARK    1  A    between atoms: C_1  and  C_2
REMARK    2  A    between atoms: C_2  and  C_3
REMARK    3  A    between atoms: C_5  and  C_6
REMARK    4  A    between atoms: N_11  and  C_12
REMARK                            x       y       z     vdW  Elec       q    Type
REMARK                         _______ _______ _______ _____ _____    ______ ____
ROOT
ATOM      1  C   UNL     1       3.186   5.128  19.265  0.00  0.00    +0.000 A 
ATOM      2  N   UNL     1       2.338   5.710  20.064  0.00  0.00    +0.000 NA
ATOM      3  N   UNL     1       2.176   6.944  19.515  0.00  0.00    +0.000 N 
ATOM      4  C   UNL     1       3.011   7.105  18.420  0.00  0.00    +0.000 A 
ATOM      5  O   UNL     1       3.189   8.155  17.831  0.00  0.00    +0.000 OA
ATOM      6  N   UNL     1       3.588   5.874  18.197  0.00  0.00    +0.000 N 
ATOM      7  H   UNL     1       1.632   7.673  19.954  0.00  0.00    +0.000 HD
ENDROOT
BRANCH   1  12
ATOM      8  C   UNL     1       3.702   1.379  18.523  0.00  0.00    +0.000 C 
ATOM      9  C   UNL     1       2.900   2.538  19.059  0.00  0.00    +0.000 C 
ATOM     10  C   UNL     1       1.555   2.716  18.396  0.00  0.00    +0.000 C 
ATOM     11  C   UNL     1       2.989   2.855  20.532  0.00  0.00    +0.000 C 
ATOM     12  C   UNL     1       3.677   3.765  19.538  0.00  0.00    +0.000 C 
ENDBRANCH   1  12
BRANCH   6  13
ATOM     13  C   UNL     1       4.631   5.612  17.200  0.00  0.00    +0.000 C 
ATOM     14  C   UNL     1       6.011   5.370  17.805  0.00  0.00    +0.000 C 
ATOM     15  C   UNL     1       6.789   4.525  16.808  0.00  0.00    +0.000 C 
ATOM     16  C   UNL     1       5.762   3.833  15.933  0.00  0.00    +0.000 C 
ATOM     17  C   UNL     1       4.396   4.339  16.375  0.00  0.00    +0.000 C 
ENDBRANCH   6  13
TORSDOF 2
ENDMDL
MODEL 7
REMARK VINA RESULT:      -6.3      2.359      4.699
REMARK  Name = 
REMARK  4 active torsions:
REMARK  status: ('A' for Active; 'I' for Inactive)
REMARK    1  A    between atoms: C_1  and  C_2
REMARK    2  A    between atoms: C_2  and  C_3
REMARK    3  A    between atoms: C_5  and  C_6
REMARK    4  A    between atoms: N_11  and  C_12
REMARK                            x       y       z     vdW  Elec       q    Type
REMARK                         _______ _______ _______ _____ _____    ______ ____
ROOT
ATOM      1  C   UNL     1       4.466   4.265  17.764  0.00  0.00    +0.000 A 
ATOM      2  N   UNL     1       4.257   3.064  17.304  0.00  0.00    +0.000 NA
ATOM      3  N   UNL     1       2.916   2.897  17.447  0.00  0.00    +0.000 N 
ATOM      4  C   UNL     1       2.350   3.994  18.078  0.00  0.00    +0.000 A 
ATOM      5  O   UNL     1       1.199   4.052  18.471  0.00  0.00    +0.000 OA
ATOM      6  N   UNL     1       3.353   4.931  18.183  0.00  0.00    +0.000 N 
ATOM      7  H   UNL     1       2.447   2.023  17.251  0.00  0.00    +0.000 HD
ENDROOT
BRANCH   1  12
ATOM      8  C   UNL     1       7.148   7.008  17.369  0.00  0.00    +0.000 C 
ATOM      9  C   UNL     1       6.298   5.882  16.836  0.00  0.00    +0.000 C 
ATOM     10  C   UNL     1       5.401   6.277  15.688  0.00  0.00    +0.000 C 
ATOM     11  C   UNL     1       6.884   4.491  16.807  0.00  0.00    +0.000 C 
ATOM     12  C   UNL     1       5.828   4.826  17.837  0.00  0.00    +0.000 C 
ENDBRANCH   1  12
BRANCH   6  13
ATOM     13  C   UNL     1       3.227   6.210  18.891  0.00  0.00    +0.000 C 
ATOM     14  C   UNL     1       2.576   7.311  18.058  0.00  0.00    +0.000 C 
ATOM     15  C   UNL     1       1.951   8.294  19.036  0.00  0.00    +0.000 C 
ATOM     16  C   UNL     1       1.747   7.539  20.336  0.00  0.00    +0.000 C 
ATOM     17  C   UNL     1       2.326   6.147  20.132  0.00  0.00    +0.000 C 
ENDBRANCH   6  13
TORSDOF 2
ENDMDL
MODEL 8
REMARK VINA RESULT:      -6.2      2.572      4.764
REMARK  Name = 
REMARK  4 active torsions:
REMARK  status: ('A' for Active; 'I' for Inactive)
REMARK    1  A    between atoms: C_1  and  C_2
REMARK    2  A    between atoms: C_2  and  C_3
REMARK    3  A    between atoms: C_5  and  C_6
REMARK    4  A    between atoms: N_11  and  C_12
REMARK                            x       y       z     vdW  Elec       q    Type
REMARK                         _______ _______ _______ _____ _____    ______ ____
ROOT
ATOM      1  C   UNL     1       5.220   4.884  19.034  0.00  0.00    +0.000 A 
ATOM      2  N   UNL     1       5.239   3.591  19.186  0.00  0.00    +0.000 NA
ATOM      3  N   UNL     1       3.922   3.258  19.254  0.00  0.00    +0.000 N 
ATOM      4  C   UNL     1       3.128   4.394  19.221  0.00  0.00    +0.000 A 
ATOM      5  O   UNL     1       1.927   4.409  19.418  0.00  0.00    +0.000 OA
ATOM      6  N   UNL     1       3.980   5.446  18.966  0.00  0.00    +0.000 N 
ATOM      7  H   UNL     1       3.602   2.321  19.454  0.00  0.00    +0.000 HD
ENDROOT
BRANCH   1  12
ATOM      8  C   UNL     1       7.630   7.523  17.586  0.00  0.00    +0.000 C 
ATOM      9  C   UNL     1       7.031   6.141  17.628  0.00  0.00    +0.000 C 
ATOM     10  C   UNL     1       6.358   5.720  16.344  0.00  0.00    +0.000 C 
ATOM     11  C   UNL     1       7.748   5.069  18.413  0.00  0.00    +0.000 C 
ATOM     12  C   UNL     1       6.472   5.661  18.968  0.00  0.00    +0.000 C 
ENDBRANCH   1  12
BRANCH   6  13
ATOM     13  C   UNL     1       3.581   6.858  18.959  0.00  0.00    +0.000 C 
ATOM     14  C   UNL     1       3.196   7.379  17.577  0.00  0.00    +0.000 C 
ATOM     15  C   UNL     1       2.249   8.549  17.794  0.00  0.00    +0.000 C 
ATOM     16  C   UNL     1       1.660   8.377  19.181  0.00  0.00    +0.000 C 
ATOM     17  C   UNL     1       2.327   7.153  19.792  0.00  0.00    +0.000 C 
ENDBRANCH   6  13
TORSDOF 2
ENDMDL
MODEL 9
REMARK VINA RESULT:      -6.2      1.871      3.242
REMARK  Name = 
REMARK  4 active torsions:
REMARK  status: ('A' for Active; 'I' for Inactive)
REMARK    1  A    between atoms: C_1  and  C_2
REMARK    2  A    between atoms: C_2  and  C_3
REMARK    3  A    between atoms: C_5  and  C_6
REMARK    4  A    between atoms: N_11  and  C_12
REMARK                            x       y       z     vdW  Elec       q    Type
REMARK                         _______ _______ _______ _____ _____    ______ ____
ROOT
ATOM      1  C   UNL     1       5.661   5.265  18.915  0.00  0.00    +0.000 A 
ATOM      2  N   UNL     1       6.546   5.287  19.871  0.00  0.00    +0.000 NA
ATOM      3  N   UNL     1       7.711   4.991  19.235  0.00  0.00    +0.000 N 
ATOM      4  C   UNL     1       7.481   4.713  17.897  0.00  0.00    +0.000 A 
ATOM      5  O   UNL     1       8.313   4.272  17.126  0.00  0.00    +0.000 OA
ATOM      6  N   UNL     1       6.153   5.002  17.671  0.00  0.00    +0.000 N 
ATOM      7  H   UNL     1       8.583   4.851  19.725  0.00  0.00    +0.000 HD
ENDROOT
BRANCH   1  12
ATOM      8  C   UNL     1       2.318   4.673  20.744  0.00  0.00    +0.000 C 
ATOM      9  C   UNL     1       3.337   4.347  19.681  0.00  0.00    +0.000 C 
ATOM     10  C   UNL     1       3.893   2.946  19.769  0.00  0.00    +0.000 C 
ATOM     11  C   UNL     1       3.147   4.928  18.301  0.00  0.00    +0.000 C 
ATOM     12  C   UNL     1       4.231   5.488  19.195  0.00  0.00    +0.000 C 
ENDBRANCH   1  12
BRANCH   6  13
ATOM     13  C   UNL     1       5.448   4.746  16.410  0.00  0.00    +0.000 C 
ATOM     14  C   UNL     1       5.586   5.872  15.390  0.00  0.00    +0.000 C 
ATOM     15  C   UNL     1       5.394   5.250  14.015  0.00  0.00    +0.000 C 
ATOM     16  C   UNL     1       5.689   3.770  14.166  0.00  0.00    +0.000 C 
ATOM     17  C   UNL     1       5.974   3.527  15.641  0.00  0.00    +0.000 C 
ENDBRANCH   6  13
TORSDOF 2
ENDMDL
