MODEL 1
REMARK VINA RESULT:     -10.1      0.000      0.000
REMARK  Name = 
REMARK  8 active torsions:
REMARK  status: ('A' for Active; 'I' for Inactive)
REMARK    1  A    between atoms: C_1  and  S_2
REMARK    2  A    between atoms: S_2  and  C_5
REMARK    3  A    between atoms: N_13  and  C_14
REMARK    4  A    between atoms: C_14  and  C_15
REMARK    5  A    between atoms: C_15  and  C_16
REMARK    6  A    between atoms: C_19  and  N_20
REMARK    7  A    between atoms: C_21  and  C_23
REMARK    8  A    between atoms: C_24  and  C_25
REMARK                            x       y       z     vdW  Elec       q    Type
REMARK                         _______ _______ _______ _____ _____    ______ ____
ROOT
ATOM      1  C   UNL     1       4.724   3.958  17.854  0.00  0.00    +0.000 C 
ATOM      2  C   UNL     1       5.252   4.251  19.268  0.00  0.00    +0.000 C 
ATOM      3  C   UNL     1       6.138   5.499  19.314  0.00  0.00    +0.000 C 
ATOM      4  C   UNL     1       7.292   5.438  18.301  0.00  0.00    +0.000 C 
ATOM      5  C   UNL     1       6.748   5.136  16.903  0.00  0.00    +0.000 C 
ATOM      6  C   UNL     1       5.899   3.880  16.875  0.00  0.00    +0.000 C 
ENDROOT
BRANCH   4   7
ATOM      7  N   UNL     1       8.060   6.680  18.294  0.00  0.00    +0.000 N 
ATOM      8  C   UNL     1       7.619   7.789  17.614  0.00  0.00    +0.000 C 
ATOM      9  O   UNL     1       6.578   7.833  16.966  0.00  0.00    +0.000 OA
ATOM     10  H   UNL     1       9.006   6.660  18.651  0.00  0.00    +0.000 HD
BRANCH   8  11
ATOM     11  C   UNL     1       8.531   8.948  17.703  0.00  0.00    +0.000 C 
ATOM     12  C   UNL     1       8.722   9.495  18.919  0.00  0.00    +0.000 C 
BRANCH  12  13
ATOM     13  C   UNL     1       9.530  10.690  19.144  0.00  0.00    +0.000 A 
ATOM     14  C   UNL     1       9.791  11.120  20.456  0.00  0.00    +0.000 A 
ATOM     15  C   UNL     1      10.575  12.254  20.682  0.00  0.00    +0.000 A 
ATOM     16  C   UNL     1      11.113  12.950  19.603  0.00  0.00    +0.000 A 
ATOM     17  C   UNL     1      10.871  12.505  18.308  0.00  0.00    +0.000 A 
ATOM     18  F   UNL     1      11.403  13.166  17.271  0.00  0.00    +0.000 F 
ATOM     19  C   UNL     1      10.091  11.384  18.071  0.00  0.00    +0.000 A 
ENDBRANCH  12  13
ENDBRANCH   8  11
ENDBRANCH   4   7
BRANCH   1  20
ATOM     20  C   UNL     1       3.884   2.659  17.812  0.00  0.00    +0.000 C 
BRANCH  20  21
ATOM     21  C   UNL     1       2.929   2.582  19.015  0.00  0.00    +0.000 C 
BRANCH  21  30
ATOM     22  C   UNL     1       1.416   8.691  19.376  0.00  0.00    +0.000 A 
ATOM     23  C   UNL     1       1.294   8.432  20.737  0.00  0.00    +0.000 A 
ATOM     24  C   UNL     1       1.463   7.128  21.194  0.00  0.00    +0.000 A 
ATOM     25  C   UNL     1       1.748   6.072  20.304  0.00  0.00    +0.000 A 
ATOM     26  C   UNL     1       1.954   6.363  18.939  0.00  0.00    +0.000 A 
ATOM     27  C   UNL     1       1.780   7.682  18.487  0.00  0.00    +0.000 A 
ATOM     28  C   UNL     1       2.404   5.339  17.927  0.00  0.00    +0.000 C 
ATOM     29  C   UNL     1       1.472   4.133  17.793  0.00  0.00    +0.000 C 
ATOM     30  N   UNL     1       1.573   3.108  18.838  0.00  0.00    +0.000 NA
ATOM     31  C   UNL     1       1.041   3.600  20.126  0.00  0.00    +0.000 C 
ATOM     32  C   UNL     1       1.849   4.679  20.881  0.00  0.00    +0.000 C 
BRANCH  22  34
ATOM     33  C   UNL     1       0.983  11.288  20.229  0.00  0.00    +0.000 C 
ATOM     34  S   UNL     1       1.104  10.319  18.748  0.00  0.00    +0.000 S 
ATOM     35  O   UNL     1      -0.182  10.311  18.100  0.00  0.00    +0.000 OA
ATOM     36  O   UNL     1       2.297  10.743  18.029  0.00  0.00    +0.000 OA
ENDBRANCH  22  34
ENDBRANCH  21  30
ENDBRANCH  20  21
ENDBRANCH   1  20
TORSDOF 7
ENDMDL
MODEL 2
REMARK VINA RESULT:      -9.6      0.992      1.118
REMARK  Name = 
REMARK  8 active torsions:
REMARK  status: ('A' for Active; 'I' for Inactive)
REMARK    1  A    between atoms: C_1  and  S_2
REMARK    2  A    between atoms: S_2  and  C_5
REMARK    3  A    between atoms: N_13  and  C_14
REMARK    4  A    between atoms: C_14  and  C_15
REMARK    5  A    between atoms: C_15  and  C_16
REMARK    6  A    between atoms: C_19  and  N_20
REMARK    7  A    between atoms: C_21  and  C_23
REMARK    8  A    between atoms: C_24  and  C_25
REMARK                            x       y       z     vdW  Elec       q    Type
REMARK                         _______ _______ _______ _____ _____    ______ ____
ROOT
ATOM      1  C   UNL     1       5.177   4.511  17.663  0.00  0.00    +0.000 C 
ATOM      2  C   UNL     1       5.639   4.509  19.130  0.00  0.00    +0.000 C 
ATOM      3  C   UNL     1       6.496   5.730  19.474  0.00  0.00    +0.000 C 
ATOM      4  C   UNL     1       7.692   5.896  18.523  0.00  0.00    +0.000 C 
ATOM      5  C   UNL     1       7.213   5.885  17.070  0.00  0.00    +0.000 C 
ATOM      6  C   UNL     1       6.393   4.652  16.743  0.00  0.00    +0.000 C 
ENDROOT
BRANCH   4   7
ATOM      7  N   UNL     1       8.434   7.121  18.809  0.00  0.00    +0.000 N 
ATOM      8  C   UNL     1       8.104   8.312  18.209  0.00  0.00    +0.000 C 
ATOM      9  O   UNL     1       7.191   8.448  17.400  0.00  0.00    +0.000 OA
ATOM     10  H   UNL     1       9.303   7.046  19.320  0.00  0.00    +0.000 HD
BRANCH   8  11
ATOM     11  C   UNL     1       8.971   9.442  18.603  0.00  0.00    +0.000 C 
ATOM     12  C   UNL     1       8.950  10.541  17.823  0.00  0.00    +0.000 C 
BRANCH  12  13
ATOM     13  C   UNL     1       9.813  11.698  18.045  0.00  0.00    +0.000 A 
ATOM     14  C   UNL     1      11.143  11.509  18.455  0.00  0.00    +0.000 A 
ATOM     15  C   UNL     1      11.981  12.609  18.657  0.00  0.00    +0.000 A 
ATOM     16  C   UNL     1      11.498  13.895  18.433  0.00  0.00    +0.000 A 
ATOM     17  C   UNL     1      10.188  14.074  18.003  0.00  0.00    +0.000 A 
ATOM     18  F   UNL     1       9.731  15.312  17.772  0.00  0.00    +0.000 F 
ATOM     19  C   UNL     1       9.347  12.991  17.805  0.00  0.00    +0.000 A 
ENDBRANCH  12  13
ENDBRANCH   8  11
ENDBRANCH   4   7
BRANCH   1  20
ATOM     20  C   UNL     1       4.367   3.239  17.315  0.00  0.00    +0.000 C 
BRANCH  20  21
ATOM     21  C   UNL     1       3.406   2.869  18.457  0.00  0.00    +0.000 C 
BRANCH  21  30
ATOM     22  C   UNL     1       1.488   8.805  19.363  0.00  0.00    +0.000 A 
ATOM     23  C   UNL     1       1.408   8.422  20.698  0.00  0.00    +0.000 A 
ATOM     24  C   UNL     1       1.674   7.098  21.039  0.00  0.00    +0.000 A 
ATOM     25  C   UNL     1       2.014   6.145  20.057  0.00  0.00    +0.000 A 
ATOM     26  C   UNL     1       2.176   6.565  18.720  0.00  0.00    +0.000 A 
ATOM     27  C   UNL     1       1.904   7.903  18.386  0.00  0.00    +0.000 A 
ATOM     28  C   UNL     1       2.676   5.666  17.617  0.00  0.00    +0.000 C 
ATOM     29  C   UNL     1       1.825   4.413  17.391  0.00  0.00    +0.000 C 
ATOM     30  N   UNL     1       2.015   3.313  18.341  0.00  0.00    +0.000 NA
ATOM     31  C   UNL     1       1.473   3.654  19.674  0.00  0.00    +0.000 C 
ATOM     32  C   UNL     1       2.220   4.717  20.510  0.00  0.00    +0.000 C 
BRANCH  22  34
ATOM     33  C   UNL     1       0.940  11.294  20.441  0.00  0.00    +0.000 C 
ATOM     34  S   UNL     1       1.055  10.455  18.882  0.00  0.00    +0.000 S 
ATOM     35  O   UNL     1      -0.255  10.418  18.285  0.00  0.00    +0.000 OA
ATOM     36  O   UNL     1       2.190  11.007  18.156  0.00  0.00    +0.000 OA
ENDBRANCH  22  34
ENDBRANCH  21  30
ENDBRANCH  20  21
ENDBRANCH   1  20
TORSDOF 7
ENDMDL
MODEL 3
REMARK VINA RESULT:      -8.5      1.269      1.789
REMARK  Name = 
REMARK  8 active torsions:
REMARK  status: ('A' for Active; 'I' for Inactive)
REMARK    1  A    between atoms: C_1  and  S_2
REMARK    2  A    between atoms: S_2  and  C_5
REMARK    3  A    between atoms: N_13  and  C_14
REMARK    4  A    between atoms: C_14  and  C_15
REMARK    5  A    between atoms: C_15  and  C_16
REMARK    6  A    between atoms: C_19  and  N_20
REMARK    7  A    between atoms: C_21  and  C_23
REMARK    8  A    between atoms: C_24  and  C_25
REMARK                            x       y       z     vdW  Elec       q    Type
REMARK                         _______ _______ _______ _____ _____    ______ ____
ROOT
ATOM      1  C   UNL     1       6.298   4.158  17.600  0.00  0.00    +0.000 C 
ATOM      2  C   UNL     1       6.111   5.246  16.529  0.00  0.00    +0.000 C 
ATOM      3  C   UNL     1       7.125   6.384  16.669  0.00  0.00    +0.000 C 
ATOM      4  C   UNL     1       7.128   6.999  18.077  0.00  0.00    +0.000 C 
ATOM      5  C   UNL     1       7.305   5.901  19.128  0.00  0.00    +0.000 C 
ATOM      6  C   UNL     1       6.271   4.800  18.991  0.00  0.00    +0.000 C 
ENDROOT
BRANCH   4   7
ATOM      7  N   UNL     1       8.172   8.011  18.214  0.00  0.00    +0.000 N 
ATOM      8  C   UNL     1       7.951   9.319  17.856  0.00  0.00    +0.000 C 
ATOM      9  O   UNL     1       6.893   9.739  17.398  0.00  0.00    +0.000 OA
ATOM     10  H   UNL     1       9.114   7.703  18.411  0.00  0.00    +0.000 HD
BRANCH   8  11
ATOM     11  C   UNL     1       9.122  10.198  18.047  0.00  0.00    +0.000 C 
ATOM     12  C   UNL     1       8.895  11.524  18.136  0.00  0.00    +0.000 C 
BRANCH  12  13
ATOM     13  C   UNL     1       9.962  12.515  18.244  0.00  0.00    +0.000 A 
ATOM     14  C   UNL     1      11.304  12.102  18.219  0.00  0.00    +0.000 A 
ATOM     15  C   UNL     1      12.332  13.043  18.307  0.00  0.00    +0.000 A 
ATOM     16  C   UNL     1      12.024  14.397  18.404  0.00  0.00    +0.000 A 
ATOM     17  C   UNL     1      10.694  14.802  18.403  0.00  0.00    +0.000 A 
ATOM     18  F   UNL     1      10.398  16.106  18.479  0.00  0.00    +0.000 F 
ATOM     19  C   UNL     1       9.665  13.876  18.321  0.00  0.00    +0.000 A 
ENDBRANCH  12  13
ENDBRANCH   8  11
ENDBRANCH   4   7
BRANCH   1  20
ATOM     20  C   UNL     1       5.226   3.048  17.485  0.00  0.00    +0.000 C 
BRANCH  20  21
ATOM     21  C   UNL     1       4.230   3.122  18.654  0.00  0.00    +0.000 C 
BRANCH  21  30
ATOM     22  C   UNL     1       1.397   8.684  19.538  0.00  0.00    +0.000 A 
ATOM     23  C   UNL     1       1.160   8.196  20.819  0.00  0.00    +0.000 A 
ATOM     24  C   UNL     1       1.547   6.894  21.129  0.00  0.00    +0.000 A 
ATOM     25  C   UNL     1       2.166   6.068  20.169  0.00  0.00    +0.000 A 
ATOM     26  C   UNL     1       2.478   6.602  18.902  0.00  0.00    +0.000 A 
ATOM     27  C   UNL     1       2.082   7.916  18.598  0.00  0.00    +0.000 A 
ATOM     28  C   UNL     1       3.266   5.858  17.853  0.00  0.00    +0.000 C 
ATOM     29  C   UNL     1       2.641   4.528  17.422  0.00  0.00    +0.000 C 
ATOM     30  N   UNL     1       2.827   3.393  18.332  0.00  0.00    +0.000 NA
ATOM     31  C   UNL     1       2.039   3.564  19.571  0.00  0.00    +0.000 C 
ATOM     32  C   UNL     1       2.491   4.648  20.575  0.00  0.00    +0.000 C 
BRANCH  22  34
ATOM     33  C   UNL     1       1.366  11.301  20.438  0.00  0.00    +0.000 C 
ATOM     34  S   UNL     1       0.824  10.296  19.079  0.00  0.00    +0.000 S 
ATOM     35  O   UNL     1      -0.616  10.275  19.072  0.00  0.00    +0.000 OA
ATOM     36  O   UNL     1       1.568  10.700  17.895  0.00  0.00    +0.000 OA
ENDBRANCH  22  34
ENDBRANCH  21  30
ENDBRANCH  20  21
ENDBRANCH   1  20
TORSDOF 7
ENDMDL
MODEL 4
REMARK VINA RESULT:      -8.4      5.434      8.560
REMARK  Name = 
REMARK  8 active torsions:
REMARK  status: ('A' for Active; 'I' for Inactive)
REMARK    1  A    between atoms: C_1  and  S_2
REMARK    2  A    between atoms: S_2  and  C_5
REMARK    3  A    between atoms: N_13  and  C_14
REMARK    4  A    between atoms: C_14  and  C_15
REMARK    5  A    between atoms: C_15  and  C_16
REMARK    6  A    between atoms: C_19  and  N_20
REMARK    7  A    between atoms: C_21  and  C_23
REMARK    8  A    between atoms: C_24  and  C_25
REMARK                            x       y       z     vdW  Elec       q    Type
REMARK                         _______ _______ _______ _____ _____    ______ ____
ROOT
ATOM      1  C   UNL     1       0.928   7.996  20.210  0.00  0.00    +0.000 C 
ATOM      2  C   UNL     1       1.849   8.877  19.350  0.00  0.00    +0.000 C 
ATOM      3  C   UNL     1       2.499   8.097  18.203  0.00  0.00    +0.000 C 
ATOM      4  C   UNL     1       3.241   6.843  18.691  0.00  0.00    +0.000 C 
ATOM      5  C   UNL     1       2.311   5.985  19.552  0.00  0.00    +0.000 C 
ATOM      6  C   UNL     1       1.704   6.769  20.699  0.00  0.00    +0.000 C 
ENDROOT
BRANCH   4   7
ATOM      7  N   UNL     1       3.764   6.065  17.571  0.00  0.00    +0.000 N 
ATOM      8  C   UNL     1       4.758   5.134  17.750  0.00  0.00    +0.000 C 
ATOM      9  O   UNL     1       5.285   4.886  18.831  0.00  0.00    +0.000 OA
ATOM     10  H   UNL     1       3.508   6.344  16.634  0.00  0.00    +0.000 HD
BRANCH   8  11
ATOM     11  C   UNL     1       5.174   4.455  16.506  0.00  0.00    +0.000 C 
ATOM     12  C   UNL     1       5.733   5.214  15.542  0.00  0.00    +0.000 C 
BRANCH  12  13
ATOM     13  C   UNL     1       6.117   4.693  14.233  0.00  0.00    +0.000 A 
ATOM     14  C   UNL     1       7.339   5.080  13.659  0.00  0.00    +0.000 A 
ATOM     15  C   UNL     1       7.722   4.577  12.413  0.00  0.00    +0.000 A 
ATOM     16  C   UNL     1       6.896   3.676  11.747  0.00  0.00    +0.000 A 
ATOM     17  C   UNL     1       5.700   3.278  12.332  0.00  0.00    +0.000 A 
ATOM     18  F   UNL     1       4.914   2.398  11.698  0.00  0.00    +0.000 F 
ATOM     19  C   UNL     1       5.307   3.774  13.565  0.00  0.00    +0.000 A 
ENDBRANCH  12  13
ENDBRANCH   8  11
ENDBRANCH   4   7
BRANCH   1  20
ATOM     20  C   UNL     1       0.330   8.781  21.401  0.00  0.00    +0.000 C 
BRANCH  20  21
ATOM     21  C   UNL     1      -0.670   9.843  20.914  0.00  0.00    +0.000 C 
BRANCH  21  30
ATOM     22  C   UNL     1      -4.092  14.845  22.649  0.00  0.00    +0.000 A 
ATOM     23  C   UNL     1      -4.574  14.785  21.345  0.00  0.00    +0.000 A 
ATOM     24  C   UNL     1      -4.044  13.840  20.471  0.00  0.00    +0.000 A 
ATOM     25  C   UNL     1      -3.028  12.953  20.882  0.00  0.00    +0.000 A 
ATOM     26  C   UNL     1      -2.609  12.967  22.229  0.00  0.00    +0.000 A 
ATOM     27  C   UNL     1      -3.149  13.926  23.103  0.00  0.00    +0.000 A 
ATOM     28  C   UNL     1      -1.637  11.971  22.811  0.00  0.00    +0.000 C 
ATOM     29  C   UNL     1      -0.272  11.944  22.118  0.00  0.00    +0.000 C 
ATOM     30  N   UNL     1      -0.201  11.229  20.840  0.00  0.00    +0.000 NA
ATOM     31  C   UNL     1      -0.923  11.959  19.776  0.00  0.00    +0.000 C 
ATOM     32  C   UNL     1      -2.466  12.006  19.847  0.00  0.00    +0.000 C 
BRANCH  22  34
ATOM     33  C   UNL     1      -6.383  15.686  23.954  0.00  0.00    +0.000 C 
ATOM     34  S   UNL     1      -4.670  16.103  23.755  0.00  0.00    +0.000 S 
ATOM     35  O   UNL     1      -4.583  17.370  23.078  0.00  0.00    +0.000 OA
ATOM     36  O   UNL     1      -4.004  15.895  25.033  0.00  0.00    +0.000 OA
ENDBRANCH  22  34
ENDBRANCH  21  30
ENDBRANCH  20  21
ENDBRANCH   1  20
TORSDOF 7
ENDMDL
MODEL 5
REMARK VINA RESULT:      -8.3      5.464     10.714
REMARK  Name = 
REMARK  8 active torsions:
REMARK  status: ('A' for Active; 'I' for Inactive)
REMARK    1  A    between atoms: C_1  and  S_2
REMARK    2  A    between atoms: S_2  and  C_5
REMARK    3  A    between atoms: N_13  and  C_14
REMARK    4  A    between atoms: C_14  and  C_15
REMARK    5  A    between atoms: C_15  and  C_16
REMARK    6  A    between atoms: C_19  and  N_20
REMARK    7  A    between atoms: C_21  and  C_23
REMARK    8  A    between atoms: C_24  and  C_25
REMARK                            x       y       z     vdW  Elec       q    Type
REMARK                         _______ _______ _______ _____ _____    ______ ____
ROOT
ATOM      1  C   UNL     1       0.370  13.250  18.676  0.00  0.00    +0.000 C 
ATOM      2  C   UNL     1       1.764  12.629  18.483  0.00  0.00    +0.000 C 
ATOM      3  C   UNL     1       1.745  11.102  18.596  0.00  0.00    +0.000 C 
ATOM      4  C   UNL     1       1.108  10.618  19.908  0.00  0.00    +0.000 C 
ATOM      5  C   UNL     1      -0.273  11.254  20.086  0.00  0.00    +0.000 C 
ATOM      6  C   UNL     1      -0.225  12.767  20.002  0.00  0.00    +0.000 C 
ENDROOT
BRANCH   4   7
ATOM      7  N   UNL     1       1.009   9.162  19.946  0.00  0.00    +0.000 N 
ATOM      8  C   UNL     1       1.310   8.454  21.085  0.00  0.00    +0.000 C 
ATOM      9  O   UNL     1       1.685   8.966  22.136  0.00  0.00    +0.000 OA
ATOM     10  H   UNL     1       0.885   8.668  19.073  0.00  0.00    +0.000 HD
BRANCH   8  11
ATOM     11  C   UNL     1       1.171   6.991  20.936  0.00  0.00    +0.000 C 
ATOM     12  C   UNL     1       1.885   6.396  19.960  0.00  0.00    +0.000 C 
BRANCH  12  13
ATOM     13  C   UNL     1       1.785   4.974  19.646  0.00  0.00    +0.000 A 
ATOM     14  C   UNL     1       1.275   4.081  20.605  0.00  0.00    +0.000 A 
ATOM     15  C   UNL     1       1.162   2.721  20.310  0.00  0.00    +0.000 A 
ATOM     16  C   UNL     1       1.541   2.251  19.055  0.00  0.00    +0.000 A 
ATOM     17  C   UNL     1       2.022   3.143  18.103  0.00  0.00    +0.000 A 
ATOM     18  F   UNL     1       2.370   2.693  16.891  0.00  0.00    +0.000 F 
ATOM     19  C   UNL     1       2.143   4.494  18.386  0.00  0.00    +0.000 A 
ENDBRANCH  12  13
ENDBRANCH   8  11
ENDBRANCH   4   7
BRANCH   1  20
ATOM     20  C   UNL     1       0.417  14.796  18.623  0.00  0.00    +0.000 C 
BRANCH  20  21
ATOM     21  C   UNL     1       1.651  15.334  19.366  0.00  0.00    +0.000 C 
BRANCH  21  30
ATOM     22  C   UNL     1       7.914  15.875  19.833  0.00  0.00    +0.000 A 
ATOM     23  C   UNL     1       7.620  16.622  20.969  0.00  0.00    +0.000 A 
ATOM     24  C   UNL     1       6.288  16.878  21.284  0.00  0.00    +0.000 A 
ATOM     25  C   UNL     1       5.240  16.399  20.470  0.00  0.00    +0.000 A 
ATOM     26  C   UNL     1       5.549  15.572  19.370  0.00  0.00    +0.000 A 
ATOM     27  C   UNL     1       6.896  15.321  19.060  0.00  0.00    +0.000 A 
ATOM     28  C   UNL     1       4.506  14.889  18.521  0.00  0.00    +0.000 C 
ATOM     29  C   UNL     1       3.514  15.844  17.852  0.00  0.00    +0.000 C 
ATOM     30  N   UNL     1       2.441  16.373  18.701  0.00  0.00    +0.000 NA
ATOM     31  C   UNL     1       2.967  17.333  19.694  0.00  0.00    +0.000 C 
ATOM     32  C   UNL     1       3.828  16.781  20.852  0.00  0.00    +0.000 C 
BRANCH  22  34
ATOM     33  C   UNL     1       9.568  16.024  17.619  0.00  0.00    +0.000 C 
ATOM     34  S   UNL     1       9.599  15.620  19.346  0.00  0.00    +0.000 S 
ATOM     35  O   UNL     1       9.898  14.218  19.483  0.00  0.00    +0.000 OA
ATOM     36  O   UNL     1      10.404  16.623  20.029  0.00  0.00    +0.000 OA
ENDBRANCH  22  34
ENDBRANCH  21  30
ENDBRANCH  20  21
ENDBRANCH   1  20
TORSDOF 7
ENDMDL
MODEL 6
REMARK VINA RESULT:      -8.3      6.272     10.272
REMARK  Name = 
REMARK  8 active torsions:
REMARK  status: ('A' for Active; 'I' for Inactive)
REMARK    1  A    between atoms: C_1  and  S_2
REMARK    2  A    between atoms: S_2  and  C_5
REMARK    3  A    between atoms: N_13  and  C_14
REMARK    4  A    between atoms: C_14  and  C_15
REMARK    5  A    between atoms: C_15  and  C_16
REMARK    6  A    between atoms: C_19  and  N_20
REMARK    7  A    between atoms: C_21  and  C_23
REMARK    8  A    between atoms: C_24  and  C_25
REMARK                            x       y       z     vdW  Elec       q    Type
REMARK                         _______ _______ _______ _____ _____    ______ ____
ROOT
ATOM      1  C   UNL     1      -3.337  11.384  18.856  0.00  0.00    +0.000 C 
ATOM      2  C   UNL     1      -2.959  11.128  17.387  0.00  0.00    +0.000 C 
ATOM      3  C   UNL     1      -1.847  10.086  17.243  0.00  0.00    +0.000 C 
ATOM      4  C   UNL     1      -0.603  10.434  18.075  0.00  0.00    +0.000 C 
ATOM      5  C   UNL     1      -1.000  10.694  19.529  0.00  0.00    +0.000 C 
ATOM      6  C   UNL     1      -2.080  11.753  19.650  0.00  0.00    +0.000 C 
ENDROOT
BRANCH   4   7
ATOM      7  N   UNL     1       0.401   9.376  18.001  0.00  0.00    +0.000 N 
ATOM      8  C   UNL     1       1.743   9.665  17.959  0.00  0.00    +0.000 C 
ATOM      9  O   UNL     1       2.204  10.802  17.972  0.00  0.00    +0.000 OA
ATOM     10  H   UNL     1       0.090   8.435  17.804  0.00  0.00    +0.000 HD
BRANCH   8  11
ATOM     11  C   UNL     1       2.611   8.473  17.868  0.00  0.00    +0.000 C 
ATOM     12  C   UNL     1       2.019   7.266  17.970  0.00  0.00    +0.000 C 
BRANCH  12  13
ATOM     13  C   UNL     1       2.759   6.008  17.979  0.00  0.00    +0.000 A 
ATOM     14  C   UNL     1       4.014   5.931  17.351  0.00  0.00    +0.000 A 
ATOM     15  C   UNL     1       4.737   4.736  17.366  0.00  0.00    +0.000 A 
ATOM     16  C   UNL     1       4.218   3.622  18.020  0.00  0.00    +0.000 A 
ATOM     17  C   UNL     1       2.988   3.712  18.661  0.00  0.00    +0.000 A 
ATOM     18  F   UNL     1       2.498   2.645  19.305  0.00  0.00    +0.000 F 
ATOM     19  C   UNL     1       2.260   4.891  18.649  0.00  0.00    +0.000 A 
ENDBRANCH  12  13
ENDBRANCH   8  11
ENDBRANCH   4   7
BRANCH   1  20
ATOM     20  C   UNL     1      -4.415  12.486  18.988  0.00  0.00    +0.000 C 
BRANCH  20  21
ATOM     21  C   UNL     1      -4.979  12.536  20.418  0.00  0.00    +0.000 C 
BRANCH  21  30
ATOM     22  C   UNL     1      -1.709  15.873  24.649  0.00  0.00    +0.000 A 
ATOM     23  C   UNL     1      -2.417  15.118  25.578  0.00  0.00    +0.000 A 
ATOM     24  C   UNL     1      -3.387  14.227  25.126  0.00  0.00    +0.000 A 
ATOM     25  C   UNL     1      -3.664  14.085  23.750  0.00  0.00    +0.000 A 
ATOM     26  C   UNL     1      -2.881  14.793  22.816  0.00  0.00    +0.000 A 
ATOM     27  C   UNL     1      -1.905  15.691  23.282  0.00  0.00    +0.000 A 
ATOM     28  C   UNL     1      -2.993  14.609  21.323  0.00  0.00    +0.000 C 
ATOM     29  C   UNL     1      -4.386  14.893  20.756  0.00  0.00    +0.000 C 
ATOM     30  N   UNL     1      -5.393  13.842  20.937  0.00  0.00    +0.000 NA
ATOM     31  C   UNL     1      -5.800  13.726  22.353  0.00  0.00    +0.000 C 
ATOM     32  C   UNL     1      -4.779  13.143  23.356  0.00  0.00    +0.000 C 
BRANCH  22  34
ATOM     33  C   UNL     1      -0.939  18.490  24.177  0.00  0.00    +0.000 C 
ATOM     34  S   UNL     1      -0.542  17.091  25.195  0.00  0.00    +0.000 S 
ATOM     35  O   UNL     1       0.778  16.634  24.849  0.00  0.00    +0.000 OA
ATOM     36  O   UNL     1      -0.878  17.427  26.571  0.00  0.00    +0.000 OA
ENDBRANCH  22  34
ENDBRANCH  21  30
ENDBRANCH  20  21
ENDBRANCH   1  20
TORSDOF 7
ENDMDL
MODEL 7
REMARK VINA RESULT:      -8.2      5.473      8.770
REMARK  Name = 
REMARK  8 active torsions:
REMARK  status: ('A' for Active; 'I' for Inactive)
REMARK    1  A    between atoms: C_1  and  S_2
REMARK    2  A    between atoms: S_2  and  C_5
REMARK    3  A    between atoms: N_13  and  C_14
REMARK    4  A    between atoms: C_14  and  C_15
REMARK    5  A    between atoms: C_15  and  C_16
REMARK    6  A    between atoms: C_19  and  N_20
REMARK    7  A    between atoms: C_21  and  C_23
REMARK    8  A    between atoms: C_24  and  C_25
REMARK                            x       y       z     vdW  Elec       q    Type
REMARK                         _______ _______ _______ _____ _____    ______ ____
ROOT
ATOM      1  C   UNL     1       0.871   8.694  19.970  0.00  0.00    +0.000 C 
ATOM      2  C   UNL     1       1.600   9.531  18.905  0.00  0.00    +0.000 C 
ATOM      3  C   UNL     1       2.207   8.666  17.797  0.00  0.00    +0.000 C 
ATOM      4  C   UNL     1       3.124   7.563  18.348  0.00  0.00    +0.000 C 
ATOM      5  C   UNL     1       2.385   6.749  19.412  0.00  0.00    +0.000 C 
ATOM      6  C   UNL     1       1.819   7.622  20.515  0.00  0.00    +0.000 C 
ENDROOT
BRANCH   4   7
ATOM      7  N   UNL     1       3.609   6.691  17.281  0.00  0.00    +0.000 N 
ATOM      8  C   UNL     1       4.486   5.667  17.539  0.00  0.00    +0.000 C 
ATOM      9  O   UNL     1       4.935   5.405  18.651  0.00  0.00    +0.000 OA
ATOM     10  H   UNL     1       3.426   6.960  16.324  0.00  0.00    +0.000 HD
BRANCH   8  11
ATOM     11  C   UNL     1       4.881   4.900  16.339  0.00  0.00    +0.000 C 
ATOM     12  C   UNL     1       5.747   5.483  15.487  0.00  0.00    +0.000 C 
BRANCH  12  13
ATOM     13  C   UNL     1       6.161   4.878  14.225  0.00  0.00    +0.000 A 
ATOM     14  C   UNL     1       7.402   5.219  13.661  0.00  0.00    +0.000 A 
ATOM     15  C   UNL     1       7.814   4.635  12.461  0.00  0.00    +0.000 A 
ATOM     16  C   UNL     1       6.998   3.700  11.831  0.00  0.00    +0.000 A 
ATOM     17  C   UNL     1       5.783   3.348  12.407  0.00  0.00    +0.000 A 
ATOM     18  F   UNL     1       5.006   2.435  11.808  0.00  0.00    +0.000 F 
ATOM     19  C   UNL     1       5.361   3.924  13.595  0.00  0.00    +0.000 A 
ENDBRANCH  12  13
ENDBRANCH   8  11
ENDBRANCH   4   7
BRANCH   1  20
ATOM     20  C   UNL     1       0.319   9.576  21.116  0.00  0.00    +0.000 C 
BRANCH  20  21
ATOM     21  C   UNL     1       0.211  11.045  20.675  0.00  0.00    +0.000 C 
BRANCH  21  30
ATOM     22  C   UNL     1      -4.995  14.079  22.527  0.00  0.00    +0.000 A 
ATOM     23  C   UNL     1      -4.683  14.950  21.488  0.00  0.00    +0.000 A 
ATOM     24  C   UNL     1      -3.508  14.749  20.768  0.00  0.00    +0.000 A 
ATOM     25  C   UNL     1      -2.633  13.688  21.079  0.00  0.00    +0.000 A 
ATOM     26  C   UNL     1      -3.003  12.763  22.077  0.00  0.00    +0.000 A 
ATOM     27  C   UNL     1      -4.191  12.975  22.799  0.00  0.00    +0.000 A 
ATOM     28  C   UNL     1      -2.218  11.514  22.390  0.00  0.00    +0.000 C 
ATOM     29  C   UNL     1      -0.767  11.771  22.806  0.00  0.00    +0.000 C 
ATOM     30  N   UNL     1       0.180  12.066  21.726  0.00  0.00    +0.000 NA
ATOM     31  C   UNL     1      -0.073  13.399  21.139  0.00  0.00    +0.000 C 
ATOM     32  C   UNL     1      -1.348  13.587  20.288  0.00  0.00    +0.000 C 
BRANCH  22  34
ATOM     33  C   UNL     1      -7.713  14.563  22.321  0.00  0.00    +0.000 C 
ATOM     34  S   UNL     1      -6.428  14.367  23.530  0.00  0.00    +0.000 S 
ATOM     35  O   UNL     1      -6.251  15.621  24.215  0.00  0.00    +0.000 OA
ATOM     36  O   UNL     1      -6.691  13.143  24.272  0.00  0.00    +0.000 OA
ENDBRANCH  22  34
ENDBRANCH  21  30
ENDBRANCH  20  21
ENDBRANCH   1  20
TORSDOF 7
ENDMDL
MODEL 8
REMARK VINA RESULT:      -8.2      1.220      1.393
REMARK  Name = 
REMARK  8 active torsions:
REMARK  status: ('A' for Active; 'I' for Inactive)
REMARK    1  A    between atoms: C_1  and  S_2
REMARK    2  A    between atoms: S_2  and  C_5
REMARK    3  A    between atoms: N_13  and  C_14
REMARK    4  A    between atoms: C_14  and  C_15
REMARK    5  A    between atoms: C_15  and  C_16
REMARK    6  A    between atoms: C_19  and  N_20
REMARK    7  A    between atoms: C_21  and  C_23
REMARK    8  A    between atoms: C_24  and  C_25
REMARK                            x       y       z     vdW  Elec       q    Type
REMARK                         _______ _______ _______ _____ _____    ______ ____
ROOT
ATOM      1  C   UNL     1       5.363   4.665  18.297  0.00  0.00    +0.000 C 
ATOM      2  C   UNL     1       6.354   4.703  19.472  0.00  0.00    +0.000 C 
ATOM      3  C   UNL     1       7.114   6.030  19.553  0.00  0.00    +0.000 C 
ATOM      4  C   UNL     1       7.816   6.387  18.234  0.00  0.00    +0.000 C 
ATOM      5  C   UNL     1       6.817   6.334  17.076  0.00  0.00    +0.000 C 
ATOM      6  C   UNL     1       6.099   5.000  16.996  0.00  0.00    +0.000 C 
ENDROOT
BRANCH   4   7
ATOM      7  N   UNL     1       8.447   7.702  18.305  0.00  0.00    +0.000 N 
ATOM      8  C   UNL     1       7.828   8.819  17.799  0.00  0.00    +0.000 C 
ATOM      9  O   UNL     1       6.729   8.813  17.254  0.00  0.00    +0.000 OA
ATOM     10  H   UNL     1       9.420   7.752  18.573  0.00  0.00    +0.000 HD
BRANCH   8  11
ATOM     11  C   UNL     1       8.620  10.059  17.944  0.00  0.00    +0.000 C 
ATOM     12  C   UNL     1       9.408  10.168  19.031  0.00  0.00    +0.000 C 
BRANCH  12  13
ATOM     13  C   UNL     1      10.181  11.367  19.344  0.00  0.00    +0.000 A 
ATOM     14  C   UNL     1      11.583  11.294  19.417  0.00  0.00    +0.000 A 
ATOM     15  C   UNL     1      12.333  12.437  19.702  0.00  0.00    +0.000 A 
ATOM     16  C   UNL     1      11.689  13.656  19.898  0.00  0.00    +0.000 A 
ATOM     17  C   UNL     1      10.304  13.726  19.800  0.00  0.00    +0.000 A 
ATOM     18  F   UNL     1       9.687  14.902  19.972  0.00  0.00    +0.000 F 
ATOM     19  C   UNL     1       9.549  12.597  19.523  0.00  0.00    +0.000 A 
ENDBRANCH  12  13
ENDBRANCH   8  11
ENDBRANCH   4   7
BRANCH   1  20
ATOM     20  C   UNL     1       4.651   3.295  18.190  0.00  0.00    +0.000 C 
BRANCH  20  21
ATOM     21  C   UNL     1       3.502   3.192  19.206  0.00  0.00    +0.000 C 
BRANCH  21  30
ATOM     22  C   UNL     1       1.396   9.116  19.666  0.00  0.00    +0.000 A 
ATOM     23  C   UNL     1       1.008   8.725  20.944  0.00  0.00    +0.000 A 
ATOM     24  C   UNL     1       1.194   7.401  21.331  0.00  0.00    +0.000 A 
ATOM     25  C   UNL     1       1.758   6.454  20.451  0.00  0.00    +0.000 A 
ATOM     26  C   UNL     1       2.225   6.882  19.191  0.00  0.00    +0.000 A 
ATOM     27  C   UNL     1       2.032   8.220  18.809  0.00  0.00    +0.000 A 
ATOM     28  C   UNL     1       2.973   5.991  18.232  0.00  0.00    +0.000 C 
ATOM     29  C   UNL     1       2.205   4.736  17.808  0.00  0.00    +0.000 C 
ATOM     30  N   UNL     1       2.173   3.631  18.771  0.00  0.00    +0.000 NA
ATOM     31  C   UNL     1       1.334   3.964  19.942  0.00  0.00    +0.000 C 
ATOM     32  C   UNL     1       1.860   5.025  20.934  0.00  0.00    +0.000 C 
BRANCH  22  34
ATOM     33  C   UNL     1      -0.658  10.724  18.740  0.00  0.00    +0.000 C 
ATOM     34  S   UNL     1       1.079  10.767  19.105  0.00  0.00    +0.000 S 
ATOM     35  O   UNL     1       1.799  10.967  17.874  0.00  0.00    +0.000 OA
ATOM     36  O   UNL     1       1.279  11.657  20.239  0.00  0.00    +0.000 OA
ENDBRANCH  22  34
ENDBRANCH  21  30
ENDBRANCH  20  21
ENDBRANCH   1  20
TORSDOF 7
ENDMDL
MODEL 9
REMARK VINA RESULT:      -8.2      5.425     10.394
REMARK  Name = 
REMARK  8 active torsions:
REMARK  status: ('A' for Active; 'I' for Inactive)
REMARK    1  A    between atoms: C_1  and  S_2
REMARK    2  A    between atoms: S_2  and  C_5
REMARK    3  A    between atoms: N_13  and  C_14
REMARK    4  A    between atoms: C_14  and  C_15
REMARK    5  A    between atoms: C_15  and  C_16
REMARK    6  A    between atoms: C_19  and  N_20
REMARK    7  A    between atoms: C_21  and  C_23
REMARK    8  A    between atoms: C_24  and  C_25
REMARK                            x       y       z     vdW  Elec       q    Type
REMARK                         _______ _______ _______ _____ _____    ______ ____
ROOT
ATOM      1  C   UNL     1      -1.157  12.525  20.399  0.00  0.00    +0.000 C 
ATOM      2  C   UNL     1      -1.115  11.859  19.012  0.00  0.00    +0.000 C 
ATOM      3  C   UNL     1      -0.595  10.421  19.070  0.00  0.00    +0.000 C 
ATOM      4  C   UNL     1       0.771  10.317  19.768  0.00  0.00    +0.000 C 
ATOM      5  C   UNL     1       0.712  10.992  21.140  0.00  0.00    +0.000 C 
ATOM      6  C   UNL     1       0.224  12.425  21.055  0.00  0.00    +0.000 C 
ENDROOT
BRANCH   4   7
ATOM      7  N   UNL     1       1.197   8.926  19.900  0.00  0.00    +0.000 N 
ATOM      8  C   UNL     1       1.992   8.329  18.953  0.00  0.00    +0.000 C 
ATOM      9  O   UNL     1       2.398   8.890  17.939  0.00  0.00    +0.000 OA
ATOM     10  H   UNL     1       0.755   8.356  20.608  0.00  0.00    +0.000 HD
BRANCH   8  11
ATOM     11  C   UNL     1       2.310   6.916  19.242  0.00  0.00    +0.000 C 
ATOM     12  C   UNL     1       1.974   6.002  18.310  0.00  0.00    +0.000 C 
BRANCH  12  13
ATOM     13  C   UNL     1       2.154   4.564  18.495  0.00  0.00    +0.000 A 
ATOM     14  C   UNL     1       1.317   3.864  19.380  0.00  0.00    +0.000 A 
ATOM     15  C   UNL     1       1.471   2.487  19.553  0.00  0.00    +0.000 A 
ATOM     16  C   UNL     1       2.448   1.804  18.834  0.00  0.00    +0.000 A 
ATOM     17  C   UNL     1       3.257   2.499  17.942  0.00  0.00    +0.000 A 
ATOM     18  F   UNL     1       4.185   1.838  17.238  0.00  0.00    +0.000 F 
ATOM     19  C   UNL     1       3.116   3.866  17.765  0.00  0.00    +0.000 A 
ENDBRANCH  12  13
ENDBRANCH   8  11
ENDBRANCH   4   7
BRANCH   1  20
ATOM     20  C   UNL     1      -1.623  13.998  20.315  0.00  0.00    +0.000 C 
BRANCH  20  21
ATOM     21  C   UNL     1      -0.453  14.961  20.575  0.00  0.00    +0.000 C 
BRANCH  21  30
ATOM     22  C   UNL     1       5.531  16.758  19.736  0.00  0.00    +0.000 A 
ATOM     23  C   UNL     1       5.173  17.826  20.552  0.00  0.00    +0.000 A 
ATOM     24  C   UNL     1       3.850  17.941  20.973  0.00  0.00    +0.000 A 
ATOM     25  C   UNL     1       2.875  17.001  20.583  0.00  0.00    +0.000 A 
ATOM     26  C   UNL     1       3.269  15.877  19.827  0.00  0.00    +0.000 A 
ATOM     27  C   UNL     1       4.605  15.770  19.405  0.00  0.00    +0.000 A 
ATOM     28  C   UNL     1       2.342  14.739  19.478  0.00  0.00    +0.000 C 
ATOM     29  C   UNL     1       1.101  15.158  18.686  0.00  0.00    +0.000 C 
ATOM     30  N   UNL     1       0.014  15.777  19.451  0.00  0.00    +0.000 NA
ATOM     31  C   UNL     1       0.388  17.128  19.919  0.00  0.00    +0.000 C 
ATOM     32  C   UNL     1       1.452  17.242  21.033  0.00  0.00    +0.000 C 
BRANCH  22  34
ATOM     33  C   UNL     1       7.050  15.299  17.940  0.00  0.00    +0.000 C 
ATOM     34  S   UNL     1       7.180  16.639  19.097  0.00  0.00    +0.000 S 
ATOM     35  O   UNL     1       8.049  16.234  20.170  0.00  0.00    +0.000 OA
ATOM     36  O   UNL     1       7.443  17.858  18.346  0.00  0.00    +0.000 OA
ENDBRANCH  22  34
ENDBRANCH  21  30
ENDBRANCH  20  21
ENDBRANCH   1  20
TORSDOF 7
ENDMDL
