MODEL 1
REMARK VINA RESULT:      -8.4      0.000      0.000
REMARK  Name = 
REMARK  6 active torsions:
REMARK  status: ('A' for Active; 'I' for Inactive)
REMARK    1  A    between atoms: C_1  and  N_2
REMARK    2  A    between atoms: C_6  and  C_7
REMARK    3  A    between atoms: C_7  and  N_8
REMARK    4  A    between atoms: N_8  and  C_9
REMARK    5  A    between atoms: C_10  and  C_12
REMARK    6  A    between atoms: C_16  and  N_17
REMARK                            x       y       z     vdW  Elec       q    Type
REMARK                         _______ _______ _______ _____ _____    ______ ____
ROOT
ATOM      1  N   UNL     1       3.827   4.529  19.456  0.00  0.00    +0.000 N 
ATOM      2  C   UNL     1       3.893   3.073  19.486  0.00  0.00    +0.000 C 
ATOM      3  C   UNL     1       2.558   5.122  19.548  0.00  0.00    +0.000 C 
ATOM      4  O   UNL     1       1.529   4.473  19.723  0.00  0.00    +0.000 OA
ENDROOT
BRANCH   3   5
ATOM      5  C   UNL     1       2.399   6.579  19.274  0.00  0.00    +0.000 A 
ATOM      6  C   UNL     1       2.699   7.151  18.041  0.00  0.00    +0.000 A 
ATOM      7  C   UNL     1       2.266   8.442  17.752  0.00  0.00    +0.000 A 
ATOM      8  C   UNL     1       1.629   9.205  18.732  0.00  0.00    +0.000 A 
ATOM      9  C   UNL     1       1.481   8.702  20.031  0.00  0.00    +0.000 A 
ATOM     10  C   UNL     1       1.864   7.378  20.300  0.00  0.00    +0.000 A 
BRANCH   9  11
ATOM     11  N   UNL     1       0.942   9.526  21.056  0.00  0.00    +0.000 N 
ATOM     12  C   UNL     1       0.891   9.268  22.405  0.00  0.00    +0.000 A 
ATOM     13  N   UNL     1       0.302  10.253  23.042  0.00  0.00    +0.000 NA
ATOM     14  N   UNL     1      -0.059  11.189  22.109  0.00  0.00    +0.000 NA
ATOM     15  C   UNL     1       0.323  10.744  20.933  0.00  0.00    +0.000 A 
ENDBRANCH   9  11
ENDBRANCH   3   5
BRANCH   1  16
ATOM     16  C   UNL     1       5.126   5.211  19.406  0.00  0.00    +0.000 C 
BRANCH  16  22
ATOM     17  C   UNL     1       6.966   4.674  13.364  0.00  0.00    +0.000 C 
ATOM     18  N   UNL     1       7.675   5.370  14.417  0.00  0.00    +0.000 N 
ATOM     19  C   UNL     1       7.070   5.266  15.660  0.00  0.00    +0.000 A 
ATOM     20  N   UNL     1       6.338   4.186  15.966  0.00  0.00    +0.000 NA
ATOM     21  C   UNL     1       5.728   4.173  17.165  0.00  0.00    +0.000 A 
ATOM     22  C   UNL     1       5.805   5.202  18.075  0.00  0.00    +0.000 A 
ATOM     23  C   UNL     1       6.609   6.247  17.672  0.00  0.00    +0.000 A 
ATOM     24  N   UNL     1       7.232   6.311  16.480  0.00  0.00    +0.000 NA
ATOM     25  H   UNL     1       7.849   6.356  14.263  0.00  0.00    +0.000 HD
ENDBRANCH  16  22
ENDBRANCH   1  16
TORSDOF 4
ENDMDL
MODEL 2
REMARK VINA RESULT:      -8.0      1.869      7.740
REMARK  Name = 
REMARK  6 active torsions:
REMARK  status: ('A' for Active; 'I' for Inactive)
REMARK    1  A    between atoms: C_1  and  N_2
REMARK    2  A    between atoms: C_6  and  C_7
REMARK    3  A    between atoms: C_7  and  N_8
REMARK    4  A    between atoms: N_8  and  C_9
REMARK    5  A    between atoms: C_10  and  C_12
REMARK    6  A    between atoms: C_16  and  N_17
REMARK                            x       y       z     vdW  Elec       q    Type
REMARK                         _______ _______ _______ _____ _____    ______ ____
ROOT
ATOM      1  N   UNL     1       2.665   4.525  18.999  0.00  0.00    +0.000 N 
ATOM      2  C   UNL     1       1.414   3.956  19.485  0.00  0.00    +0.000 C 
ATOM      3  C   UNL     1       3.239   3.945  17.856  0.00  0.00    +0.000 C 
ATOM      4  O   UNL     1       2.698   3.042  17.223  0.00  0.00    +0.000 OA
ENDROOT
BRANCH   3   5
ATOM      5  C   UNL     1       4.629   4.310  17.458  0.00  0.00    +0.000 A 
ATOM      6  C   UNL     1       5.625   4.607  18.383  0.00  0.00    +0.000 A 
ATOM      7  C   UNL     1       6.956   4.656  17.978  0.00  0.00    +0.000 A 
ATOM      8  C   UNL     1       7.283   4.520  16.628  0.00  0.00    +0.000 A 
ATOM      9  C   UNL     1       6.273   4.399  15.665  0.00  0.00    +0.000 A 
ATOM     10  C   UNL     1       4.938   4.287  16.086  0.00  0.00    +0.000 A 
BRANCH   9  11
ATOM     11  N   UNL     1       6.604   4.382  14.283  0.00  0.00    +0.000 N 
ATOM     12  C   UNL     1       6.071   3.585  13.298  0.00  0.00    +0.000 A 
ATOM     13  N   UNL     1       6.637   3.839  12.142  0.00  0.00    +0.000 NA
ATOM     14  N   UNL     1       7.575   4.816  12.349  0.00  0.00    +0.000 NA
ATOM     15  C   UNL     1       7.549   5.128  13.624  0.00  0.00    +0.000 A 
ENDBRANCH   9  11
ENDBRANCH   3   5
BRANCH   1  16
ATOM     16  C   UNL     1       3.142   5.703  19.733  0.00  0.00    +0.000 C 
BRANCH  16  22
ATOM     17  C   UNL     1       1.045  11.632  18.935  0.00  0.00    +0.000 C 
ATOM     18  N   UNL     1       1.173  10.623  17.906  0.00  0.00    +0.000 N 
ATOM     19  C   UNL     1       1.596   9.391  18.382  0.00  0.00    +0.000 A 
ATOM     20  N   UNL     1       1.305   9.015  19.635  0.00  0.00    +0.000 NA
ATOM     21  C   UNL     1       1.795   7.835  20.055  0.00  0.00    +0.000 A 
ATOM     22  C   UNL     1       2.579   7.012  19.281  0.00  0.00    +0.000 A 
ATOM     23  C   UNL     1       2.790   7.479  18.001  0.00  0.00    +0.000 A 
ATOM     24  N   UNL     1       2.329   8.656  17.537  0.00  0.00    +0.000 NA
ATOM     25  H   UNL     1       1.777  10.853  17.126  0.00  0.00    +0.000 HD
ENDBRANCH  16  22
ENDBRANCH   1  16
TORSDOF 4
ENDMDL
MODEL 3
REMARK VINA RESULT:      -8.0      0.833      1.139
REMARK  Name = 
REMARK  6 active torsions:
REMARK  status: ('A' for Active; 'I' for Inactive)
REMARK    1  A    between atoms: C_1  and  N_2
REMARK    2  A    between atoms: C_6  and  C_7
REMARK    3  A    between atoms: C_7  and  N_8
REMARK    4  A    between atoms: N_8  and  C_9
REMARK    5  A    between atoms: C_10  and  C_12
REMARK    6  A    between atoms: C_16  and  N_17
REMARK                            x       y       z     vdW  Elec       q    Type
REMARK                         _______ _______ _______ _____ _____    ______ ____
ROOT
ATOM      1  N   UNL     1       3.868   4.984  19.090  0.00  0.00    +0.000 N 
ATOM      2  C   UNL     1       4.034   3.537  19.034  0.00  0.00    +0.000 C 
ATOM      3  C   UNL     1       2.601   5.478  19.438  0.00  0.00    +0.000 C 
ATOM      4  O   UNL     1       1.666   4.749  19.761  0.00  0.00    +0.000 OA
ENDROOT
BRANCH   3   5
ATOM      5  C   UNL     1       2.299   6.929  19.271  0.00  0.00    +0.000 A 
ATOM      6  C   UNL     1       2.466   7.600  18.064  0.00  0.00    +0.000 A 
ATOM      7  C   UNL     1       1.905   8.862  17.888  0.00  0.00    +0.000 A 
ATOM      8  C   UNL     1       1.272   9.502  18.954  0.00  0.00    +0.000 A 
ATOM      9  C   UNL     1       1.255   8.910  20.224  0.00  0.00    +0.000 A 
ATOM     10  C   UNL     1       1.767   7.612  20.379  0.00  0.00    +0.000 A 
BRANCH   9  11
ATOM     11  N   UNL     1       0.716   9.618  21.332  0.00  0.00    +0.000 N 
ATOM     12  C   UNL     1       0.269  10.917  21.367  0.00  0.00    +0.000 A 
ATOM     13  N   UNL     1      -0.143  11.232  22.573  0.00  0.00    +0.000 NA
ATOM     14  N   UNL     1       0.038  10.132  23.370  0.00  0.00    +0.000 NA
ATOM     15  C   UNL     1       0.552   9.181  22.623  0.00  0.00    +0.000 A 
ENDBRANCH   9  11
ENDBRANCH   3   5
BRANCH   1  16
ATOM     16  C   UNL     1       5.089   5.762  18.844  0.00  0.00    +0.000 C 
BRANCH  16  22
ATOM     17  C   UNL     1       7.660   5.626  13.051  0.00  0.00    +0.000 C 
ATOM     18  N   UNL     1       7.875   4.660  14.106  0.00  0.00    +0.000 N 
ATOM     19  C   UNL     1       7.128   4.906  15.249  0.00  0.00    +0.000 A 
ATOM     20  N   UNL     1       5.944   5.527  15.161  0.00  0.00    +0.000 NA
ATOM     21  C   UNL     1       5.297   5.789  16.310  0.00  0.00    +0.000 A 
ATOM     22  C   UNL     1       5.787   5.469  17.555  0.00  0.00    +0.000 A 
ATOM     23  C   UNL     1       6.996   4.806  17.529  0.00  0.00    +0.000 A 
ATOM     24  N   UNL     1       7.686   4.530  16.406  0.00  0.00    +0.000 NA
ATOM     25  H   UNL     1       8.833   4.536  14.410  0.00  0.00    +0.000 HD
ENDBRANCH  16  22
ENDBRANCH   1  16
TORSDOF 4
ENDMDL
MODEL 4
REMARK VINA RESULT:      -7.7      2.432      6.232
REMARK  Name = 
REMARK  6 active torsions:
REMARK  status: ('A' for Active; 'I' for Inactive)
REMARK    1  A    between atoms: C_1  and  N_2
REMARK    2  A    between atoms: C_6  and  C_7
REMARK    3  A    between atoms: C_7  and  N_8
REMARK    4  A    between atoms: N_8  and  C_9
REMARK    5  A    between atoms: C_10  and  C_12
REMARK    6  A    between atoms: C_16  and  N_17
REMARK                            x       y       z     vdW  Elec       q    Type
REMARK                         _______ _______ _______ _____ _____    ______ ____
ROOT
ATOM      1  N   UNL     1       2.794   2.999  20.475  0.00  0.00    +0.000 N 
ATOM      2  C   UNL     1       2.402   2.616  21.826  0.00  0.00    +0.000 C 
ATOM      3  C   UNL     1       4.098   2.678  20.064  0.00  0.00    +0.000 C 
ATOM      4  O   UNL     1       4.879   2.036  20.762  0.00  0.00    +0.000 OA
ENDROOT
BRANCH   3   5
ATOM      5  C   UNL     1       4.641   3.257  18.801  0.00  0.00    +0.000 A 
ATOM      6  C   UNL     1       4.271   2.797  17.541  0.00  0.00    +0.000 A 
ATOM      7  C   UNL     1       4.578   3.549  16.410  0.00  0.00    +0.000 A 
ATOM      8  C   UNL     1       5.351   4.704  16.526  0.00  0.00    +0.000 A 
ATOM      9  C   UNL     1       5.879   5.080  17.768  0.00  0.00    +0.000 A 
ATOM     10  C   UNL     1       5.515   4.353  18.913  0.00  0.00    +0.000 A 
BRANCH   9  11
ATOM     11  N   UNL     1       6.764   6.187  17.861  0.00  0.00    +0.000 N 
ATOM     12  C   UNL     1       7.792   6.374  18.755  0.00  0.00    +0.000 A 
ATOM     13  N   UNL     1       8.381   7.528  18.548  0.00  0.00    +0.000 NA
ATOM     14  N   UNL     1       7.736   8.138  17.504  0.00  0.00    +0.000 NA
ATOM     15  C   UNL     1       6.776   7.334  17.107  0.00  0.00    +0.000 A 
ENDBRANCH   9  11
ENDBRANCH   3   5
BRANCH   1  16
ATOM     16  C   UNL     1       1.735   3.618  19.669  0.00  0.00    +0.000 C 
BRANCH  16  22
ATOM     17  C   UNL     1       1.613   9.698  17.878  0.00  0.00    +0.000 C 
ATOM     18  N   UNL     1       2.033   9.193  19.168  0.00  0.00    +0.000 N 
ATOM     19  C   UNL     1       2.019   7.809  19.256  0.00  0.00    +0.000 A 
ATOM     20  N   UNL     1       2.220   7.061  18.163  0.00  0.00    +0.000 NA
ATOM     21  C   UNL     1       2.135   5.726  18.305  0.00  0.00    +0.000 A 
ATOM     22  C   UNL     1       1.844   5.099  19.494  0.00  0.00    +0.000 A 
ATOM     23  C   UNL     1       1.688   5.960  20.559  0.00  0.00    +0.000 A 
ATOM     24  N   UNL     1       1.754   7.302  20.466  0.00  0.00    +0.000 NA
ATOM     25  H   UNL     1       1.522   9.538  19.972  0.00  0.00    +0.000 HD
ENDBRANCH  16  22
ENDBRANCH   1  16
TORSDOF 4
ENDMDL
MODEL 5
REMARK VINA RESULT:      -7.6      0.710      1.166
REMARK  Name = 
REMARK  6 active torsions:
REMARK  status: ('A' for Active; 'I' for Inactive)
REMARK    1  A    between atoms: C_1  and  N_2
REMARK    2  A    between atoms: C_6  and  C_7
REMARK    3  A    between atoms: C_7  and  N_8
REMARK    4  A    between atoms: N_8  and  C_9
REMARK    5  A    between atoms: C_10  and  C_12
REMARK    6  A    between atoms: C_16  and  N_17
REMARK                            x       y       z     vdW  Elec       q    Type
REMARK                         _______ _______ _______ _____ _____    ______ ____
ROOT
ATOM      1  N   UNL     1       3.784   4.716  19.377  0.00  0.00    +0.000 N 
ATOM      2  C   UNL     1       3.864   3.264  19.478  0.00  0.00    +0.000 C 
ATOM      3  C   UNL     1       2.576   5.326  19.751  0.00  0.00    +0.000 C 
ATOM      4  O   UNL     1       1.629   4.699  20.221  0.00  0.00    +0.000 OA
ENDROOT
BRANCH   3   5
ATOM      5  C   UNL     1       2.344   6.765  19.438  0.00  0.00    +0.000 A 
ATOM      6  C   UNL     1       2.597   7.315  18.185  0.00  0.00    +0.000 A 
ATOM      7  C   UNL     1       2.099   8.575  17.866  0.00  0.00    +0.000 A 
ATOM      8  C   UNL     1       1.442   9.335  18.834  0.00  0.00    +0.000 A 
ATOM      9  C   UNL     1       1.338   8.864  20.150  0.00  0.00    +0.000 A 
ATOM     10  C   UNL     1       1.787   7.568  20.449  0.00  0.00    +0.000 A 
BRANCH   9  11
ATOM     11  N   UNL     1       0.776   9.691  21.160  0.00  0.00    +0.000 N 
ATOM     12  C   UNL     1       0.497   9.358  22.464  0.00  0.00    +0.000 A 
ATOM     13  N   UNL     1      -0.035  10.378  23.097  0.00  0.00    +0.000 NA
ATOM     14  N   UNL     1      -0.126  11.414  22.206  0.00  0.00    +0.000 NA
ATOM     15  C   UNL     1       0.355  10.994  21.058  0.00  0.00    +0.000 A 
ENDBRANCH   9  11
ENDBRANCH   3   5
BRANCH   1  16
ATOM     16  C   UNL     1       5.024   5.382  18.958  0.00  0.00    +0.000 C 
BRANCH  16  22
ATOM     17  C   UNL     1       7.678   5.120  13.207  0.00  0.00    +0.000 C 
ATOM     18  N   UNL     1       6.570   4.317  13.676  0.00  0.00    +0.000 N 
ATOM     19  C   UNL     1       6.153   4.636  14.960  0.00  0.00    +0.000 A 
ATOM     20  N   UNL     1       6.301   5.884  15.427  0.00  0.00    +0.000 NA
ATOM     21  C   UNL     1       5.932   6.115  16.699  0.00  0.00    +0.000 A 
ATOM     22  C   UNL     1       5.429   5.148  17.538  0.00  0.00    +0.000 A 
ATOM     23  C   UNL     1       5.289   3.910  16.947  0.00  0.00    +0.000 A 
ATOM     24  N   UNL     1       5.652   3.627  15.682  0.00  0.00    +0.000 NA
ATOM     25  H   UNL     1       6.706   3.313  13.660  0.00  0.00    +0.000 HD
ENDBRANCH  16  22
ENDBRANCH   1  16
TORSDOF 4
ENDMDL
MODEL 6
REMARK VINA RESULT:      -7.5      1.732      7.932
REMARK  Name = 
REMARK  6 active torsions:
REMARK  status: ('A' for Active; 'I' for Inactive)
REMARK    1  A    between atoms: C_1  and  N_2
REMARK    2  A    between atoms: C_6  and  C_7
REMARK    3  A    between atoms: C_7  and  N_8
REMARK    4  A    between atoms: N_8  and  C_9
REMARK    5  A    between atoms: C_10  and  C_12
REMARK    6  A    between atoms: C_16  and  N_17
REMARK                            x       y       z     vdW  Elec       q    Type
REMARK                         _______ _______ _______ _____ _____    ______ ____
ROOT
ATOM      1  N   UNL     1       2.533   4.466  18.916  0.00  0.00    +0.000 N 
ATOM      2  C   UNL     1       1.253   3.903  19.329  0.00  0.00    +0.000 C 
ATOM      3  C   UNL     1       3.072   4.022  17.697  0.00  0.00    +0.000 C 
ATOM      4  O   UNL     1       2.481   3.248  16.949  0.00  0.00    +0.000 OA
ENDROOT
BRANCH   3   5
ATOM      5  C   UNL     1       4.480   4.364  17.342  0.00  0.00    +0.000 A 
ATOM      6  C   UNL     1       5.445   4.671  18.296  0.00  0.00    +0.000 A 
ATOM      7  C   UNL     1       6.790   4.697  17.938  0.00  0.00    +0.000 A 
ATOM      8  C   UNL     1       7.164   4.527  16.604  0.00  0.00    +0.000 A 
ATOM      9  C   UNL     1       6.188   4.395  15.608  0.00  0.00    +0.000 A 
ATOM     10  C   UNL     1       4.838   4.307  15.983  0.00  0.00    +0.000 A 
BRANCH   9  11
ATOM     11  N   UNL     1       6.568   4.343  14.240  0.00  0.00    +0.000 N 
ATOM     12  C   UNL     1       7.526   5.093  13.602  0.00  0.00    +0.000 A 
ATOM     13  N   UNL     1       7.586   4.781  12.328  0.00  0.00    +0.000 NA
ATOM     14  N   UNL     1       6.647   3.810  12.099  0.00  0.00    +0.000 NA
ATOM     15  C   UNL     1       6.046   3.560  13.240  0.00  0.00    +0.000 A 
ENDBRANCH   9  11
ENDBRANCH   3   5
BRANCH   1  16
ATOM     16  C   UNL     1       3.076   5.501  19.804  0.00  0.00    +0.000 C 
BRANCH  16  22
ATOM     17  C   UNL     1      -0.196  10.760  18.454  0.00  0.00    +0.000 C 
ATOM     18  N   UNL     1       0.338  10.392  19.748  0.00  0.00    +0.000 N 
ATOM     19  C   UNL     1       1.071   9.215  19.734  0.00  0.00    +0.000 A 
ATOM     20  N   UNL     1       1.722   8.837  18.625  0.00  0.00    +0.000 NA
ATOM     21  C   UNL     1       2.364   7.656  18.658  0.00  0.00    +0.000 A 
ATOM     22  C   UNL     1       2.377   6.822  19.752  0.00  0.00    +0.000 A 
ATOM     23  C   UNL     1       1.705   7.321  20.847  0.00  0.00    +0.000 A 
ATOM     24  N   UNL     1       1.039   8.491  20.860  0.00  0.00    +0.000 NA
ATOM     25  H   UNL     1      -0.334  10.305  20.501  0.00  0.00    +0.000 HD
ENDBRANCH  16  22
ENDBRANCH   1  16
TORSDOF 4
ENDMDL
MODEL 7
REMARK VINA RESULT:      -7.5      1.655      7.517
REMARK  Name = 
REMARK  6 active torsions:
REMARK  status: ('A' for Active; 'I' for Inactive)
REMARK    1  A    between atoms: C_1  and  N_2
REMARK    2  A    between atoms: C_6  and  C_7
REMARK    3  A    between atoms: C_7  and  N_8
REMARK    4  A    between atoms: N_8  and  C_9
REMARK    5  A    between atoms: C_10  and  C_12
REMARK    6  A    between atoms: C_16  and  N_17
REMARK                            x       y       z     vdW  Elec       q    Type
REMARK                         _______ _______ _______ _____ _____    ______ ____
ROOT
ATOM      1  N   UNL     1       3.161   3.403  19.528  0.00  0.00    +0.000 N 
ATOM      2  C   UNL     1       2.447   2.576  20.494  0.00  0.00    +0.000 C 
ATOM      3  C   UNL     1       4.554   3.246  19.444  0.00  0.00    +0.000 C 
ATOM      4  O   UNL     1       5.170   2.402  20.091  0.00  0.00    +0.000 OA
ENDROOT
BRANCH   3   5
ATOM      5  C   UNL     1       5.365   4.226  18.667  0.00  0.00    +0.000 A 
ATOM      6  C   UNL     1       6.041   5.286  19.263  0.00  0.00    +0.000 A 
ATOM      7  C   UNL     1       7.003   5.988  18.542  0.00  0.00    +0.000 A 
ATOM      8  C   UNL     1       7.212   5.706  17.192  0.00  0.00    +0.000 A 
ATOM      9  C   UNL     1       6.411   4.762  16.536  0.00  0.00    +0.000 A 
ATOM     10  C   UNL     1       5.487   4.014  17.282  0.00  0.00    +0.000 A 
BRANCH   9  11
ATOM     11  N   UNL     1       6.545   4.564  15.135  0.00  0.00    +0.000 N 
ATOM     12  C   UNL     1       5.863   3.675  14.340  0.00  0.00    +0.000 A 
ATOM     13  N   UNL     1       6.267   3.764  13.094  0.00  0.00    +0.000 NA
ATOM     14  N   UNL     1       7.246   4.721  13.047  0.00  0.00    +0.000 NA
ATOM     15  C   UNL     1       7.404   5.187  14.265  0.00  0.00    +0.000 A 
ENDBRANCH   9  11
ENDBRANCH   3   5
BRANCH   1  16
ATOM     16  C   UNL     1       2.311   4.262  18.694  0.00  0.00    +0.000 C 
BRANCH  16  22
ATOM     17  C   UNL     1       0.882  10.333  19.825  0.00  0.00    +0.000 C 
ATOM     18  N   UNL     1       1.306   9.357  20.805  0.00  0.00    +0.000 N 
ATOM     19  C   UNL     1       1.617   8.120  20.261  0.00  0.00    +0.000 A 
ATOM     20  N   UNL     1       2.077   8.031  19.005  0.00  0.00    +0.000 NA
ATOM     21  C   UNL     1       2.302   6.798  18.516  0.00  0.00    +0.000 A 
ATOM     22  C   UNL     1       2.077   5.641  19.223  0.00  0.00    +0.000 A 
ATOM     23  C   UNL     1       1.636   5.848  20.513  0.00  0.00    +0.000 A 
ATOM     24  N   UNL     1       1.386   7.060  21.044  0.00  0.00    +0.000 NA
ATOM     25  H   UNL     1       0.665   9.182  21.570  0.00  0.00    +0.000 HD
ENDBRANCH  16  22
ENDBRANCH   1  16
TORSDOF 4
ENDMDL
MODEL 8
REMARK VINA RESULT:      -7.3      1.926      7.868
REMARK  Name = 
REMARK  6 active torsions:
REMARK  status: ('A' for Active; 'I' for Inactive)
REMARK    1  A    between atoms: C_1  and  N_2
REMARK    2  A    between atoms: C_6  and  C_7
REMARK    3  A    between atoms: C_7  and  N_8
REMARK    4  A    between atoms: N_8  and  C_9
REMARK    5  A    between atoms: C_10  and  C_12
REMARK    6  A    between atoms: C_16  and  N_17
REMARK                            x       y       z     vdW  Elec       q    Type
REMARK                         _______ _______ _______ _____ _____    ______ ____
ROOT
ATOM      1  N   UNL     1       2.309   3.108  18.073  0.00  0.00    +0.000 N 
ATOM      2  C   UNL     1       1.308   2.237  18.676  0.00  0.00    +0.000 C 
ATOM      3  C   UNL     1       3.603   2.589  17.905  0.00  0.00    +0.000 C 
ATOM      4  O   UNL     1       3.896   1.427  18.177  0.00  0.00    +0.000 OA
ENDROOT
BRANCH   3   5
ATOM      5  C   UNL     1       4.724   3.498  17.531  0.00  0.00    +0.000 A 
ATOM      6  C   UNL     1       5.458   4.217  18.470  0.00  0.00    +0.000 A 
ATOM      7  C   UNL     1       6.659   4.815  18.102  0.00  0.00    +0.000 A 
ATOM      8  C   UNL     1       7.075   4.792  16.770  0.00  0.00    +0.000 A 
ATOM      9  C   UNL     1       6.256   4.224  15.784  0.00  0.00    +0.000 A 
ATOM     10  C   UNL     1       5.076   3.568  16.171  0.00  0.00    +0.000 A 
BRANCH   9  11
ATOM     11  N   UNL     1       6.626   4.309  14.415  0.00  0.00    +0.000 N 
ATOM     12  C   UNL     1       7.536   5.162  13.838  0.00  0.00    +0.000 A 
ATOM     13  N   UNL     1       7.601   4.962  12.543  0.00  0.00    +0.000 NA
ATOM     14  N   UNL     1       6.713   3.964  12.236  0.00  0.00    +0.000 NA
ATOM     15  C   UNL     1       6.138   3.586  13.355  0.00  0.00    +0.000 A 
ENDBRANCH   9  11
ENDBRANCH   3   5
BRANCH   1  16
ATOM     16  C   UNL     1       1.815   4.421  17.638  0.00  0.00    +0.000 C 
BRANCH  16  22
ATOM     17  C   UNL     1       1.303   9.624  21.222  0.00  0.00    +0.000 C 
ATOM     18  N   UNL     1       1.694   8.307  21.676  0.00  0.00    +0.000 N 
ATOM     19  C   UNL     1       1.786   7.370  20.657  0.00  0.00    +0.000 A 
ATOM     20  N   UNL     1       2.102   7.755  19.413  0.00  0.00    +0.000 NA
ATOM     21  C   UNL     1       2.116   6.808  18.458  0.00  0.00    +0.000 A 
ATOM     22  C   UNL     1       1.815   5.486  18.687  0.00  0.00    +0.000 A 
ATOM     23  C   UNL     1       1.536   5.194  20.005  0.00  0.00    +0.000 A 
ATOM     24  N   UNL     1       1.500   6.107  20.994  0.00  0.00    +0.000 NA
ATOM     25  H   UNL     1       1.115   7.892  22.397  0.00  0.00    +0.000 HD
ENDBRANCH  16  22
ENDBRANCH   1  16
TORSDOF 4
ENDMDL
MODEL 9
REMARK VINA RESULT:      -7.3      1.145      1.562
REMARK  Name = 
REMARK  6 active torsions:
REMARK  status: ('A' for Active; 'I' for Inactive)
REMARK    1  A    between atoms: C_1  and  N_2
REMARK    2  A    between atoms: C_6  and  C_7
REMARK    3  A    between atoms: C_7  and  N_8
REMARK    4  A    between atoms: N_8  and  C_9
REMARK    5  A    between atoms: C_10  and  C_12
REMARK    6  A    between atoms: C_16  and  N_17
REMARK                            x       y       z     vdW  Elec       q    Type
REMARK                         _______ _______ _______ _____ _____    ______ ____
ROOT
ATOM      1  N   UNL     1       3.673   3.963  18.563  0.00  0.00    +0.000 N 
ATOM      2  C   UNL     1       3.624   2.534  18.281  0.00  0.00    +0.000 C 
ATOM      3  C   UNL     1       2.485   4.583  18.983  0.00  0.00    +0.000 C 
ATOM      4  O   UNL     1       1.445   3.961  19.187  0.00  0.00    +0.000 OA
ENDROOT
BRANCH   3   5
ATOM      5  C   UNL     1       2.406   6.070  19.044  0.00  0.00    +0.000 A 
ATOM      6  C   UNL     1       2.820   6.891  18.000  0.00  0.00    +0.000 A 
ATOM      7  C   UNL     1       2.462   8.236  17.991  0.00  0.00    +0.000 A 
ATOM      8  C   UNL     1       1.785   8.789  19.079  0.00  0.00    +0.000 A 
ATOM      9  C   UNL     1       1.520   8.012  20.214  0.00  0.00    +0.000 A 
ATOM     10  C   UNL     1       1.828   6.642  20.192  0.00  0.00    +0.000 A 
BRANCH   9  11
ATOM     11  N   UNL     1       0.939   8.608  21.366  0.00  0.00    +0.000 N 
ATOM     12  C   UNL     1      -0.389   8.652  21.714  0.00  0.00    +0.000 A 
ATOM     13  N   UNL     1      -0.551   9.306  22.841  0.00  0.00    +0.000 NA
ATOM     14  N   UNL     1       0.687   9.719  23.257  0.00  0.00    +0.000 NA
ATOM     15  C   UNL     1       1.563   9.302  22.372  0.00  0.00    +0.000 A 
ENDBRANCH   9  11
ENDBRANCH   3   5
BRANCH   1  16
ATOM     16  C   UNL     1       5.002   4.577  18.442  0.00  0.00    +0.000 C 
BRANCH  16  22
ATOM     17  C   UNL     1       8.160   5.645  13.051  0.00  0.00    +0.000 C 
ATOM     18  N   UNL     1       7.065   4.716  13.232  0.00  0.00    +0.000 N 
ATOM     19  C   UNL     1       6.519   4.741  14.507  0.00  0.00    +0.000 A 
ATOM     20  N   UNL     1       6.551   5.866  15.234  0.00  0.00    +0.000 NA
ATOM     21  C   UNL     1       6.059   5.807  16.484  0.00  0.00    +0.000 A 
ATOM     22  C   UNL     1       5.543   4.666  17.051  0.00  0.00    +0.000 A 
ATOM     23  C   UNL     1       5.529   3.576  16.207  0.00  0.00    +0.000 A 
ATOM     24  N   UNL     1       6.019   3.582  14.952  0.00  0.00    +0.000 NA
ATOM     25  H   UNL     1       7.263   3.745  13.022  0.00  0.00    +0.000 HD
ENDBRANCH  16  22
ENDBRANCH   1  16
TORSDOF 4
ENDMDL
