MODEL 1
REMARK VINA RESULT:      -8.1      0.000      0.000
REMARK  Name = 
REMARK  4 active torsions:
REMARK  status: ('A' for Active; 'I' for Inactive)
REMARK    1  A    between atoms: C_2  and  C_3
REMARK    2  A    between atoms: N_5  and  C_6
REMARK    3  A    between atoms: C_6  and  C_7
REMARK    4  A    between atoms: C_7  and  C_8
REMARK                            x       y       z     vdW  Elec       q    Type
REMARK                         _______ _______ _______ _____ _____    ______ ____
ROOT
ATOM      1  C   UNL     1       2.728   6.336  18.679  0.00  0.00    +0.000 A 
ATOM      2  N   UNL     1       2.071   5.209  18.357  0.00  0.00    +0.000 NA
ATOM      3  N   UNL     1       2.830   4.588  17.427  0.00  0.00    +0.000 N 
ATOM      4  C   UNL     1       3.963   5.303  17.095  0.00  0.00    +0.000 A 
ATOM      5  C   UNL     1       3.916   6.428  17.908  0.00  0.00    +0.000 A 
ATOM      6  C   UNL     1       4.952   7.492  17.929  0.00  0.00    +0.000 C 
ATOM      7  S   UNL     1       6.569   6.776  17.657  0.00  0.00    +0.000 S 
ATOM      8  O   UNL     1       6.947   5.987  18.815  0.00  0.00    +0.000 OA
ATOM      9  O   UNL     1       7.441   7.825  17.158  0.00  0.00    +0.000 OA
ATOM     10  C   UNL     1       6.311   5.626  16.323  0.00  0.00    +0.000 A 
ATOM     11  C   UNL     1       7.378   5.406  15.443  0.00  0.00    +0.000 A 
ATOM     12  C   UNL     1       7.214   4.524  14.380  0.00  0.00    +0.000 A 
ATOM     13  C   UNL     1       5.988   3.897  14.190  0.00  0.00    +0.000 A 
ATOM     14  C   UNL     1       4.914   4.156  15.051  0.00  0.00    +0.000 A 
ATOM     15  C   UNL     1       5.055   5.003  16.155  0.00  0.00    +0.000 A 
ENDROOT
BRANCH   1  17
ATOM     16  O   UNL     1       2.253   7.106  20.841  0.00  0.00    +0.000 OA
ATOM     17  C   UNL     1       2.240   7.356  19.636  0.00  0.00    +0.000 C 
ATOM     18  N   UNL     1       1.730   8.569  19.167  0.00  0.00    +0.000 N 
ATOM     19  C   UNL     1       1.370   9.623  20.121  0.00  0.00    +0.000 C 
ATOM     20  C   UNL     1      -0.036  10.164  19.839  0.00  0.00    +0.000 C 
ATOM     21  O   UNL     1      -0.167  10.586  18.473  0.00  0.00    +0.000 OA
ATOM     22  C   UNL     1       0.081   9.488  17.584  0.00  0.00    +0.000 C 
ATOM     23  C   UNL     1       1.497   8.930  17.766  0.00  0.00    +0.000 C 
ENDBRANCH   1  17
BRANCH   3  24
ATOM     24  C   UNL     1       2.297   3.352  16.868  0.00  0.00    +0.000 C 
BRANCH  24  25
ATOM     25  C   UNL     1       2.659   2.082  17.632  0.00  0.00    +0.000 C 
BRANCH  25  26
ATOM     26  C   UNL     1       2.495   2.273  19.122  0.00  0.00    +0.000 A 
ATOM     27  C   UNL     1       1.231   2.442  19.680  0.00  0.00    +0.000 A 
ATOM     28  C   UNL     1       1.123   2.696  21.045  0.00  0.00    +0.000 A 
ATOM     29  C   UNL     1       2.273   2.775  21.817  0.00  0.00    +0.000 A 
ATOM     30  C   UNL     1       3.493   2.587  21.188  0.00  0.00    +0.000 A 
ATOM     31  N   UNL     1       3.629   2.344  19.864  0.00  0.00    +0.000 NA
ENDBRANCH  25  26
ENDBRANCH  24  25
ENDBRANCH   3  24
TORSDOF 4
ENDMDL
MODEL 2
REMARK VINA RESULT:      -7.8      5.771      9.316
REMARK  Name = 
REMARK  4 active torsions:
REMARK  status: ('A' for Active; 'I' for Inactive)
REMARK    1  A    between atoms: C_2  and  C_3
REMARK    2  A    between atoms: N_5  and  C_6
REMARK    3  A    between atoms: C_6  and  C_7
REMARK    4  A    between atoms: C_7  and  C_8
REMARK                            x       y       z     vdW  Elec       q    Type
REMARK                         _______ _______ _______ _____ _____    ______ ____
ROOT
ATOM      1  C   UNL     1      -2.296  12.300  21.173  0.00  0.00    +0.000 A 
ATOM      2  N   UNL     1      -2.830  12.347  19.942  0.00  0.00    +0.000 NA
ATOM      3  N   UNL     1      -2.067  11.538  19.174  0.00  0.00    +0.000 N 
ATOM      4  C   UNL     1      -1.010  10.983  19.865  0.00  0.00    +0.000 A 
ATOM      5  C   UNL     1      -1.155  11.456  21.163  0.00  0.00    +0.000 A 
ATOM      6  C   UNL     1      -0.256  11.101  22.290  0.00  0.00    +0.000 C 
ATOM      7  S   UNL     1       0.302   9.410  22.120  0.00  0.00    +0.000 S 
ATOM      8  O   UNL     1      -0.813   8.510  22.350  0.00  0.00    +0.000 OA
ATOM      9  O   UNL     1       1.536   9.270  22.873  0.00  0.00    +0.000 OA
ATOM     10  C   UNL     1       0.719   9.267  20.394  0.00  0.00    +0.000 A 
ATOM     11  C   UNL     1       1.753   8.389  20.049  0.00  0.00    +0.000 A 
ATOM     12  C   UNL     1       2.119   8.256  18.715  0.00  0.00    +0.000 A 
ATOM     13  C   UNL     1       1.473   9.018  17.747  0.00  0.00    +0.000 A 
ATOM     14  C   UNL     1       0.469   9.926  18.106  0.00  0.00    +0.000 A 
ATOM     15  C   UNL     1       0.046  10.053  19.433  0.00  0.00    +0.000 A 
ENDROOT
BRANCH   1  17
ATOM     16  O   UNL     1      -3.672  12.597  23.047  0.00  0.00    +0.000 OA
ATOM     17  C   UNL     1      -2.785  13.073  22.339  0.00  0.00    +0.000 C 
ATOM     18  N   UNL     1      -2.274  14.345  22.600  0.00  0.00    +0.000 N 
ATOM     19  C   UNL     1      -2.666  15.050  23.825  0.00  0.00    +0.000 C 
ATOM     20  C   UNL     1      -3.124  16.480  23.516  0.00  0.00    +0.000 C 
ATOM     21  O   UNL     1      -2.130  17.191  22.762  0.00  0.00    +0.000 OA
ATOM     22  C   UNL     1      -1.868  16.523  21.521  0.00  0.00    +0.000 C 
ATOM     23  C   UNL     1      -1.346  15.100  21.751  0.00  0.00    +0.000 C 
ENDBRANCH   1  17
BRANCH   3  24
ATOM     24  C   UNL     1      -2.413  11.464  17.760  0.00  0.00    +0.000 C 
BRANCH  24  25
ATOM     25  C   UNL     1      -3.516  10.469  17.410  0.00  0.00    +0.000 C 
BRANCH  25  26
ATOM     26  C   UNL     1      -4.885  11.081  17.595  0.00  0.00    +0.000 A 
ATOM     27  C   UNL     1      -5.255  12.216  16.880  0.00  0.00    +0.000 A 
ATOM     28  C   UNL     1      -6.494  12.800  17.134  0.00  0.00    +0.000 A 
ATOM     29  C   UNL     1      -7.330  12.240  18.089  0.00  0.00    +0.000 A 
ATOM     30  C   UNL     1      -6.891  11.105  18.751  0.00  0.00    +0.000 A 
ATOM     31  N   UNL     1      -5.692  10.518  18.530  0.00  0.00    +0.000 NA
ENDBRANCH  25  26
ENDBRANCH  24  25
ENDBRANCH   3  24
TORSDOF 4
ENDMDL
MODEL 3
REMARK VINA RESULT:      -7.8      2.193      6.469
REMARK  Name = 
REMARK  4 active torsions:
REMARK  status: ('A' for Active; 'I' for Inactive)
REMARK    1  A    between atoms: C_2  and  C_3
REMARK    2  A    between atoms: N_5  and  C_6
REMARK    3  A    between atoms: C_6  and  C_7
REMARK    4  A    between atoms: C_7  and  C_8
REMARK                            x       y       z     vdW  Elec       q    Type
REMARK                         _______ _______ _______ _____ _____    ______ ____
ROOT
ATOM      1  C   UNL     1       3.242   7.036  18.281  0.00  0.00    +0.000 A 
ATOM      2  N   UNL     1       2.977   5.973  19.058  0.00  0.00    +0.000 NA
ATOM      3  N   UNL     1       2.127   6.410  20.013  0.00  0.00    +0.000 N 
ATOM      4  C   UNL     1       1.852   7.759  19.909  0.00  0.00    +0.000 A 
ATOM      5  C   UNL     1       2.555   8.172  18.784  0.00  0.00    +0.000 A 
ATOM      6  C   UNL     1       2.544   9.558  18.251  0.00  0.00    +0.000 C 
ATOM      7  S   UNL     1       0.931  10.294  18.493  0.00  0.00    +0.000 S 
ATOM      8  O   UNL     1      -0.031   9.644  17.622  0.00  0.00    +0.000 OA
ATOM      9  O   UNL     1       1.093  11.737  18.474  0.00  0.00    +0.000 OA
ATOM     10  C   UNL     1       0.495   9.835  20.158  0.00  0.00    +0.000 A 
ATOM     11  C   UNL     1      -0.305  10.723  20.885  0.00  0.00    +0.000 A 
ATOM     12  C   UNL     1      -0.658  10.410  22.193  0.00  0.00    +0.000 A 
ATOM     13  C   UNL     1      -0.188   9.234  22.768  0.00  0.00    +0.000 A 
ATOM     14  C   UNL     1       0.647   8.371  22.046  0.00  0.00    +0.000 A 
ATOM     15  C   UNL     1       0.986   8.634  20.715  0.00  0.00    +0.000 A 
ENDROOT
BRANCH   1  17
ATOM     16  O   UNL     1       3.793   7.499  16.051  0.00  0.00    +0.000 OA
ATOM     17  C   UNL     1       4.169   7.032  17.126  0.00  0.00    +0.000 C 
ATOM     18  N   UNL     1       5.438   6.463  17.249  0.00  0.00    +0.000 N 
ATOM     19  C   UNL     1       6.396   6.577  16.144  0.00  0.00    +0.000 C 
ATOM     20  C   UNL     1       7.004   5.213  15.798  0.00  0.00    +0.000 C 
ATOM     21  O   UNL     1       7.570   4.587  16.960  0.00  0.00    +0.000 OA
ATOM     22  C   UNL     1       6.566   4.392  17.965  0.00  0.00    +0.000 C 
ATOM     23  C   UNL     1       5.952   5.725  18.407  0.00  0.00    +0.000 C 
ENDBRANCH   1  17
BRANCH   3  24
ATOM     24  C   UNL     1       1.730   5.442  21.027  0.00  0.00    +0.000 C 
BRANCH  24  25
ATOM     25  C   UNL     1       1.005   4.207  20.500  0.00  0.00    +0.000 C 
BRANCH  25  26
ATOM     26  C   UNL     1       1.937   3.320  19.710  0.00  0.00    +0.000 A 
ATOM     27  C   UNL     1       1.574   2.859  18.447  0.00  0.00    +0.000 A 
ATOM     28  C   UNL     1       2.423   1.977  17.780  0.00  0.00    +0.000 A 
ATOM     29  C   UNL     1       3.607   1.581  18.385  0.00  0.00    +0.000 A 
ATOM     30  C   UNL     1       3.899   2.091  19.639  0.00  0.00    +0.000 A 
ATOM     31  N   UNL     1       3.093   2.944  20.313  0.00  0.00    +0.000 NA
ENDBRANCH  25  26
ENDBRANCH  24  25
ENDBRANCH   3  24
TORSDOF 4
ENDMDL
MODEL 4
REMARK VINA RESULT:      -7.7      5.652      9.193
REMARK  Name = 
REMARK  4 active torsions:
REMARK  status: ('A' for Active; 'I' for Inactive)
REMARK    1  A    between atoms: C_2  and  C_3
REMARK    2  A    between atoms: N_5  and  C_6
REMARK    3  A    between atoms: C_6  and  C_7
REMARK    4  A    between atoms: C_7  and  C_8
REMARK                            x       y       z     vdW  Elec       q    Type
REMARK                         _______ _______ _______ _____ _____    ______ ____
ROOT
ATOM      1  C   UNL     1      -2.088  12.444  20.734  0.00  0.00    +0.000 A 
ATOM      2  N   UNL     1      -2.591  12.366  19.491  0.00  0.00    +0.000 NA
ATOM      3  N   UNL     1      -1.846  11.443  18.845  0.00  0.00    +0.000 N 
ATOM      4  C   UNL     1      -0.828  10.933  19.626  0.00  0.00    +0.000 A 
ATOM      5  C   UNL     1      -0.983  11.562  20.855  0.00  0.00    +0.000 A 
ATOM      6  C   UNL     1      -0.125  11.309  22.040  0.00  0.00    +0.000 C 
ATOM      7  S   UNL     1       0.365   9.589  22.085  0.00  0.00    +0.000 S 
ATOM      8  O   UNL     1      -0.792   8.766  22.389  0.00  0.00    +0.000 OA
ATOM      9  O   UNL     1       1.574   9.492  22.884  0.00  0.00    +0.000 OA
ATOM     10  C   UNL     1       0.815   9.226  20.401  0.00  0.00    +0.000 A 
ATOM     11  C   UNL     1       1.819   8.274  20.190  0.00  0.00    +0.000 A 
ATOM     12  C   UNL     1       2.210   7.970  18.891  0.00  0.00    +0.000 A 
ATOM     13  C   UNL     1       1.619   8.636  17.823  0.00  0.00    +0.000 A 
ATOM     14  C   UNL     1       0.645   9.618  18.045  0.00  0.00    +0.000 A 
ATOM     15  C   UNL     1       0.198   9.918  19.336  0.00  0.00    +0.000 A 
ENDROOT
BRANCH   1  17
ATOM     16  O   UNL     1      -1.770  13.820  22.605  0.00  0.00    +0.000 OA
ATOM     17  C   UNL     1      -2.571  13.368  21.787  0.00  0.00    +0.000 C 
ATOM     18  N   UNL     1      -3.929  13.683  21.873  0.00  0.00    +0.000 N 
ATOM     19  C   UNL     1      -4.381  14.696  22.832  0.00  0.00    +0.000 C 
ATOM     20  C   UNL     1      -5.557  14.178  23.668  0.00  0.00    +0.000 C 
ATOM     21  O   UNL     1      -6.619  13.698  22.828  0.00  0.00    +0.000 OA
ATOM     22  C   UNL     1      -6.153  12.629  21.993  0.00  0.00    +0.000 C 
ATOM     23  C   UNL     1      -5.011  13.090  21.081  0.00  0.00    +0.000 C 
ENDBRANCH   1  17
BRANCH   3  24
ATOM     24  C   UNL     1      -2.161  11.214  17.441  0.00  0.00    +0.000 C 
BRANCH  24  25
ATOM     25  C   UNL     1      -3.330  10.267  17.181  0.00  0.00    +0.000 C 
BRANCH  25  26
ATOM     26  C   UNL     1      -4.651  10.925  17.503  0.00  0.00    +0.000 A 
ATOM     27  C   UNL     1      -5.545  10.325  18.384  0.00  0.00    +0.000 A 
ATOM     28  C   UNL     1      -6.788  10.919  18.596  0.00  0.00    +0.000 A 
ATOM     29  C   UNL     1      -7.106  12.092  17.928  0.00  0.00    +0.000 A 
ATOM     30  C   UNL     1      -6.158  12.631  17.074  0.00  0.00    +0.000 A 
ATOM     31  N   UNL     1      -4.945  12.075  16.845  0.00  0.00    +0.000 NA
ENDBRANCH  25  26
ENDBRANCH  24  25
ENDBRANCH   3  24
TORSDOF 4
ENDMDL
MODEL 5
REMARK VINA RESULT:      -7.7      5.568      9.017
REMARK  Name = 
REMARK  4 active torsions:
REMARK  status: ('A' for Active; 'I' for Inactive)
REMARK    1  A    between atoms: C_2  and  C_3
REMARK    2  A    between atoms: N_5  and  C_6
REMARK    3  A    between atoms: C_6  and  C_7
REMARK    4  A    between atoms: C_7  and  C_8
REMARK                            x       y       z     vdW  Elec       q    Type
REMARK                         _______ _______ _______ _____ _____    ______ ____
ROOT
ATOM      1  C   UNL     1      -1.558  12.845  20.427  0.00  0.00    +0.000 A 
ATOM      2  N   UNL     1      -2.115  12.715  19.212  0.00  0.00    +0.000 NA
ATOM      3  N   UNL     1      -1.515  11.648  18.639  0.00  0.00    +0.000 N 
ATOM      4  C   UNL     1      -0.539  11.088  19.438  0.00  0.00    +0.000 A 
ATOM      5  C   UNL     1      -0.566  11.845  20.603  0.00  0.00    +0.000 A 
ATOM      6  C   UNL     1       0.299  11.597  21.784  0.00  0.00    +0.000 C 
ATOM      7  S   UNL     1       0.574   9.840  21.983  0.00  0.00    +0.000 S 
ATOM      8  O   UNL     1      -0.662   9.203  22.397  0.00  0.00    +0.000 OA
ATOM      9  O   UNL     1       1.793   9.665  22.754  0.00  0.00    +0.000 OA
ATOM     10  C   UNL     1       0.910   9.267  20.331  0.00  0.00    +0.000 A 
ATOM     11  C   UNL     1       1.779   8.179  20.187  0.00  0.00    +0.000 A 
ATOM     12  C   UNL     1       2.078   7.708  18.914  0.00  0.00    +0.000 A 
ATOM     13  C   UNL     1       1.532   8.341  17.802  0.00  0.00    +0.000 A 
ATOM     14  C   UNL     1       0.697   9.455  17.954  0.00  0.00    +0.000 A 
ATOM     15  C   UNL     1       0.341   9.929  19.221  0.00  0.00    +0.000 A 
ENDROOT
BRANCH   1  17
ATOM     16  O   UNL     1      -1.210  14.948  21.399  0.00  0.00    +0.000 OA
ATOM     17  C   UNL     1      -1.881  13.917  21.397  0.00  0.00    +0.000 C 
ATOM     18  N   UNL     1      -2.908  13.735  22.326  0.00  0.00    +0.000 N 
ATOM     19  C   UNL     1      -3.308  14.846  23.195  0.00  0.00    +0.000 C 
ATOM     20  C   UNL     1      -3.369  14.405  24.662  0.00  0.00    +0.000 C 
ATOM     21  O   UNL     1      -4.205  13.248  24.821  0.00  0.00    +0.000 OA
ATOM     22  C   UNL     1      -3.703  12.155  24.041  0.00  0.00    +0.000 C 
ATOM     23  C   UNL     1      -3.670  12.502  22.548  0.00  0.00    +0.000 C 
ENDBRANCH   1  17
BRANCH   3  24
ATOM     24  C   UNL     1      -1.912  11.331  17.272  0.00  0.00    +0.000 C 
BRANCH  24  25
ATOM     25  C   UNL     1      -3.016  10.286  17.140  0.00  0.00    +0.000 C 
BRANCH  25  26
ATOM     26  C   UNL     1      -4.366  10.869  17.483  0.00  0.00    +0.000 A 
ATOM     27  C   UNL     1      -5.205  10.227  18.391  0.00  0.00    +0.000 A 
ATOM     28  C   UNL     1      -6.476  10.749  18.622  0.00  0.00    +0.000 A 
ATOM     29  C   UNL     1      -6.877  11.893  17.948  0.00  0.00    +0.000 A 
ATOM     30  C   UNL     1      -5.981  12.476  17.068  0.00  0.00    +0.000 A 
ATOM     31  N   UNL     1      -4.743  11.991  16.818  0.00  0.00    +0.000 NA
ENDBRANCH  25  26
ENDBRANCH  24  25
ENDBRANCH   3  24
TORSDOF 4
ENDMDL
MODEL 6
REMARK VINA RESULT:      -7.6      7.884     10.864
REMARK  Name = 
REMARK  4 active torsions:
REMARK  status: ('A' for Active; 'I' for Inactive)
REMARK    1  A    between atoms: C_2  and  C_3
REMARK    2  A    between atoms: N_5  and  C_6
REMARK    3  A    between atoms: C_6  and  C_7
REMARK    4  A    between atoms: C_7  and  C_8
REMARK                            x       y       z     vdW  Elec       q    Type
REMARK                         _______ _______ _______ _____ _____    ______ ____
ROOT
ATOM      1  C   UNL     1      -4.063  13.628  21.670  0.00  0.00    +0.000 A 
ATOM      2  N   UNL     1      -2.761  13.954  21.608  0.00  0.00    +0.000 NA
ATOM      3  N   UNL     1      -2.265  13.303  20.533  0.00  0.00    +0.000 N 
ATOM      4  C   UNL     1      -3.207  12.517  19.900  0.00  0.00    +0.000 A 
ATOM      5  C   UNL     1      -4.377  12.730  20.618  0.00  0.00    +0.000 A 
ATOM      6  C   UNL     1      -5.687  12.111  20.289  0.00  0.00    +0.000 C 
ATOM      7  S   UNL     1      -5.860  11.952  18.515  0.00  0.00    +0.000 S 
ATOM      8  O   UNL     1      -6.012  13.270  17.926  0.00  0.00    +0.000 OA
ATOM      9  O   UNL     1      -6.835  10.907  18.256  0.00  0.00    +0.000 OA
ATOM     10  C   UNL     1      -4.276  11.338  17.982  0.00  0.00    +0.000 A 
ATOM     11  C   UNL     1      -4.251  10.504  16.858  0.00  0.00    +0.000 A 
ATOM     12  C   UNL     1      -3.036   9.993  16.415  0.00  0.00    +0.000 A 
ATOM     13  C   UNL     1      -1.870  10.294  17.110  0.00  0.00    +0.000 A 
ATOM     14  C   UNL     1      -1.911  11.095  18.258  0.00  0.00    +0.000 A 
ATOM     15  C   UNL     1      -3.108  11.661  18.706  0.00  0.00    +0.000 A 
ENDROOT
BRANCH   1  17
ATOM     16  O   UNL     1      -5.216  13.352  23.692  0.00  0.00    +0.000 OA
ATOM     17  C   UNL     1      -5.000  14.081  22.725  0.00  0.00    +0.000 C 
ATOM     18  N   UNL     1      -5.663  15.304  22.594  0.00  0.00    +0.000 N 
ATOM     19  C   UNL     1      -6.488  15.805  23.698  0.00  0.00    +0.000 C 
ATOM     20  C   UNL     1      -7.874  16.232  23.202  0.00  0.00    +0.000 C 
ATOM     21  O   UNL     1      -7.771  17.168  22.117  0.00  0.00    +0.000 OA
ATOM     22  C   UNL     1      -7.057  16.586  21.019  0.00  0.00    +0.000 C 
ATOM     23  C   UNL     1      -5.634  16.188  21.425  0.00  0.00    +0.000 C 
ENDBRANCH   1  17
BRANCH   3  24
ATOM     24  C   UNL     1      -0.837  13.450  20.281  0.00  0.00    +0.000 C 
BRANCH  24  25
ATOM     25  C   UNL     1       0.075  12.985  21.413  0.00  0.00    +0.000 C 
BRANCH  25  26
ATOM     26  C   UNL     1       0.033  11.483  21.568  0.00  0.00    +0.000 A 
ATOM     27  C   UNL     1      -0.611  10.901  22.656  0.00  0.00    +0.000 A 
ATOM     28  C   UNL     1      -0.562   9.517  22.810  0.00  0.00    +0.000 A 
ATOM     29  C   UNL     1       0.125   8.751  21.880  0.00  0.00    +0.000 A 
ATOM     30  C   UNL     1       0.732   9.405  20.821  0.00  0.00    +0.000 A 
ATOM     31  N   UNL     1       0.705  10.747  20.647  0.00  0.00    +0.000 NA
ENDBRANCH  25  26
ENDBRANCH  24  25
ENDBRANCH   3  24
TORSDOF 4
ENDMDL
MODEL 7
REMARK VINA RESULT:      -7.3      2.818      4.812
REMARK  Name = 
REMARK  4 active torsions:
REMARK  status: ('A' for Active; 'I' for Inactive)
REMARK    1  A    between atoms: C_2  and  C_3
REMARK    2  A    between atoms: N_5  and  C_6
REMARK    3  A    between atoms: C_6  and  C_7
REMARK    4  A    between atoms: C_7  and  C_8
REMARK                            x       y       z     vdW  Elec       q    Type
REMARK                         _______ _______ _______ _____ _____    ______ ____
ROOT
ATOM      1  C   UNL     1       2.091   7.545  19.722  0.00  0.00    +0.000 A 
ATOM      2  N   UNL     1       2.624   7.880  18.535  0.00  0.00    +0.000 NA
ATOM      3  N   UNL     1       3.054   6.725  17.981  0.00  0.00    +0.000 N 
ATOM      4  C   UNL     1       2.853   5.631  18.798  0.00  0.00    +0.000 A 
ATOM      5  C   UNL     1       2.218   6.146  19.920  0.00  0.00    +0.000 A 
ATOM      6  C   UNL     1       1.770   5.331  21.078  0.00  0.00    +0.000 C 
ATOM      7  S   UNL     1       1.213   3.725  20.517  0.00  0.00    +0.000 S 
ATOM      8  O   UNL     1      -0.026   3.876  19.777  0.00  0.00    +0.000 OA
ATOM      9  O   UNL     1       1.300   2.807  21.639  0.00  0.00    +0.000 OA
ATOM     10  C   UNL     1       2.450   3.231  19.335  0.00  0.00    +0.000 A 
ATOM     11  C   UNL     1       2.714   1.862  19.210  0.00  0.00    +0.000 A 
ATOM     12  C   UNL     1       3.681   1.433  18.307  0.00  0.00    +0.000 A 
ATOM     13  C   UNL     1       4.391   2.370  17.565  0.00  0.00    +0.000 A 
ATOM     14  C   UNL     1       4.150   3.740  17.728  0.00  0.00    +0.000 A 
ATOM     15  C   UNL     1       3.155   4.204  18.594  0.00  0.00    +0.000 A 
ENDROOT
BRANCH   1  17
ATOM     16  O   UNL     1       1.582   8.243  21.901  0.00  0.00    +0.000 OA
ATOM     17  C   UNL     1       1.530   8.506  20.700  0.00  0.00    +0.000 C 
ATOM     18  N   UNL     1       0.909   9.676  20.255  0.00  0.00    +0.000 N 
ATOM     19  C   UNL     1       0.472  10.682  21.228  0.00  0.00    +0.000 C 
ATOM     20  C   UNL     1      -0.980  11.102  20.973  0.00  0.00    +0.000 C 
ATOM     21  O   UNL     1      -1.166  11.528  19.614  0.00  0.00    +0.000 OA
ATOM     22  C   UNL     1      -0.836  10.467  18.707  0.00  0.00    +0.000 C 
ATOM     23  C   UNL     1       0.626  10.034  18.862  0.00  0.00    +0.000 C 
ENDBRANCH   1  17
BRANCH   3  24
ATOM     24  C   UNL     1       3.732   6.831  16.695  0.00  0.00    +0.000 C 
BRANCH  24  25
ATOM     25  C   UNL     1       5.128   7.446  16.743  0.00  0.00    +0.000 C 
BRANCH  25  26
ATOM     26  C   UNL     1       6.172   6.411  17.087  0.00  0.00    +0.000 A 
ATOM     27  C   UNL     1       6.617   5.507  16.126  0.00  0.00    +0.000 A 
ATOM     28  C   UNL     1       7.521   4.514  16.498  0.00  0.00    +0.000 A 
ATOM     29  C   UNL     1       7.958   4.448  17.813  0.00  0.00    +0.000 A 
ATOM     30  C   UNL     1       7.475   5.390  18.707  0.00  0.00    +0.000 A 
ATOM     31  N   UNL     1       6.594   6.361  18.376  0.00  0.00    +0.000 NA
ENDBRANCH  25  26
ENDBRANCH  24  25
ENDBRANCH   3  24
TORSDOF 4
ENDMDL
MODEL 8
REMARK VINA RESULT:      -7.2      8.157     11.411
REMARK  Name = 
REMARK  4 active torsions:
REMARK  status: ('A' for Active; 'I' for Inactive)
REMARK    1  A    between atoms: C_2  and  C_3
REMARK    2  A    between atoms: N_5  and  C_6
REMARK    3  A    between atoms: C_6  and  C_7
REMARK    4  A    between atoms: C_7  and  C_8
REMARK                            x       y       z     vdW  Elec       q    Type
REMARK                         _______ _______ _______ _____ _____    ______ ____
ROOT
ATOM      1  C   UNL     1      -0.838  12.432  19.786  0.00  0.00    +0.000 A 
ATOM      2  N   UNL     1      -1.193  12.916  20.988  0.00  0.00    +0.000 NA
ATOM      3  N   UNL     1      -2.544  12.960  20.987  0.00  0.00    +0.000 N 
ATOM      4  C   UNL     1      -3.093  12.550  19.789  0.00  0.00    +0.000 A 
ATOM      5  C   UNL     1      -2.001  12.193  19.009  0.00  0.00    +0.000 A 
ATOM      6  C   UNL     1      -2.097  11.656  17.628  0.00  0.00    +0.000 C 
ATOM      7  S   UNL     1      -3.555  10.632  17.469  0.00  0.00    +0.000 S 
ATOM      8  O   UNL     1      -3.375   9.413  18.237  0.00  0.00    +0.000 OA
ATOM      9  O   UNL     1      -3.909  10.576  16.061  0.00  0.00    +0.000 OA
ATOM     10  C   UNL     1      -4.828  11.565  18.294  0.00  0.00    +0.000 A 
ATOM     11  C   UNL     1      -6.138  11.434  17.819  0.00  0.00    +0.000 A 
ATOM     12  C   UNL     1      -7.160  12.154  18.427  0.00  0.00    +0.000 A 
ATOM     13  C   UNL     1      -6.862  13.015  19.478  0.00  0.00    +0.000 A 
ATOM     14  C   UNL     1      -5.542  13.173  19.918  0.00  0.00    +0.000 A 
ATOM     15  C   UNL     1      -4.496  12.431  19.359  0.00  0.00    +0.000 A 
ENDROOT
BRANCH   1  17
ATOM     16  O   UNL     1       1.105  11.160  19.474  0.00  0.00    +0.000 OA
ATOM     17  C   UNL     1       0.558  12.252  19.325  0.00  0.00    +0.000 C 
ATOM     18  N   UNL     1       1.256  13.326  18.769  0.00  0.00    +0.000 N 
ATOM     19  C   UNL     1       2.589  13.110  18.198  0.00  0.00    +0.000 C 
ATOM     20  C   UNL     1       3.593  14.136  18.734  0.00  0.00    +0.000 C 
ATOM     21  O   UNL     1       3.118  15.478  18.539  0.00  0.00    +0.000 OA
ATOM     22  C   UNL     1       1.869  15.670  19.216  0.00  0.00    +0.000 C 
ATOM     23  C   UNL     1       0.793  14.715  18.688  0.00  0.00    +0.000 C 
ENDBRANCH   1  17
BRANCH   3  24
ATOM     24  C   UNL     1      -3.180  13.511  22.177  0.00  0.00    +0.000 C 
BRANCH  24  25
ATOM     25  C   UNL     1      -3.975  12.512  23.013  0.00  0.00    +0.000 C 
BRANCH  25  26
ATOM     26  C   UNL     1      -5.356  13.036  23.327  0.00  0.00    +0.000 A 
ATOM     27  C   UNL     1      -5.573  14.399  23.505  0.00  0.00    +0.000 A 
ATOM     28  C   UNL     1      -6.843  14.839  23.872  0.00  0.00    +0.000 A 
ATOM     29  C   UNL     1      -7.861  13.914  24.051  0.00  0.00    +0.000 A 
ATOM     30  C   UNL     1      -7.566  12.576  23.846  0.00  0.00    +0.000 A 
ATOM     31  N   UNL     1      -6.343  12.118  23.493  0.00  0.00    +0.000 NA
ENDBRANCH  25  26
ENDBRANCH  24  25
ENDBRANCH   3  24
TORSDOF 4
ENDMDL
MODEL 9
REMARK VINA RESULT:      -7.2      7.354      9.914
REMARK  Name = 
REMARK  4 active torsions:
REMARK  status: ('A' for Active; 'I' for Inactive)
REMARK    1  A    between atoms: C_2  and  C_3
REMARK    2  A    between atoms: N_5  and  C_6
REMARK    3  A    between atoms: C_6  and  C_7
REMARK    4  A    between atoms: C_7  and  C_8
REMARK                            x       y       z     vdW  Elec       q    Type
REMARK                         _______ _______ _______ _____ _____    ______ ____
ROOT
ATOM      1  C   UNL     1       1.165  13.628  20.574  0.00  0.00    +0.000 A 
ATOM      2  N   UNL     1       0.068  14.157  21.141  0.00  0.00    +0.000 NA
ATOM      3  N   UNL     1      -0.982  13.497  20.605  0.00  0.00    +0.000 N 
ATOM      4  C   UNL     1      -0.605  12.564  19.661  0.00  0.00    +0.000 A 
ATOM      5  C   UNL     1       0.783  12.629  19.641  0.00  0.00    +0.000 A 
ATOM      6  C   UNL     1       1.651  11.778  18.789  0.00  0.00    +0.000 C 
ATOM      7  S   UNL     1       0.930  10.149  18.615  0.00  0.00    +0.000 S 
ATOM      8  O   UNL     1       1.005   9.451  19.885  0.00  0.00    +0.000 OA
ATOM      9  O   UNL     1       1.469   9.551  17.407  0.00  0.00    +0.000 OA
ATOM     10  C   UNL     1      -0.796  10.473  18.318  0.00  0.00    +0.000 A 
ATOM     11  C   UNL     1      -1.495   9.565  17.513  0.00  0.00    +0.000 A 
ATOM     12  C   UNL     1      -2.841   9.787  17.245  0.00  0.00    +0.000 A 
ATOM     13  C   UNL     1      -3.465  10.919  17.756  0.00  0.00    +0.000 A 
ATOM     14  C   UNL     1      -2.747  11.844  18.525  0.00  0.00    +0.000 A 
ATOM     15  C   UNL     1      -1.404  11.630  18.850  0.00  0.00    +0.000 A 
ENDROOT
BRANCH   1  17
ATOM     16  O   UNL     1       3.093  13.785  21.898  0.00  0.00    +0.000 OA
ATOM     17  C   UNL     1       2.553  14.079  20.832  0.00  0.00    +0.000 C 
ATOM     18  N   UNL     1       3.220  14.867  19.891  0.00  0.00    +0.000 N 
ATOM     19  C   UNL     1       4.633  15.202  20.093  0.00  0.00    +0.000 C 
ATOM     20  C   UNL     1       4.874  16.706  19.924  0.00  0.00    +0.000 C 
ATOM     21  O   UNL     1       4.369  17.174  18.663  0.00  0.00    +0.000 OA
ATOM     22  C   UNL     1       2.960  16.928  18.566  0.00  0.00    +0.000 C 
ATOM     23  C   UNL     1       2.645  15.431  18.666  0.00  0.00    +0.000 C 
ENDBRANCH   1  17
BRANCH   3  24
ATOM     24  C   UNL     1      -2.309  13.932  21.023  0.00  0.00    +0.000 C 
BRANCH  24  25
ATOM     25  C   UNL     1      -2.736  13.476  22.415  0.00  0.00    +0.000 C 
BRANCH  25  26
ATOM     26  C   UNL     1      -4.199  13.103  22.445  0.00  0.00    +0.000 A 
ATOM     27  C   UNL     1      -4.863  12.745  21.275  0.00  0.00    +0.000 A 
ATOM     28  C   UNL     1      -6.231  12.485  21.326  0.00  0.00    +0.000 A 
ATOM     29  C   UNL     1      -6.900  12.587  22.537  0.00  0.00    +0.000 A 
ATOM     30  C   UNL     1      -6.166  12.940  23.657  0.00  0.00    +0.000 A 
ATOM     31  N   UNL     1      -4.839  13.203  23.638  0.00  0.00    +0.000 NA
ENDBRANCH  25  26
ENDBRANCH  24  25
ENDBRANCH   3  24
TORSDOF 4
ENDMDL
