MODEL 1
REMARK VINA RESULT:      -6.5      0.000      0.000
REMARK  Name = 
REMARK  9 active torsions:
REMARK  status: ('A' for Active; 'I' for Inactive)
REMARK    1  A    between atoms: C_2  and  C_3
REMARK    2  A    between atoms: C_3  and  N_4
REMARK    3  A    between atoms: C_8  and  C_9
REMARK    4  A    between atoms: C_10  and  O_11
REMARK    5  A    between atoms: O_11  and  C_12
REMARK    6  A    between atoms: C_14  and  O_15
REMARK    7  A    between atoms: O_15  and  C_16
REMARK    8  A    between atoms: CA_19  and  C_20
REMARK    9  A    between atoms: C_20  and  OXT_22
REMARK                            x       y       z     vdW  Elec       q    Type
REMARK                         _______ _______ _______ _____ _____    ______ ____
ROOT
ATOM      1  C   UNL     1       3.612   5.184  18.024  0.00  0.00    +0.000 A 
ATOM      2  C   UNL     1       3.125   4.065  17.313  0.00  0.00    +0.000 A 
ATOM      3  C   UNL     1       3.911   3.454  16.331  0.00  0.00    +0.000 A 
ATOM      4  C   UNL     1       5.199   3.920  16.031  0.00  0.00    +0.000 A 
ATOM      5  C   UNL     1       5.687   5.040  16.733  0.00  0.00    +0.000 A 
ATOM      6  C   UNL     1       6.919   5.747  16.678  0.00  0.00    +0.000 A 
ATOM      7  CA  UNL     1       6.883   6.769  17.607  0.00  0.00    +0.000 A 
ATOM      8  N   UNL     1       5.628   6.728  18.182  0.00  0.00    +0.000 N 
ATOM      9  C   UNL     1       4.895   5.662  17.702  0.00  0.00    +0.000 A 
ATOM     10  H   UNL     1       5.308   7.386  18.881  0.00  0.00    +0.000 HD
ENDROOT
BRANCH   1  15
ATOM     11  N   UNL     1       1.497   9.109  19.904  0.00  0.00    +0.000 N 
ATOM     12  C   UNL     1       1.755   7.778  20.198  0.00  0.00    +0.000 C 
ATOM     13  O   UNL     1       1.476   7.197  21.237  0.00  0.00    +0.000 OA
ATOM     14  C   UNL     1       2.434   7.121  19.047  0.00  0.00    +0.000 C 
ATOM     15  C   UNL     1       2.841   5.843  19.084  0.00  0.00    +0.000 C 
ATOM     16  S   UNL     1       2.615   8.235  17.752  0.00  0.00    +0.000 S 
ATOM     17  C   UNL     1       1.874   9.550  18.653  0.00  0.00    +0.000 C 
ATOM     18  S   UNL     1       1.687  11.072  17.987  0.00  0.00    +0.000 S 
BRANCH  11  19
ATOM     19  C   UNL     1       0.847   9.939  20.913  0.00  0.00    +0.000 C 
BRANCH  19  21
ATOM     20  C   UNL     1      -1.188  11.358  20.475  0.00  0.00    +0.000 C 
ATOM     21  C   UNL     1      -0.589  10.161  20.528  0.00  0.00    +0.000 C 
ENDBRANCH  19  21
ENDBRANCH  11  19
ENDBRANCH   1  15
BRANCH   2  22
ATOM     22  O   UNL     1       1.860   3.642  17.656  0.00  0.00    +0.000 OA
ATOM     23  C   UNL     1       1.748   2.386  18.315  0.00  0.00    +0.000 C 
ENDBRANCH   2  22
BRANCH   4  24
ATOM     24  O   UNL     1       6.041   3.371  15.099  0.00  0.00    +0.000 OA
ATOM     25  C   UNL     1       5.981   3.887  13.777  0.00  0.00    +0.000 C 
ENDBRANCH   4  24
BRANCH   7  26
ATOM     26  C   UNL     1       7.869   7.759  17.958  0.00  0.00    +0.000 C 
ATOM     27  O   UNL     1       8.020   8.827  17.388  0.00  0.00    +0.000 OA
BRANCH  26  28
ATOM     28  OXT UNL     1       8.600   7.393  19.038  0.00  0.00    +0.000 OA
ATOM     29  HXT UNL     1       8.153   6.731  19.594  0.00  0.00    +0.000 HD
ENDBRANCH  26  28
ENDBRANCH   7  26
TORSDOF 7
ENDMDL
MODEL 2
REMARK VINA RESULT:      -6.2      5.716      9.675
REMARK  Name = 
REMARK  9 active torsions:
REMARK  status: ('A' for Active; 'I' for Inactive)
REMARK    1  A    between atoms: C_2  and  C_3
REMARK    2  A    between atoms: C_3  and  N_4
REMARK    3  A    between atoms: C_8  and  C_9
REMARK    4  A    between atoms: C_10  and  O_11
REMARK    5  A    between atoms: O_11  and  C_12
REMARK    6  A    between atoms: C_14  and  O_15
REMARK    7  A    between atoms: O_15  and  C_16
REMARK    8  A    between atoms: CA_19  and  C_20
REMARK    9  A    between atoms: C_20  and  OXT_22
REMARK                            x       y       z     vdW  Elec       q    Type
REMARK                         _______ _______ _______ _____ _____    ______ ____
ROOT
ATOM      1  C   UNL     1      -0.783  12.657  19.935  0.00  0.00    +0.000 A 
ATOM      2  C   UNL     1       0.518  12.177  20.200  0.00  0.00    +0.000 A 
ATOM      3  C   UNL     1       1.025  11.081  19.494  0.00  0.00    +0.000 A 
ATOM      4  C   UNL     1       0.271  10.437  18.503  0.00  0.00    +0.000 A 
ATOM      5  C   UNL     1      -1.030  10.909  18.239  0.00  0.00    +0.000 A 
ATOM      6  C   UNL     1      -2.034  10.498  17.320  0.00  0.00    +0.000 A 
ATOM      7  CA  UNL     1      -3.131  11.325  17.465  0.00  0.00    +0.000 A 
ATOM      8  N   UNL     1      -2.829  12.193  18.496  0.00  0.00    +0.000 N 
ATOM      9  C   UNL     1      -1.544  11.992  18.956  0.00  0.00    +0.000 A 
ATOM     10  H   UNL     1      -3.469  12.897  18.844  0.00  0.00    +0.000 HD
ENDROOT
BRANCH   1  15
ATOM     11  N   UNL     1      -3.634  14.585  23.337  0.00  0.00    +0.000 N 
ATOM     12  C   UNL     1      -2.808  14.956  22.285  0.00  0.00    +0.000 C 
ATOM     13  O   UNL     1      -2.612  16.093  21.882  0.00  0.00    +0.000 OA
ATOM     14  C   UNL     1      -2.163  13.751  21.691  0.00  0.00    +0.000 C 
ATOM     15  C   UNL     1      -1.352  13.820  20.625  0.00  0.00    +0.000 C 
ATOM     16  S   UNL     1      -2.640  12.341  22.549  0.00  0.00    +0.000 S 
ATOM     17  C   UNL     1      -3.684  13.241  23.640  0.00  0.00    +0.000 C 
ATOM     18  S   UNL     1      -4.553  12.479  24.848  0.00  0.00    +0.000 S 
BRANCH  11  19
ATOM     19  C   UNL     1      -4.376  15.622  24.046  0.00  0.00    +0.000 C 
BRANCH  19  21
ATOM     20  C   UNL     1      -6.416  16.902  23.307  0.00  0.00    +0.000 C 
ATOM     21  C   UNL     1      -5.751  15.748  23.451  0.00  0.00    +0.000 C 
ENDBRANCH  19  21
ENDBRANCH  11  19
ENDBRANCH   1  15
BRANCH   2  22
ATOM     22  O   UNL     1       1.219  12.852  21.174  0.00  0.00    +0.000 OA
ATOM     23  C   UNL     1       2.370  13.581  20.763  0.00  0.00    +0.000 C 
ENDBRANCH   2  22
BRANCH   4  24
ATOM     24  O   UNL     1       0.696   9.372  17.752  0.00  0.00    +0.000 OA
ATOM     25  C   UNL     1       1.993   8.858  18.021  0.00  0.00    +0.000 C 
ENDBRANCH   4  24
BRANCH   7  26
ATOM     26  C   UNL     1      -4.394  11.345  16.774  0.00  0.00    +0.000 C 
ATOM     27  O   UNL     1      -5.396  11.920  17.167  0.00  0.00    +0.000 OA
BRANCH  26  28
ATOM     28  OXT UNL     1      -4.344  10.680  15.595  0.00  0.00    +0.000 OA
ATOM     29  HXT UNL     1      -3.686  11.048  14.978  0.00  0.00    +0.000 HD
ENDBRANCH  26  28
ENDBRANCH   7  26
TORSDOF 7
ENDMDL
MODEL 3
REMARK VINA RESULT:      -6.1      3.538      8.683
REMARK  Name = 
REMARK  9 active torsions:
REMARK  status: ('A' for Active; 'I' for Inactive)
REMARK    1  A    between atoms: C_2  and  C_3
REMARK    2  A    between atoms: C_3  and  N_4
REMARK    3  A    between atoms: C_8  and  C_9
REMARK    4  A    between atoms: C_10  and  O_11
REMARK    5  A    between atoms: O_11  and  C_12
REMARK    6  A    between atoms: C_14  and  O_15
REMARK    7  A    between atoms: O_15  and  C_16
REMARK    8  A    between atoms: CA_19  and  C_20
REMARK    9  A    between atoms: C_20  and  OXT_22
REMARK                            x       y       z     vdW  Elec       q    Type
REMARK                         _______ _______ _______ _____ _____    ______ ____
ROOT
ATOM      1  C   UNL     1       0.575  10.005  19.440  0.00  0.00    +0.000 A 
ATOM      2  C   UNL     1       0.658  10.433  20.784  0.00  0.00    +0.000 A 
ATOM      3  C   UNL     1      -0.363  11.210  21.342  0.00  0.00    +0.000 A 
ATOM      4  C   UNL     1      -1.493  11.576  20.598  0.00  0.00    +0.000 A 
ATOM      5  C   UNL     1      -1.577  11.156  19.256  0.00  0.00    +0.000 A 
ATOM      6  C   UNL     1      -2.562  11.346  18.249  0.00  0.00    +0.000 A 
ATOM      7  CA  UNL     1      -2.150  10.699  17.100  0.00  0.00    +0.000 A 
ATOM      8  N   UNL     1      -0.905  10.170  17.377  0.00  0.00    +0.000 N 
ATOM      9  C   UNL     1      -0.550  10.395  18.692  0.00  0.00    +0.000 A 
ATOM     10  H   UNL     1      -0.345   9.664  16.702  0.00  0.00    +0.000 HD
ENDROOT
BRANCH   1  15
ATOM     11  N   UNL     1       3.100   5.883  19.199  0.00  0.00    +0.000 N 
ATOM     12  C   UNL     1       3.011   7.130  18.596  0.00  0.00    +0.000 C 
ATOM     13  O   UNL     1       3.733   7.561  17.709  0.00  0.00    +0.000 OA
ATOM     14  C   UNL     1       1.881   7.904  19.183  0.00  0.00    +0.000 C 
ATOM     15  C   UNL     1       1.602   9.163  18.815  0.00  0.00    +0.000 C 
ATOM     16  S   UNL     1       1.068   6.959  20.365  0.00  0.00    +0.000 S 
ATOM     17  C   UNL     1       2.159   5.595  20.164  0.00  0.00    +0.000 C 
ATOM     18  S   UNL     1       1.979   4.191  21.053  0.00  0.00    +0.000 S 
BRANCH  11  19
ATOM     19  C   UNL     1       4.159   4.973  18.775  0.00  0.00    +0.000 C 
BRANCH  19  21
ATOM     20  C   UNL     1       2.868   3.323  17.376  0.00  0.00    +0.000 C 
ATOM     21  C   UNL     1       3.762   4.314  17.482  0.00  0.00    +0.000 C 
ENDBRANCH  19  21
ENDBRANCH  11  19
ENDBRANCH   1  15
BRANCH   2  22
ATOM     22  O   UNL     1       1.782  10.035  21.472  0.00  0.00    +0.000 OA
ATOM     23  C   UNL     1       1.589   9.438  22.748  0.00  0.00    +0.000 C 
ENDBRANCH   2  22
BRANCH   4  24
ATOM     24  O   UNL     1      -2.545  12.318  21.071  0.00  0.00    +0.000 OA
ATOM     25  C   UNL     1      -2.289  13.672  21.412  0.00  0.00    +0.000 C 
ENDBRANCH   4  24
BRANCH   7  26
ATOM     26  C   UNL     1      -2.780  10.572  15.811  0.00  0.00    +0.000 C 
ATOM     27  O   UNL     1      -2.834   9.544  15.158  0.00  0.00    +0.000 OA
BRANCH  26  28
ATOM     28  OXT UNL     1      -3.360  11.729  15.408  0.00  0.00    +0.000 OA
ATOM     29  HXT UNL     1      -2.724  12.463  15.322  0.00  0.00    +0.000 HD
ENDBRANCH  26  28
ENDBRANCH   7  26
TORSDOF 7
ENDMDL
MODEL 4
REMARK VINA RESULT:      -6.1      2.306      2.876
REMARK  Name = 
REMARK  9 active torsions:
REMARK  status: ('A' for Active; 'I' for Inactive)
REMARK    1  A    between atoms: C_2  and  C_3
REMARK    2  A    between atoms: C_3  and  N_4
REMARK    3  A    between atoms: C_8  and  C_9
REMARK    4  A    between atoms: C_10  and  O_11
REMARK    5  A    between atoms: O_11  and  C_12
REMARK    6  A    between atoms: C_14  and  O_15
REMARK    7  A    between atoms: O_15  and  C_16
REMARK    8  A    between atoms: CA_19  and  C_20
REMARK    9  A    between atoms: C_20  and  OXT_22
REMARK                            x       y       z     vdW  Elec       q    Type
REMARK                         _______ _______ _______ _____ _____    ______ ____
ROOT
ATOM      1  C   UNL     1       3.042   5.836  18.742  0.00  0.00    +0.000 A 
ATOM      2  C   UNL     1       2.398   4.683  19.241  0.00  0.00    +0.000 A 
ATOM      3  C   UNL     1       3.142   3.546  19.575  0.00  0.00    +0.000 A 
ATOM      4  C   UNL     1       4.537   3.518  19.438  0.00  0.00    +0.000 A 
ATOM      5  C   UNL     1       5.183   4.665  18.935  0.00  0.00    +0.000 A 
ATOM      6  C   UNL     1       6.549   4.965  18.681  0.00  0.00    +0.000 A 
ATOM      7  CA  UNL     1       6.636   6.257  18.201  0.00  0.00    +0.000 A 
ATOM      8  N   UNL     1       5.340   6.724  18.105  0.00  0.00    +0.000 N 
ATOM      9  C   UNL     1       4.439   5.794  18.584  0.00  0.00    +0.000 A 
ATOM     10  H   UNL     1       5.096   7.640  17.749  0.00  0.00    +0.000 HD
ENDROOT
BRANCH   1  15
ATOM     11  N   UNL     1       0.356   9.651  20.026  0.00  0.00    +0.000 N 
ATOM     12  C   UNL     1       0.892   9.039  18.902  0.00  0.00    +0.000 C 
ATOM     13  O   UNL     1       0.734   9.387  17.741  0.00  0.00    +0.000 OA
ATOM     14  C   UNL     1       1.718   7.866  19.302  0.00  0.00    +0.000 C 
ATOM     15  C   UNL     1       2.314   7.064  18.406  0.00  0.00    +0.000 C 
ATOM     16  S   UNL     1       1.746   7.718  21.013  0.00  0.00    +0.000 S 
ATOM     17  C   UNL     1       0.690   9.104  21.246  0.00  0.00    +0.000 C 
ATOM     18  S   UNL     1       0.235   9.611  22.773  0.00  0.00    +0.000 S 
BRANCH  11  19
ATOM     19  C   UNL     1      -0.504  10.817  19.848  0.00  0.00    +0.000 C 
BRANCH  19  21
ATOM     20  C   UNL     1       0.385  12.946  18.837  0.00  0.00    +0.000 C 
ATOM     21  C   UNL     1       0.340  12.062  19.842  0.00  0.00    +0.000 C 
ENDBRANCH  19  21
ENDBRANCH  11  19
ENDBRANCH   1  15
BRANCH   2  22
ATOM     22  O   UNL     1       1.030   4.768  19.368  0.00  0.00    +0.000 OA
ATOM     23  C   UNL     1       0.351   3.635  19.899  0.00  0.00    +0.000 C 
ENDBRANCH   2  22
BRANCH   4  24
ATOM     24  O   UNL     1       5.342   2.457  19.758  0.00  0.00    +0.000 OA
ATOM     25  C   UNL     1       4.875   1.557  20.752  0.00  0.00    +0.000 C 
ENDBRANCH   4  24
BRANCH   7  26
ATOM     26  C   UNL     1       7.778   7.042  17.807  0.00  0.00    +0.000 C 
ATOM     27  O   UNL     1       8.014   7.409  16.668  0.00  0.00    +0.000 OA
BRANCH  26  28
ATOM     28  OXT UNL     1       8.559   7.376  18.863  0.00  0.00    +0.000 OA
ATOM     29  HXT UNL     1       9.504   7.434  18.633  0.00  0.00    +0.000 HD
ENDBRANCH  26  28
ENDBRANCH   7  26
TORSDOF 7
ENDMDL
MODEL 5
REMARK VINA RESULT:      -6.1      5.599      9.552
REMARK  Name = 
REMARK  9 active torsions:
REMARK  status: ('A' for Active; 'I' for Inactive)
REMARK    1  A    between atoms: C_2  and  C_3
REMARK    2  A    between atoms: C_3  and  N_4
REMARK    3  A    between atoms: C_8  and  C_9
REMARK    4  A    between atoms: C_10  and  O_11
REMARK    5  A    between atoms: O_11  and  C_12
REMARK    6  A    between atoms: C_14  and  O_15
REMARK    7  A    between atoms: O_15  and  C_16
REMARK    8  A    between atoms: CA_19  and  C_20
REMARK    9  A    between atoms: C_20  and  OXT_22
REMARK                            x       y       z     vdW  Elec       q    Type
REMARK                         _______ _______ _______ _____ _____    ______ ____
ROOT
ATOM      1  C   UNL     1      -0.814  12.592  19.614  0.00  0.00    +0.000 A 
ATOM      2  C   UNL     1       0.374  12.116  20.211  0.00  0.00    +0.000 A 
ATOM      3  C   UNL     1       0.942  10.909  19.790  0.00  0.00    +0.000 A 
ATOM      4  C   UNL     1       0.363  10.145  18.766  0.00  0.00    +0.000 A 
ATOM      5  C   UNL     1      -0.826  10.614  18.173  0.00  0.00    +0.000 A 
ATOM      6  C   UNL     1      -1.649  10.099  17.134  0.00  0.00    +0.000 A 
ATOM      7  CA  UNL     1      -2.698  10.975  16.927  0.00  0.00    +0.000 A 
ATOM      8  N   UNL     1      -2.555  11.980  17.863  0.00  0.00    +0.000 N 
ATOM      9  C   UNL     1      -1.404  11.810  18.604  0.00  0.00    +0.000 A 
ATOM     10  H   UNL     1      -3.205  12.750  17.965  0.00  0.00    +0.000 HD
ENDROOT
BRANCH   1  15
ATOM     11  N   UNL     1      -4.125  15.117  22.080  0.00  0.00    +0.000 N 
ATOM     12  C   UNL     1      -3.103  15.292  21.157  0.00  0.00    +0.000 C 
ATOM     13  O   UNL     1      -2.776  16.343  20.627  0.00  0.00    +0.000 OA
ATOM     14  C   UNL     1      -2.428  13.991  20.889  0.00  0.00    +0.000 C 
ATOM     15  C   UNL     1      -1.434  13.865  19.996  0.00  0.00    +0.000 C 
ATOM     16  S   UNL     1      -3.127  12.751  21.850  0.00  0.00    +0.000 S 
ATOM     17  C   UNL     1      -4.301  13.842  22.573  0.00  0.00    +0.000 C 
ATOM     18  S   UNL     1      -5.414  13.309  23.700  0.00  0.00    +0.000 S 
BRANCH  11  19
ATOM     19  C   UNL     1      -4.925  16.274  22.468  0.00  0.00    +0.000 C 
BRANCH  19  21
ATOM     20  C   UNL     1      -4.561  16.801  24.905  0.00  0.00    +0.000 C 
ATOM     21  C   UNL     1      -4.255  16.982  23.614  0.00  0.00    +0.000 C 
ENDBRANCH  19  21
ENDBRANCH  11  19
ENDBRANCH   1  15
BRANCH   2  22
ATOM     22  O   UNL     1       0.907  12.909  21.202  0.00  0.00    +0.000 OA
ATOM     23  C   UNL     1       2.110  13.608  20.902  0.00  0.00    +0.000 C 
ENDBRANCH   2  22
BRANCH   4  24
ATOM     24  O   UNL     1       0.861   8.964  18.282  0.00  0.00    +0.000 OA
ATOM     25  C   UNL     1       2.218   8.948  17.864  0.00  0.00    +0.000 C 
ENDBRANCH   4  24
BRANCH   7  26
ATOM     26  C   UNL     1      -3.793  10.930  15.993  0.00  0.00    +0.000 C 
ATOM     27  O   UNL     1      -3.712  10.540  14.840  0.00  0.00    +0.000 OA
BRANCH  26  28
ATOM     28  OXT UNL     1      -4.960  11.333  16.551  0.00  0.00    +0.000 OA
ATOM     29  HXT UNL     1      -4.969  11.240  17.521  0.00  0.00    +0.000 HD
ENDBRANCH  26  28
ENDBRANCH   7  26
TORSDOF 7
ENDMDL
MODEL 6
REMARK VINA RESULT:      -6.0      5.203      8.826
REMARK  Name = 
REMARK  9 active torsions:
REMARK  status: ('A' for Active; 'I' for Inactive)
REMARK    1  A    between atoms: C_2  and  C_3
REMARK    2  A    between atoms: C_3  and  N_4
REMARK    3  A    between atoms: C_8  and  C_9
REMARK    4  A    between atoms: C_10  and  O_11
REMARK    5  A    between atoms: O_11  and  C_12
REMARK    6  A    between atoms: C_14  and  O_15
REMARK    7  A    between atoms: O_15  and  C_16
REMARK    8  A    between atoms: CA_19  and  C_20
REMARK    9  A    between atoms: C_20  and  OXT_22
REMARK                            x       y       z     vdW  Elec       q    Type
REMARK                         _______ _______ _______ _____ _____    ______ ____
ROOT
ATOM      1  C   UNL     1      -0.946  11.084  20.714  0.00  0.00    +0.000 A 
ATOM      2  C   UNL     1       0.292  10.467  20.996  0.00  0.00    +0.000 A 
ATOM      3  C   UNL     1       0.987   9.784  19.992  0.00  0.00    +0.000 A 
ATOM      4  C   UNL     1       0.487   9.700  18.684  0.00  0.00    +0.000 A 
ATOM      5  C   UNL     1      -0.751  10.309  18.400  0.00  0.00    +0.000 A 
ATOM      6  C   UNL     1      -1.521  10.412  17.209  0.00  0.00    +0.000 A 
ATOM      7  CA  UNL     1      -2.662  11.141  17.482  0.00  0.00    +0.000 A 
ATOM      8  N   UNL     1      -2.623  11.432  18.832  0.00  0.00    +0.000 N 
ATOM      9  C   UNL     1      -1.454  10.976  19.406  0.00  0.00    +0.000 A 
ATOM     10  H   UNL     1      -3.354  11.935  19.321  0.00  0.00    +0.000 HD
ENDROOT
BRANCH   1  15
ATOM     11  N   UNL     1      -1.541  14.988  23.510  0.00  0.00    +0.000 N 
ATOM     12  C   UNL     1      -2.113  13.751  23.251  0.00  0.00    +0.000 C 
ATOM     13  O   UNL     1      -3.074  13.261  23.824  0.00  0.00    +0.000 OA
ATOM     14  C   UNL     1      -1.385  13.072  22.142  0.00  0.00    +0.000 C 
ATOM     15  C   UNL     1      -1.700  11.838  21.721  0.00  0.00    +0.000 C 
ATOM     16  S   UNL     1      -0.126  14.084  21.554  0.00  0.00    +0.000 S 
ATOM     17  C   UNL     1      -0.475  15.355  22.718  0.00  0.00    +0.000 C 
ATOM     18  S   UNL     1       0.411  16.772  22.757  0.00  0.00    +0.000 S 
BRANCH  11  19
ATOM     19  C   UNL     1      -2.100  15.810  24.579  0.00  0.00    +0.000 C 
BRANCH  19  21
ATOM     20  C   UNL     1      -0.916  16.542  26.679  0.00  0.00    +0.000 C 
ATOM     21  C   UNL     1      -1.324  15.576  25.846  0.00  0.00    +0.000 C 
ENDBRANCH  19  21
ENDBRANCH  11  19
ENDBRANCH   1  15
BRANCH   2  22
ATOM     22  O   UNL     1       0.742  10.590  22.291  0.00  0.00    +0.000 OA
ATOM     23  C   UNL     1       0.491   9.504  23.175  0.00  0.00    +0.000 C 
ENDBRANCH   2  22
BRANCH   4  24
ATOM     24  O   UNL     1       1.109   9.068  17.639  0.00  0.00    +0.000 OA
ATOM     25  C   UNL     1       2.305   8.357  17.922  0.00  0.00    +0.000 C 
ENDBRANCH   4  24
BRANCH   7  26
ATOM     26  C   UNL     1      -3.753  11.539  16.631  0.00  0.00    +0.000 C 
ATOM     27  O   UNL     1      -4.876  11.817  17.019  0.00  0.00    +0.000 OA
BRANCH  26  28
ATOM     28  OXT UNL     1      -3.386  11.617  15.329  0.00  0.00    +0.000 OA
ATOM     29  HXT UNL     1      -3.828  10.953  14.769  0.00  0.00    +0.000 HD
ENDBRANCH  26  28
ENDBRANCH   7  26
TORSDOF 7
ENDMDL
MODEL 7
REMARK VINA RESULT:      -6.0      6.041      9.665
REMARK  Name = 
REMARK  9 active torsions:
REMARK  status: ('A' for Active; 'I' for Inactive)
REMARK    1  A    between atoms: C_2  and  C_3
REMARK    2  A    between atoms: C_3  and  N_4
REMARK    3  A    between atoms: C_8  and  C_9
REMARK    4  A    between atoms: C_10  and  O_11
REMARK    5  A    between atoms: O_11  and  C_12
REMARK    6  A    between atoms: C_14  and  O_15
REMARK    7  A    between atoms: O_15  and  C_16
REMARK    8  A    between atoms: CA_19  and  C_20
REMARK    9  A    between atoms: C_20  and  OXT_22
REMARK                            x       y       z     vdW  Elec       q    Type
REMARK                         _______ _______ _______ _____ _____    ______ ____
ROOT
ATOM      1  C   UNL     1      -1.742  11.265  18.964  0.00  0.00    +0.000 A 
ATOM      2  C   UNL     1      -0.963  10.366  18.203  0.00  0.00    +0.000 A 
ATOM      3  C   UNL     1      -1.499   9.753  17.067  0.00  0.00    +0.000 A 
ATOM      4  C   UNL     1      -2.810  10.015  16.643  0.00  0.00    +0.000 A 
ATOM      5  C   UNL     1      -3.593  10.907  17.403  0.00  0.00    +0.000 A 
ATOM      6  C   UNL     1      -4.924  11.384  17.254  0.00  0.00    +0.000 A 
ATOM      7  CA  UNL     1      -5.193  12.269  18.280  0.00  0.00    +0.000 A 
ATOM      8  N   UNL     1      -4.068  12.290  19.080  0.00  0.00    +0.000 N 
ATOM      9  C   UNL     1      -3.064  11.507  18.548  0.00  0.00    +0.000 A 
ATOM     10  H   UNL     1      -3.992  12.834  19.931  0.00  0.00    +0.000 HD
ENDROOT
BRANCH   1  15
ATOM     11  N   UNL     1       0.895  14.783  20.987  0.00  0.00    +0.000 N 
ATOM     12  C   UNL     1       0.133  13.675  21.328  0.00  0.00    +0.000 C 
ATOM     13  O   UNL     1      -0.042  13.233  22.454  0.00  0.00    +0.000 OA
ATOM     14  C   UNL     1      -0.472  13.073  20.107  0.00  0.00    +0.000 C 
ATOM     15  C   UNL     1      -1.219  11.959  20.146  0.00  0.00    +0.000 C 
ATOM     16  S   UNL     1      -0.045  13.992  18.720  0.00  0.00    +0.000 S 
ATOM     17  C   UNL     1       0.930  15.121  19.651  0.00  0.00    +0.000 C 
ATOM     18  S   UNL     1       1.727  16.397  18.923  0.00  0.00    +0.000 S 
BRANCH  11  19
ATOM     19  C   UNL     1       1.590  15.509  22.044  0.00  0.00    +0.000 C 
BRANCH  19  21
ATOM     20  C   UNL     1       0.264  17.641  22.250  0.00  0.00    +0.000 C 
ATOM     21  C   UNL     1       0.627  16.443  22.724  0.00  0.00    +0.000 C 
ENDBRANCH  19  21
ENDBRANCH  11  19
ENDBRANCH   1  15
BRANCH   2  22
ATOM     22  O   UNL     1       0.320  10.153  18.656  0.00  0.00    +0.000 OA
ATOM     23  C   UNL     1       1.136   9.258  17.909  0.00  0.00    +0.000 C 
ENDBRANCH   2  22
BRANCH   4  24
ATOM     24  O   UNL     1      -3.406   9.474  15.535  0.00  0.00    +0.000 OA
ATOM     25  C   UNL     1      -3.043  10.006  14.269  0.00  0.00    +0.000 C 
ENDBRANCH   4  24
BRANCH   7  26
ATOM     26  C   UNL     1      -6.377  13.032  18.580  0.00  0.00    +0.000 C 
ATOM     27  O   UNL     1      -7.365  12.595  19.147  0.00  0.00    +0.000 OA
BRANCH  26  28
ATOM     28  OXT UNL     1      -6.263  14.327  18.199  0.00  0.00    +0.000 OA
ATOM     29  HXT UNL     1      -6.575  14.952  18.877  0.00  0.00    +0.000 HD
ENDBRANCH  26  28
ENDBRANCH   7  26
TORSDOF 7
ENDMDL
MODEL 8
REMARK VINA RESULT:      -5.9      7.301      9.893
REMARK  Name = 
REMARK  9 active torsions:
REMARK  status: ('A' for Active; 'I' for Inactive)
REMARK    1  A    between atoms: C_2  and  C_3
REMARK    2  A    between atoms: C_3  and  N_4
REMARK    3  A    between atoms: C_8  and  C_9
REMARK    4  A    between atoms: C_10  and  O_11
REMARK    5  A    between atoms: O_11  and  C_12
REMARK    6  A    between atoms: C_14  and  O_15
REMARK    7  A    between atoms: O_15  and  C_16
REMARK    8  A    between atoms: CA_19  and  C_20
REMARK    9  A    between atoms: C_20  and  OXT_22
REMARK                            x       y       z     vdW  Elec       q    Type
REMARK                         _______ _______ _______ _____ _____    ______ ____
ROOT
ATOM      1  C   UNL     1      -0.140  13.673  20.160  0.00  0.00    +0.000 A 
ATOM      2  C   UNL     1       0.947  12.980  20.736  0.00  0.00    +0.000 A 
ATOM      3  C   UNL     1       2.248  13.479  20.614  0.00  0.00    +0.000 A 
ATOM      4  C   UNL     1       2.512  14.676  19.933  0.00  0.00    +0.000 A 
ATOM      5  C   UNL     1       1.431  15.368  19.352  0.00  0.00    +0.000 A 
ATOM      6  C   UNL     1       1.351  16.581  18.615  0.00  0.00    +0.000 A 
ATOM      7  CA  UNL     1       0.028  16.815  18.293  0.00  0.00    +0.000 A 
ATOM      8  N   UNL     1      -0.686  15.735  18.772  0.00  0.00    +0.000 N 
ATOM      9  C   UNL     1       0.133  14.861  19.458  0.00  0.00    +0.000 A 
ATOM     10  H   UNL     1      -1.685  15.622  18.651  0.00  0.00    +0.000 HD
ENDROOT
BRANCH   1  15
ATOM     11  N   UNL     1      -4.048  11.476  18.339  0.00  0.00    +0.000 N 
ATOM     12  C   UNL     1      -3.624  12.158  19.470  0.00  0.00    +0.000 C 
ATOM     13  O   UNL     1      -4.305  12.444  20.443  0.00  0.00    +0.000 OA
ATOM     14  C   UNL     1      -2.180  12.504  19.348  0.00  0.00    +0.000 C 
ATOM     15  C   UNL     1      -1.526  13.210  20.284  0.00  0.00    +0.000 C 
ATOM     16  S   UNL     1      -1.548  11.898  17.870  0.00  0.00    +0.000 S 
ATOM     17  C   UNL     1      -3.097  11.234  17.370  0.00  0.00    +0.000 C 
ATOM     18  S   UNL     1      -3.277  10.428  15.917  0.00  0.00    +0.000 S 
BRANCH  11  19
ATOM     19  C   UNL     1      -5.444  11.058  18.253  0.00  0.00    +0.000 C 
BRANCH  19  21
ATOM     20  C   UNL     1      -7.322  12.729  18.087  0.00  0.00    +0.000 C 
ATOM     21  C   UNL     1      -6.243  12.130  17.565  0.00  0.00    +0.000 C 
ENDBRANCH  19  21
ENDBRANCH  11  19
ENDBRANCH   1  15
BRANCH   2  22
ATOM     22  O   UNL     1       0.631  11.817  21.402  0.00  0.00    +0.000 OA
ATOM     23  C   UNL     1       0.891  10.589  20.732  0.00  0.00    +0.000 C 
ENDBRANCH   2  22
BRANCH   4  24
ATOM     24  O   UNL     1       3.750  15.244  19.783  0.00  0.00    +0.000 OA
ATOM     25  C   UNL     1       4.514  14.859  18.649  0.00  0.00    +0.000 C 
ENDBRANCH   4  24
BRANCH   7  26
ATOM     26  C   UNL     1      -0.589  17.899  17.573  0.00  0.00    +0.000 C 
ATOM     27  O   UNL     1      -0.150  18.398  16.550  0.00  0.00    +0.000 OA
BRANCH  26  28
ATOM     28  OXT UNL     1      -1.757  18.290  18.137  0.00  0.00    +0.000 OA
ATOM     29  HXT UNL     1      -1.711  19.180  18.530  0.00  0.00    +0.000 HD
ENDBRANCH  26  28
ENDBRANCH   7  26
TORSDOF 7
ENDMDL
MODEL 9
REMARK VINA RESULT:      -5.9      6.184      9.769
REMARK  Name = 
REMARK  9 active torsions:
REMARK  status: ('A' for Active; 'I' for Inactive)
REMARK    1  A    between atoms: C_2  and  C_3
REMARK    2  A    between atoms: C_3  and  N_4
REMARK    3  A    between atoms: C_8  and  C_9
REMARK    4  A    between atoms: C_10  and  O_11
REMARK    5  A    between atoms: O_11  and  C_12
REMARK    6  A    between atoms: C_14  and  O_15
REMARK    7  A    between atoms: O_15  and  C_16
REMARK    8  A    between atoms: CA_19  and  C_20
REMARK    9  A    between atoms: C_20  and  OXT_22
REMARK                            x       y       z     vdW  Elec       q    Type
REMARK                         _______ _______ _______ _____ _____    ______ ____
ROOT
ATOM      1  C   UNL     1      -1.510  11.575  19.227  0.00  0.00    +0.000 A 
ATOM      2  C   UNL     1      -0.697  10.691  18.483  0.00  0.00    +0.000 A 
ATOM      3  C   UNL     1      -1.222  10.001  17.386  0.00  0.00    +0.000 A 
ATOM      4  C   UNL     1      -2.554  10.171  16.984  0.00  0.00    +0.000 A 
ATOM      5  C   UNL     1      -3.371  11.048  17.726  0.00  0.00    +0.000 A 
ATOM      6  C   UNL     1      -4.730  11.442  17.591  0.00  0.00    +0.000 A 
ATOM      7  CA  UNL     1      -5.028  12.351  18.587  0.00  0.00    +0.000 A 
ATOM      8  N   UNL     1      -3.888  12.470  19.358  0.00  0.00    +0.000 N 
ATOM      9  C   UNL     1      -2.853  11.723  18.834  0.00  0.00    +0.000 A 
ATOM     10  H   UNL     1      -3.826  13.051  20.184  0.00  0.00    +0.000 HD
ENDROOT
BRANCH   1  15
ATOM     11  N   UNL     1       0.888  15.365  21.044  0.00  0.00    +0.000 N 
ATOM     12  C   UNL     1       0.240  14.205  21.446  0.00  0.00    +0.000 C 
ATOM     13  O   UNL     1       0.152  13.782  22.589  0.00  0.00    +0.000 OA
ATOM     14  C   UNL     1      -0.359  13.518  20.268  0.00  0.00    +0.000 C 
ATOM     15  C   UNL     1      -1.002  12.345  20.367  0.00  0.00    +0.000 C 
ATOM     16  S   UNL     1      -0.070  14.430  18.840  0.00  0.00    +0.000 S 
ATOM     17  C   UNL     1       0.839  15.666  19.700  0.00  0.00    +0.000 C 
ATOM     18  S   UNL     1       1.490  16.985  18.905  0.00  0.00    +0.000 S 
BRANCH  11  19
ATOM     19  C   UNL     1       1.559  16.179  22.051  0.00  0.00    +0.000 C 
BRANCH  19  21
ATOM     20  C   UNL     1       4.059  16.312  21.768  0.00  0.00    +0.000 C 
ATOM     21  C   UNL     1       2.969  15.688  22.232  0.00  0.00    +0.000 C 
ENDBRANCH  19  21
ENDBRANCH  11  19
ENDBRANCH   1  15
BRANCH   2  22
ATOM     22  O   UNL     1       0.605  10.570  18.913  0.00  0.00    +0.000 OA
ATOM     23  C   UNL     1       1.205   9.283  18.825  0.00  0.00    +0.000 C 
ENDBRANCH   2  22
BRANCH   4  24
ATOM     24  O   UNL     1      -3.143   9.552  15.913  0.00  0.00    +0.000 OA
ATOM     25  C   UNL     1      -2.988  10.158  14.638  0.00  0.00    +0.000 C 
ENDBRANCH   4  24
BRANCH   7  26
ATOM     26  C   UNL     1      -6.247  13.057  18.885  0.00  0.00    +0.000 C 
ATOM     27  O   UNL     1      -7.282  12.535  19.263  0.00  0.00    +0.000 OA
BRANCH  26  28
ATOM     28  OXT UNL     1      -6.112  14.398  18.741  0.00  0.00    +0.000 OA
ATOM     29  HXT UNL     1      -5.192  14.700  18.847  0.00  0.00    +0.000 HD
ENDBRANCH  26  28
ENDBRANCH   7  26
TORSDOF 7
ENDMDL
