MODEL 1
REMARK VINA RESULT:      -8.8      0.000      0.000
REMARK  Name = 
REMARK  9 active torsions:
REMARK  status: ('A' for Active; 'I' for Inactive)
REMARK    1  A    between atoms: C_1  and  C_2
REMARK    2  A    between atoms: C_2  and  N_3
REMARK    3  A    between atoms: N_3  and  C_4
REMARK    4  A    between atoms: N_3  and  C_6
REMARK    5  A    between atoms: C_4  and  C_5
REMARK    6  A    between atoms: C_9  and  N_10
REMARK    7  A    between atoms: C_11  and  C_13
REMARK    8  A    between atoms: N_15  and  C_16
REMARK    9  A    between atoms: C_16  and  C_17
REMARK                            x       y       z     vdW  Elec       q    Type
REMARK                         _______ _______ _______ _____ _____    ______ ____
ROOT
ATOM      1  C   UNL     1       3.608   6.593  17.872  0.00  0.00    +0.000 A 
ATOM      2  C   UNL     1       3.292   5.299  18.050  0.00  0.00    +0.000 A 
ATOM      3  N   UNL     1       3.880   4.203  17.410  0.00  0.00    +0.000 N 
ATOM      4  C   UNL     1       4.887   4.471  16.464  0.00  0.00    +0.000 A 
ATOM      5  C   UNL     1       5.503   3.414  15.674  0.00  0.00    +0.000 A 
ATOM      6  C   UNL     1       6.397   3.676  14.707  0.00  0.00    +0.000 A 
ATOM      7  C   UNL     1       6.824   5.070  14.452  0.00  0.00    +0.000 A 
ATOM      8  O   UNL     1       7.631   5.335  13.568  0.00  0.00    +0.000 OA
ATOM      9  N   UNL     1       6.269   6.012  15.265  0.00  0.00    +0.000 N 
ATOM     10  C   UNL     1       5.319   5.730  16.219  0.00  0.00    +0.000 A 
ATOM     11  C   UNL     1       4.733   6.883  16.965  0.00  0.00    +0.000 A 
ATOM     12  O   UNL     1       5.161   8.025  16.802  0.00  0.00    +0.000 OA
ATOM     13  H   UNL     1       6.538   6.979  15.125  0.00  0.00    +0.000 HD
ENDROOT
BRANCH   1  15
ATOM     14  N   UNL     1       2.462   8.725  17.770  0.00  0.00    +0.000 N 
ATOM     15  C   UNL     1       2.757   7.612  18.533  0.00  0.00    +0.000 C 
ATOM     16  O   UNL     1       2.358   7.396  19.675  0.00  0.00    +0.000 OA
ATOM     17  H   UNL     1       2.888   8.790  16.844  0.00  0.00    +0.000 HD
BRANCH  14  21
ATOM     18  C   UNL     1      -0.259  11.802  18.910  0.00  0.00    +0.000 A 
ATOM     19  C   UNL     1       1.121  12.012  18.908  0.00  0.00    +0.000 A 
ATOM     20  C   UNL     1       2.021  11.018  18.539  0.00  0.00    +0.000 A 
ATOM     21  C   UNL     1       1.577   9.766  18.130  0.00  0.00    +0.000 A 
ATOM     22  C   UNL     1       0.203   9.531  18.099  0.00  0.00    +0.000 A 
ATOM     23  C   UNL     1      -0.700  10.538  18.492  0.00  0.00    +0.000 A 
BRANCH  18  24
ATOM     24  N   UNL     1      -1.125  12.806  19.313  0.00  0.00    +0.000 N 
BRANCH  24  26
ATOM     25  C   UNL     1      -0.404  15.139  18.786  0.00  0.00    +0.000 C 
ATOM     26  C   UNL     1      -0.590  14.064  19.847  0.00  0.00    +0.000 C 
ENDBRANCH  24  26
BRANCH  24  27
ATOM     27  C   UNL     1      -2.571  12.578  19.326  0.00  0.00    +0.000 C 
ATOM     28  C   UNL     1      -3.217  13.150  20.583  0.00  0.00    +0.000 C 
ENDBRANCH  24  27
ENDBRANCH  18  24
ENDBRANCH  14  21
ENDBRANCH   1  15
BRANCH   3  29
ATOM     29  C   UNL     1       3.328   2.851  17.681  0.00  0.00    +0.000 C 
BRANCH  29  30
ATOM     30  C   UNL     1       2.689   2.732  19.041  0.00  0.00    +0.000 A 
ATOM     31  C   UNL     1       3.464   2.527  20.184  0.00  0.00    +0.000 A 
ATOM     32  F   UNL     1       4.796   2.413  20.079  0.00  0.00    +0.000 F 
ATOM     33  C   UNL     1       2.897   2.460  21.458  0.00  0.00    +0.000 A 
ATOM     34  C   UNL     1       1.522   2.614  21.613  0.00  0.00    +0.000 A 
ATOM     35  C   UNL     1       0.727   2.829  20.490  0.00  0.00    +0.000 A 
ATOM     36  C   UNL     1       1.313   2.888  19.224  0.00  0.00    +0.000 A 
ATOM     37  F   UNL     1       0.515   3.141  18.180  0.00  0.00    +0.000 F 
ENDBRANCH  29  30
ENDBRANCH   3  29
TORSDOF 7
ENDMDL
MODEL 2
REMARK VINA RESULT:      -8.8      0.433      1.077
REMARK  Name = 
REMARK  9 active torsions:
REMARK  status: ('A' for Active; 'I' for Inactive)
REMARK    1  A    between atoms: C_1  and  C_2
REMARK    2  A    between atoms: C_2  and  N_3
REMARK    3  A    between atoms: N_3  and  C_4
REMARK    4  A    between atoms: N_3  and  C_6
REMARK    5  A    between atoms: C_4  and  C_5
REMARK    6  A    between atoms: C_9  and  N_10
REMARK    7  A    between atoms: C_11  and  C_13
REMARK    8  A    between atoms: N_15  and  C_16
REMARK    9  A    between atoms: C_16  and  C_17
REMARK                            x       y       z     vdW  Elec       q    Type
REMARK                         _______ _______ _______ _____ _____    ______ ____
ROOT
ATOM      1  C   UNL     1       3.581   6.703  17.897  0.00  0.00    +0.000 A 
ATOM      2  C   UNL     1       3.196   5.422  18.027  0.00  0.00    +0.000 A 
ATOM      3  N   UNL     1       3.767   4.313  17.394  0.00  0.00    +0.000 N 
ATOM      4  C   UNL     1       4.836   4.553  16.511  0.00  0.00    +0.000 A 
ATOM      5  C   UNL     1       5.446   3.485  15.730  0.00  0.00    +0.000 A 
ATOM      6  C   UNL     1       6.403   3.724  14.819  0.00  0.00    +0.000 A 
ATOM      7  C   UNL     1       6.907   5.102  14.621  0.00  0.00    +0.000 A 
ATOM      8  O   UNL     1       7.774   5.347  13.788  0.00  0.00    +0.000 OA
ATOM      9  N   UNL     1       6.352   6.051  15.424  0.00  0.00    +0.000 N 
ATOM     10  C   UNL     1       5.339   5.795  16.319  0.00  0.00    +0.000 A 
ATOM     11  C   UNL     1       4.766   6.959  17.059  0.00  0.00    +0.000 A 
ATOM     12  O   UNL     1       5.255   8.082  16.946  0.00  0.00    +0.000 OA
ATOM     13  H   UNL     1       6.673   7.007  15.322  0.00  0.00    +0.000 HD
ENDROOT
BRANCH   1  15
ATOM     14  N   UNL     1       2.527   8.881  17.776  0.00  0.00    +0.000 N 
ATOM     15  C   UNL     1       2.743   7.747  18.535  0.00  0.00    +0.000 C 
ATOM     16  O   UNL     1       2.285   7.532  19.654  0.00  0.00    +0.000 OA
ATOM     17  H   UNL     1       2.996   8.941  16.871  0.00  0.00    +0.000 HD
BRANCH  14  21
ATOM     18  C   UNL     1      -0.111  12.053  18.848  0.00  0.00    +0.000 A 
ATOM     19  C   UNL     1       1.271  12.239  18.799  0.00  0.00    +0.000 A 
ATOM     20  C   UNL     1       2.145  11.213  18.452  0.00  0.00    +0.000 A 
ATOM     21  C   UNL     1       1.670   9.952  18.112  0.00  0.00    +0.000 A 
ATOM     22  C   UNL     1       0.292   9.740  18.128  0.00  0.00    +0.000 A 
ATOM     23  C   UNL     1      -0.584  10.779  18.499  0.00  0.00    +0.000 A 
BRANCH  18  24
ATOM     24  N   UNL     1      -0.950  13.088  19.228  0.00  0.00    +0.000 N 
BRANCH  24  26
ATOM     25  C   UNL     1      -2.057  12.335  21.338  0.00  0.00    +0.000 C 
ATOM     26  C   UNL     1      -2.223  12.791  19.895  0.00  0.00    +0.000 C 
ENDBRANCH  24  26
BRANCH  24  27
ATOM     27  C   UNL     1      -0.637  14.470  18.863  0.00  0.00    +0.000 C 
ATOM     28  C   UNL     1      -0.983  15.439  19.988  0.00  0.00    +0.000 C 
ENDBRANCH  24  27
ENDBRANCH  18  24
ENDBRANCH  14  21
ENDBRANCH   1  15
BRANCH   3  29
ATOM     29  C   UNL     1       3.140   2.983  17.603  0.00  0.00    +0.000 C 
BRANCH  29  30
ATOM     30  C   UNL     1       2.561   2.811  18.984  0.00  0.00    +0.000 A 
ATOM     31  C   UNL     1       3.388   2.611  20.091  0.00  0.00    +0.000 A 
ATOM     32  F   UNL     1       4.718   2.551  19.931  0.00  0.00    +0.000 F 
ATOM     33  C   UNL     1       2.876   2.495  21.383  0.00  0.00    +0.000 A 
ATOM     34  C   UNL     1       1.503   2.591  21.596  0.00  0.00    +0.000 A 
ATOM     35  C   UNL     1       0.657   2.799  20.510  0.00  0.00    +0.000 A 
ATOM     36  C   UNL     1       1.188   2.908  19.224  0.00  0.00    +0.000 A 
ATOM     37  F   UNL     1       0.340   3.152  18.218  0.00  0.00    +0.000 F 
ENDBRANCH  29  30
ENDBRANCH   3  29
TORSDOF 7
ENDMDL
MODEL 3
REMARK VINA RESULT:      -8.6      0.392      1.779
REMARK  Name = 
REMARK  9 active torsions:
REMARK  status: ('A' for Active; 'I' for Inactive)
REMARK    1  A    between atoms: C_1  and  C_2
REMARK    2  A    between atoms: C_2  and  N_3
REMARK    3  A    between atoms: N_3  and  C_4
REMARK    4  A    between atoms: N_3  and  C_6
REMARK    5  A    between atoms: C_4  and  C_5
REMARK    6  A    between atoms: C_9  and  N_10
REMARK    7  A    between atoms: C_11  and  C_13
REMARK    8  A    between atoms: N_15  and  C_16
REMARK    9  A    between atoms: C_16  and  C_17
REMARK                            x       y       z     vdW  Elec       q    Type
REMARK                         _______ _______ _______ _____ _____    ______ ____
ROOT
ATOM      1  C   UNL     1       3.585   6.678  17.876  0.00  0.00    +0.000 A 
ATOM      2  C   UNL     1       3.252   5.391  18.074  0.00  0.00    +0.000 A 
ATOM      3  N   UNL     1       3.827   4.277  17.452  0.00  0.00    +0.000 N 
ATOM      4  C   UNL     1       4.840   4.518  16.504  0.00  0.00    +0.000 A 
ATOM      5  C   UNL     1       5.445   3.442  15.732  0.00  0.00    +0.000 A 
ATOM      6  C   UNL     1       6.343   3.677  14.762  0.00  0.00    +0.000 A 
ATOM      7  C   UNL     1       6.788   5.062  14.487  0.00  0.00    +0.000 A 
ATOM      8  O   UNL     1       7.600   5.304  13.600  0.00  0.00    +0.000 OA
ATOM      9  N   UNL     1       6.243   6.023  15.284  0.00  0.00    +0.000 N 
ATOM     10  C   UNL     1       5.288   5.769  16.240  0.00  0.00    +0.000 A 
ATOM     11  C   UNL     1       4.714   6.940  16.967  0.00  0.00    +0.000 A 
ATOM     12  O   UNL     1       5.157   8.074  16.787  0.00  0.00    +0.000 OA
ATOM     13  H   UNL     1       6.525   6.985  15.130  0.00  0.00    +0.000 HD
ENDROOT
BRANCH   1  15
ATOM     14  N   UNL     1       2.533   8.858  17.769  0.00  0.00    +0.000 N 
ATOM     15  C   UNL     1       2.745   7.717  18.520  0.00  0.00    +0.000 C 
ATOM     16  O   UNL     1       2.283   7.494  19.636  0.00  0.00    +0.000 OA
ATOM     17  H   UNL     1       3.006   8.925  16.867  0.00  0.00    +0.000 HD
BRANCH  14  21
ATOM     18  C   UNL     1      -0.102  12.025  18.863  0.00  0.00    +0.000 A 
ATOM     19  C   UNL     1       1.273  12.229  18.742  0.00  0.00    +0.000 A 
ATOM     20  C   UNL     1       2.146  11.205  18.387  0.00  0.00    +0.000 A 
ATOM     21  C   UNL     1       1.675   9.927  18.112  0.00  0.00    +0.000 A 
ATOM     22  C   UNL     1       0.303   9.696  18.200  0.00  0.00    +0.000 A 
ATOM     23  C   UNL     1      -0.571  10.733  18.579  0.00  0.00    +0.000 A 
BRANCH  18  24
ATOM     24  N   UNL     1      -0.939  13.060  19.249  0.00  0.00    +0.000 N 
BRANCH  24  26
ATOM     25  C   UNL     1      -2.177  12.464  21.336  0.00  0.00    +0.000 C 
ATOM     26  C   UNL     1      -2.246  12.760  19.845  0.00  0.00    +0.000 C 
ENDBRANCH  24  26
BRANCH  24  27
ATOM     27  C   UNL     1      -0.584  14.450  18.958  0.00  0.00    +0.000 C 
ATOM     28  C   UNL     1      -0.225  15.213  20.227  0.00  0.00    +0.000 C 
ENDBRANCH  24  27
ENDBRANCH  18  24
ENDBRANCH  14  21
ENDBRANCH   1  15
BRANCH   3  29
ATOM     29  C   UNL     1       3.259   2.937  17.743  0.00  0.00    +0.000 C 
BRANCH  29  30
ATOM     30  C   UNL     1       2.651   2.836  19.119  0.00  0.00    +0.000 A 
ATOM     31  C   UNL     1       1.270   2.922  19.303  0.00  0.00    +0.000 A 
ATOM     32  F   UNL     1       0.464   3.115  18.248  0.00  0.00    +0.000 F 
ATOM     33  C   UNL     1       0.684   2.786  20.562  0.00  0.00    +0.000 A 
ATOM     34  C   UNL     1       1.483   2.544  21.676  0.00  0.00    +0.000 A 
ATOM     35  C   UNL     1       2.862   2.445  21.519  0.00  0.00    +0.000 A 
ATOM     36  C   UNL     1       3.430   2.589  20.252  0.00  0.00    +0.000 A 
ATOM     37  F   UNL     1       4.756   2.442  20.143  0.00  0.00    +0.000 F 
ENDBRANCH  29  30
ENDBRANCH   3  29
TORSDOF 7
ENDMDL
MODEL 4
REMARK VINA RESULT:      -8.6      1.699      2.135
REMARK  Name = 
REMARK  9 active torsions:
REMARK  status: ('A' for Active; 'I' for Inactive)
REMARK    1  A    between atoms: C_1  and  C_2
REMARK    2  A    between atoms: C_2  and  N_3
REMARK    3  A    between atoms: N_3  and  C_4
REMARK    4  A    between atoms: N_3  and  C_6
REMARK    5  A    between atoms: C_4  and  C_5
REMARK    6  A    between atoms: C_9  and  N_10
REMARK    7  A    between atoms: C_11  and  C_13
REMARK    8  A    between atoms: N_15  and  C_16
REMARK    9  A    between atoms: C_16  and  C_17
REMARK                            x       y       z     vdW  Elec       q    Type
REMARK                         _______ _______ _______ _____ _____    ______ ____
ROOT
ATOM      1  C   UNL     1       3.232   6.899  17.763  0.00  0.00    +0.000 A 
ATOM      2  C   UNL     1       2.834   5.625  17.921  0.00  0.00    +0.000 A 
ATOM      3  N   UNL     1       3.487   4.483  17.445  0.00  0.00    +0.000 N 
ATOM      4  C   UNL     1       4.668   4.677  16.704  0.00  0.00    +0.000 A 
ATOM      5  C   UNL     1       5.380   3.568  16.084  0.00  0.00    +0.000 A 
ATOM      6  C   UNL     1       6.453   3.758  15.300  0.00  0.00    +0.000 A 
ATOM      7  C   UNL     1       6.979   5.125  15.085  0.00  0.00    +0.000 A 
ATOM      8  O   UNL     1       7.951   5.325  14.365  0.00  0.00    +0.000 OA
ATOM      9  N   UNL     1       6.318   6.118  15.741  0.00  0.00    +0.000 N 
ATOM     10  C   UNL     1       5.191   5.910  16.503  0.00  0.00    +0.000 A 
ATOM     11  C   UNL     1       4.521   7.112  17.081  0.00  0.00    +0.000 A 
ATOM     12  O   UNL     1       5.019   8.231  16.965  0.00  0.00    +0.000 OA
ATOM     13  H   UNL     1       6.649   7.069  15.623  0.00  0.00    +0.000 HD
ENDROOT
BRANCH   1  15
ATOM     14  N   UNL     1       1.994   7.958  19.556  0.00  0.00    +0.000 N 
ATOM     15  C   UNL     1       2.313   7.973  18.212  0.00  0.00    +0.000 C 
ATOM     16  O   UNL     1       1.927   8.800  17.389  0.00  0.00    +0.000 OA
ATOM     17  H   UNL     1       2.362   7.192  20.121  0.00  0.00    +0.000 HD
BRANCH  14  21
ATOM     18  C   UNL     1      -0.308  10.950  21.535  0.00  0.00    +0.000 A 
ATOM     19  C   UNL     1      -0.187   9.661  22.055  0.00  0.00    +0.000 A 
ATOM     20  C   UNL     1       0.560   8.673  21.420  0.00  0.00    +0.000 A 
ATOM     21  C   UNL     1       1.244   8.941  20.240  0.00  0.00    +0.000 A 
ATOM     22  C   UNL     1       1.162  10.226  19.707  0.00  0.00    +0.000 A 
ATOM     23  C   UNL     1       0.388  11.215  20.347  0.00  0.00    +0.000 A 
BRANCH  18  24
ATOM     24  N   UNL     1      -1.086  11.901  22.178  0.00  0.00    +0.000 N 
BRANCH  24  26
ATOM     25  C   UNL     1      -3.250  12.279  23.369  0.00  0.00    +0.000 C 
ATOM     26  C   UNL     1      -1.940  11.506  23.304  0.00  0.00    +0.000 C 
ENDBRANCH  24  26
BRANCH  24  27
ATOM     27  C   UNL     1      -1.156  13.271  21.669  0.00  0.00    +0.000 C 
ATOM     28  C   UNL     1      -0.234  14.204  22.446  0.00  0.00    +0.000 C 
ENDBRANCH  24  27
ENDBRANCH  18  24
ENDBRANCH  14  21
ENDBRANCH   1  15
BRANCH   3  29
ATOM     29  C   UNL     1       2.838   3.164  17.651  0.00  0.00    +0.000 C 
BRANCH  29  30
ATOM     30  C   UNL     1       2.446   2.913  19.084  0.00  0.00    +0.000 A 
ATOM     31  C   UNL     1       3.413   2.734  20.075  0.00  0.00    +0.000 A 
ATOM     32  F   UNL     1       4.715   2.766  19.753  0.00  0.00    +0.000 F 
ATOM     33  C   UNL     1       3.071   2.546  21.414  0.00  0.00    +0.000 A 
ATOM     34  C   UNL     1       1.732   2.547  21.795  0.00  0.00    +0.000 A 
ATOM     35  C   UNL     1       0.747   2.731  20.828  0.00  0.00    +0.000 A 
ATOM     36  C   UNL     1       1.109   2.913  19.492  0.00  0.00    +0.000 A 
ATOM     37  F   UNL     1       0.130   3.131  18.606  0.00  0.00    +0.000 F 
ENDBRANCH  29  30
ENDBRANCH   3  29
TORSDOF 7
ENDMDL
MODEL 5
REMARK VINA RESULT:      -8.6      1.694      2.288
REMARK  Name = 
REMARK  9 active torsions:
REMARK  status: ('A' for Active; 'I' for Inactive)
REMARK    1  A    between atoms: C_1  and  C_2
REMARK    2  A    between atoms: C_2  and  N_3
REMARK    3  A    between atoms: N_3  and  C_4
REMARK    4  A    between atoms: N_3  and  C_6
REMARK    5  A    between atoms: C_4  and  C_5
REMARK    6  A    between atoms: C_9  and  N_10
REMARK    7  A    between atoms: C_11  and  C_13
REMARK    8  A    between atoms: N_15  and  C_16
REMARK    9  A    between atoms: C_16  and  C_17
REMARK                            x       y       z     vdW  Elec       q    Type
REMARK                         _______ _______ _______ _____ _____    ______ ____
ROOT
ATOM      1  C   UNL     1       3.342   6.986  17.748  0.00  0.00    +0.000 A 
ATOM      2  C   UNL     1       2.914   5.724  17.919  0.00  0.00    +0.000 A 
ATOM      3  N   UNL     1       3.541   4.562  17.456  0.00  0.00    +0.000 N 
ATOM      4  C   UNL     1       4.726   4.721  16.713  0.00  0.00    +0.000 A 
ATOM      5  C   UNL     1       5.413   3.589  16.105  0.00  0.00    +0.000 A 
ATOM      6  C   UNL     1       6.490   3.745  15.319  0.00  0.00    +0.000 A 
ATOM      7  C   UNL     1       7.047   5.098  15.090  0.00  0.00    +0.000 A 
ATOM      8  O   UNL     1       8.024   5.268  14.368  0.00  0.00    +0.000 OA
ATOM      9  N   UNL     1       6.409   6.113  15.736  0.00  0.00    +0.000 N 
ATOM     10  C   UNL     1       5.278   5.939  16.499  0.00  0.00    +0.000 A 
ATOM     11  C   UNL     1       4.636   7.163  17.065  0.00  0.00    +0.000 A 
ATOM     12  O   UNL     1       5.161   8.268  16.937  0.00  0.00    +0.000 OA
ATOM     13  H   UNL     1       6.762   7.054  15.608  0.00  0.00    +0.000 HD
ENDROOT
BRANCH   1  15
ATOM     14  N   UNL     1       1.958   7.977  19.473  0.00  0.00    +0.000 N 
ATOM     15  C   UNL     1       2.449   8.086  18.185  0.00  0.00    +0.000 C 
ATOM     16  O   UNL     1       2.230   9.012  17.408  0.00  0.00    +0.000 OA
ATOM     17  H   UNL     1       2.196   7.136  19.999  0.00  0.00    +0.000 HD
BRANCH  14  21
ATOM     18  C   UNL     1      -0.418  10.901  21.465  0.00  0.00    +0.000 A 
ATOM     19  C   UNL     1       0.339   9.969  22.176  0.00  0.00    +0.000 A 
ATOM     20  C   UNL     1       1.119   9.008  21.540  0.00  0.00    +0.000 A 
ATOM     21  C   UNL     1       1.195   8.951  20.153  0.00  0.00    +0.000 A 
ATOM     22  C   UNL     1       0.469   9.885  19.414  0.00  0.00    +0.000 A 
ATOM     23  C   UNL     1      -0.332  10.842  20.066  0.00  0.00    +0.000 A 
BRANCH  18  24
ATOM     24  N   UNL     1      -1.208  11.825  22.131  0.00  0.00    +0.000 N 
BRANCH  24  26
ATOM     25  C   UNL     1       0.053  13.983  22.147  0.00  0.00    +0.000 C 
ATOM     26  C   UNL     1      -1.198  13.232  21.714  0.00  0.00    +0.000 C 
ENDBRANCH  24  26
BRANCH  24  27
ATOM     27  C   UNL     1      -1.960  11.436  23.325  0.00  0.00    +0.000 C 
ATOM     28  C   UNL     1      -3.206  12.295  23.506  0.00  0.00    +0.000 C 
ENDBRANCH  24  27
ENDBRANCH  18  24
ENDBRANCH  14  21
ENDBRANCH   1  15
BRANCH   3  29
ATOM     29  C   UNL     1       2.862   3.260  17.675  0.00  0.00    +0.000 C 
BRANCH  29  30
ATOM     30  C   UNL     1       2.446   3.042  19.108  0.00  0.00    +0.000 A 
ATOM     31  C   UNL     1       1.098   2.983  19.464  0.00  0.00    +0.000 A 
ATOM     32  F   UNL     1       0.150   3.140  18.529  0.00  0.00    +0.000 F 
ATOM     33  C   UNL     1       0.692   2.736  20.777  0.00  0.00    +0.000 A 
ATOM     34  C   UNL     1       1.646   2.527  21.769  0.00  0.00    +0.000 A 
ATOM     35  C   UNL     1       2.998   2.573  21.438  0.00  0.00    +0.000 A 
ATOM     36  C   UNL     1       3.383   2.825  20.121  0.00  0.00    +0.000 A 
ATOM     37  F   UNL     1       4.693   2.815  19.842  0.00  0.00    +0.000 F 
ENDBRANCH  29  30
ENDBRANCH   3  29
TORSDOF 7
ENDMDL
MODEL 6
REMARK VINA RESULT:      -8.6      1.706      2.546
REMARK  Name = 
REMARK  9 active torsions:
REMARK  status: ('A' for Active; 'I' for Inactive)
REMARK    1  A    between atoms: C_1  and  C_2
REMARK    2  A    between atoms: C_2  and  N_3
REMARK    3  A    between atoms: N_3  and  C_4
REMARK    4  A    between atoms: N_3  and  C_6
REMARK    5  A    between atoms: C_4  and  C_5
REMARK    6  A    between atoms: C_9  and  N_10
REMARK    7  A    between atoms: C_11  and  C_13
REMARK    8  A    between atoms: N_15  and  C_16
REMARK    9  A    between atoms: C_16  and  C_17
REMARK                            x       y       z     vdW  Elec       q    Type
REMARK                         _______ _______ _______ _____ _____    ______ ____
ROOT
ATOM      1  C   UNL     1       3.340   6.976  17.747  0.00  0.00    +0.000 A 
ATOM      2  C   UNL     1       2.911   5.715  17.922  0.00  0.00    +0.000 A 
ATOM      3  N   UNL     1       3.534   4.551  17.458  0.00  0.00    +0.000 N 
ATOM      4  C   UNL     1       4.715   4.707  16.707  0.00  0.00    +0.000 A 
ATOM      5  C   UNL     1       5.396   3.573  16.097  0.00  0.00    +0.000 A 
ATOM      6  C   UNL     1       6.468   3.727  15.305  0.00  0.00    +0.000 A 
ATOM      7  C   UNL     1       7.026   5.078  15.070  0.00  0.00    +0.000 A 
ATOM      8  O   UNL     1       7.999   5.245  14.342  0.00  0.00    +0.000 OA
ATOM      9  N   UNL     1       6.394   6.095  15.718  0.00  0.00    +0.000 N 
ATOM     10  C   UNL     1       5.267   5.924  16.488  0.00  0.00    +0.000 A 
ATOM     11  C   UNL     1       4.630   7.149  17.056  0.00  0.00    +0.000 A 
ATOM     12  O   UNL     1       5.155   8.254  16.923  0.00  0.00    +0.000 OA
ATOM     13  H   UNL     1       6.747   7.036  15.586  0.00  0.00    +0.000 HD
ENDROOT
BRANCH   1  15
ATOM     14  N   UNL     1       1.904   7.932  19.448  0.00  0.00    +0.000 N 
ATOM     15  C   UNL     1       2.451   8.078  18.187  0.00  0.00    +0.000 C 
ATOM     16  O   UNL     1       2.282   9.036  17.436  0.00  0.00    +0.000 OA
ATOM     17  H   UNL     1       2.104   7.068  19.953  0.00  0.00    +0.000 HD
BRANCH  14  21
ATOM     18  C   UNL     1      -0.350  10.864  21.568  0.00  0.00    +0.000 A 
ATOM     19  C   UNL     1      -0.416  10.758  20.178  0.00  0.00    +0.000 A 
ATOM     20  C   UNL     1       0.314   9.806  19.472  0.00  0.00    +0.000 A 
ATOM     21  C   UNL     1       1.132   8.897  20.133  0.00  0.00    +0.000 A 
ATOM     22  C   UNL     1       1.202   8.962  21.523  0.00  0.00    +0.000 A 
ATOM     23  C   UNL     1       0.474   9.940  22.228  0.00  0.00    +0.000 A 
BRANCH  18  24
ATOM     24  N   UNL     1      -1.067  11.844  22.236  0.00  0.00    +0.000 N 
BRANCH  24  26
ATOM     25  C   UNL     1      -3.177  12.365  23.469  0.00  0.00    +0.000 C 
ATOM     26  C   UNL     1      -1.950  11.473  23.348  0.00  0.00    +0.000 C 
ENDBRANCH  24  26
BRANCH  24  27
ATOM     27  C   UNL     1      -1.047  13.230  21.766  0.00  0.00    +0.000 C 
ATOM     28  C   UNL     1       0.340  13.846  21.900  0.00  0.00    +0.000 C 
ENDBRANCH  24  27
ENDBRANCH  18  24
ENDBRANCH  14  21
ENDBRANCH   1  15
BRANCH   3  29
ATOM     29  C   UNL     1       2.854   3.251  17.683  0.00  0.00    +0.000 C 
BRANCH  29  30
ATOM     30  C   UNL     1       2.445   3.036  19.118  0.00  0.00    +0.000 A 
ATOM     31  C   UNL     1       1.101   2.904  19.471  0.00  0.00    +0.000 A 
ATOM     32  F   UNL     1       0.150   2.988  18.529  0.00  0.00    +0.000 F 
ATOM     33  C   UNL     1       0.705   2.660  20.786  0.00  0.00    +0.000 A 
ATOM     34  C   UNL     1       1.665   2.527  21.786  0.00  0.00    +0.000 A 
ATOM     35  C   UNL     1       3.012   2.645  21.459  0.00  0.00    +0.000 A 
ATOM     36  C   UNL     1       3.389   2.894  20.138  0.00  0.00    +0.000 A 
ATOM     37  F   UNL     1       4.698   2.956  19.865  0.00  0.00    +0.000 F 
ENDBRANCH  29  30
ENDBRANCH   3  29
TORSDOF 7
ENDMDL
MODEL 7
REMARK VINA RESULT:      -8.5      0.163      1.401
REMARK  Name = 
REMARK  9 active torsions:
REMARK  status: ('A' for Active; 'I' for Inactive)
REMARK    1  A    between atoms: C_1  and  C_2
REMARK    2  A    between atoms: C_2  and  N_3
REMARK    3  A    between atoms: N_3  and  C_4
REMARK    4  A    between atoms: N_3  and  C_6
REMARK    5  A    between atoms: C_4  and  C_5
REMARK    6  A    between atoms: C_9  and  N_10
REMARK    7  A    between atoms: C_11  and  C_13
REMARK    8  A    between atoms: N_15  and  C_16
REMARK    9  A    between atoms: C_16  and  C_17
REMARK                            x       y       z     vdW  Elec       q    Type
REMARK                         _______ _______ _______ _____ _____    ______ ____
ROOT
ATOM      1  C   UNL     1       3.603   6.607  17.931  0.00  0.00    +0.000 A 
ATOM      2  C   UNL     1       3.337   5.308  18.148  0.00  0.00    +0.000 A 
ATOM      3  N   UNL     1       3.938   4.217  17.511  0.00  0.00    +0.000 N 
ATOM      4  C   UNL     1       4.901   4.497  16.523  0.00  0.00    +0.000 A 
ATOM      5  C   UNL     1       5.524   3.443  15.733  0.00  0.00    +0.000 A 
ATOM      6  C   UNL     1       6.373   3.712  14.729  0.00  0.00    +0.000 A 
ATOM      7  C   UNL     1       6.744   5.114  14.429  0.00  0.00    +0.000 A 
ATOM      8  O   UNL     1       7.509   5.385  13.510  0.00  0.00    +0.000 OA
ATOM      9  N   UNL     1       6.186   6.055  15.241  0.00  0.00    +0.000 N 
ATOM     10  C   UNL     1       5.282   5.764  16.235  0.00  0.00    +0.000 A 
ATOM     11  C   UNL     1       4.684   6.914  16.977  0.00  0.00    +0.000 A 
ATOM     12  O   UNL     1       5.067   8.065  16.774  0.00  0.00    +0.000 OA
ATOM     13  H   UNL     1       6.418   7.027  15.071  0.00  0.00    +0.000 HD
ENDROOT
BRANCH   1  15
ATOM     14  N   UNL     1       2.399   8.708  17.831  0.00  0.00    +0.000 N 
ATOM     15  C   UNL     1       2.742   7.612  18.601  0.00  0.00    +0.000 C 
ATOM     16  O   UNL     1       2.378   7.401  19.755  0.00  0.00    +0.000 OA
ATOM     17  H   UNL     1       2.800   8.772  16.895  0.00  0.00    +0.000 HD
BRANCH  14  21
ATOM     18  C   UNL     1      -0.379  11.725  18.990  0.00  0.00    +0.000 A 
ATOM     19  C   UNL     1       0.997  11.909  19.130  0.00  0.00    +0.000 A 
ATOM     20  C   UNL     1       1.916  10.933  18.757  0.00  0.00    +0.000 A 
ATOM     21  C   UNL     1       1.497   9.730  18.202  0.00  0.00    +0.000 A 
ATOM     22  C   UNL     1       0.129   9.525  18.026  0.00  0.00    +0.000 A 
ATOM     23  C   UNL     1      -0.795  10.511  18.424  0.00  0.00    +0.000 A 
BRANCH  18  24
ATOM     24  N   UNL     1      -1.268  12.706  19.401  0.00  0.00    +0.000 N 
BRANCH  24  26
ATOM     25  C   UNL     1      -0.306  14.889  18.656  0.00  0.00    +0.000 C 
ATOM     26  C   UNL     1      -0.765  14.020  19.818  0.00  0.00    +0.000 C 
ENDBRANCH  24  26
BRANCH  24  27
ATOM     27  C   UNL     1      -2.694  12.407  19.537  0.00  0.00    +0.000 C 
ATOM     28  C   UNL     1      -3.401  13.437  20.412  0.00  0.00    +0.000 C 
ENDBRANCH  24  27
ENDBRANCH  18  24
ENDBRANCH  14  21
ENDBRANCH   1  15
BRANCH   3  29
ATOM     29  C   UNL     1       3.442   2.854  17.831  0.00  0.00    +0.000 C 
BRANCH  29  30
ATOM     30  C   UNL     1       2.754   2.773  19.169  0.00  0.00    +0.000 A 
ATOM     31  C   UNL     1       1.367   2.903  19.274  0.00  0.00    +0.000 A 
ATOM     32  F   UNL     1       0.630   3.122  18.175  0.00  0.00    +0.000 F 
ATOM     33  C   UNL     1       0.706   2.784  20.497  0.00  0.00    +0.000 A 
ATOM     34  C   UNL     1       1.432   2.517  21.654  0.00  0.00    +0.000 A 
ATOM     35  C   UNL     1       2.815   2.375  21.576  0.00  0.00    +0.000 A 
ATOM     36  C   UNL     1       3.458   2.500  20.344  0.00  0.00    +0.000 A 
ATOM     37  F   UNL     1       4.783   2.311  20.311  0.00  0.00    +0.000 F 
ENDBRANCH  29  30
ENDBRANCH   3  29
TORSDOF 7
ENDMDL
MODEL 8
REMARK VINA RESULT:      -8.5      1.804      1.931
REMARK  Name = 
REMARK  9 active torsions:
REMARK  status: ('A' for Active; 'I' for Inactive)
REMARK    1  A    between atoms: C_1  and  C_2
REMARK    2  A    between atoms: C_2  and  N_3
REMARK    3  A    between atoms: N_3  and  C_4
REMARK    4  A    between atoms: N_3  and  C_6
REMARK    5  A    between atoms: C_4  and  C_5
REMARK    6  A    between atoms: C_9  and  N_10
REMARK    7  A    between atoms: C_11  and  C_13
REMARK    8  A    between atoms: N_15  and  C_16
REMARK    9  A    between atoms: C_16  and  C_17
REMARK                            x       y       z     vdW  Elec       q    Type
REMARK                         _______ _______ _______ _____ _____    ______ ____
ROOT
ATOM      1  C   UNL     1       3.050   7.113  17.889  0.00  0.00    +0.000 A 
ATOM      2  C   UNL     1       2.594   5.858  18.035  0.00  0.00    +0.000 A 
ATOM      3  N   UNL     1       3.215   4.688  17.584  0.00  0.00    +0.000 N 
ATOM      4  C   UNL     1       4.426   4.830  16.881  0.00  0.00    +0.000 A 
ATOM      5  C   UNL     1       5.112   3.690  16.288  0.00  0.00    +0.000 A 
ATOM      6  C   UNL     1       6.217   3.832  15.539  0.00  0.00    +0.000 A 
ATOM      7  C   UNL     1       6.806   5.176  15.339  0.00  0.00    +0.000 A 
ATOM      8  O   UNL     1       7.810   5.333  14.652  0.00  0.00    +0.000 OA
ATOM      9  N   UNL     1       6.166   6.198  15.972  0.00  0.00    +0.000 N 
ATOM     10  C   UNL     1       5.007   6.039  16.696  0.00  0.00    +0.000 A 
ATOM     11  C   UNL     1       4.369   7.270  17.250  0.00  0.00    +0.000 A 
ATOM     12  O   UNL     1       4.917   8.366  17.148  0.00  0.00    +0.000 OA
ATOM     13  H   UNL     1       6.540   7.133  15.864  0.00  0.00    +0.000 HD
ENDROOT
BRANCH   1  15
ATOM     14  N   UNL     1       1.785   8.219  19.634  0.00  0.00    +0.000 N 
ATOM     15  C   UNL     1       2.163   8.226  18.305  0.00  0.00    +0.000 C 
ATOM     16  O   UNL     1       1.851   9.074  17.472  0.00  0.00    +0.000 OA
ATOM     17  H   UNL     1       2.093   7.434  20.209  0.00  0.00    +0.000 HD
BRANCH  14  21
ATOM     18  C   UNL     1      -0.395  11.242  21.702  0.00  0.00    +0.000 A 
ATOM     19  C   UNL     1       0.322  11.526  20.539  0.00  0.00    +0.000 A 
ATOM     20  C   UNL     1       1.039  10.551  19.853  0.00  0.00    +0.000 A 
ATOM     21  C   UNL     1       1.052   9.231  20.291  0.00  0.00    +0.000 A 
ATOM     22  C   UNL     1       0.326   8.910  21.437  0.00  0.00    +0.000 A 
ATOM     23  C   UNL     1      -0.382   9.908  22.135  0.00  0.00    +0.000 A 
BRANCH  18  24
ATOM     24  N   UNL     1      -1.073  12.246  22.376  0.00  0.00    +0.000 N 
BRANCH  24  26
ATOM     25  C   UNL     1      -1.023  14.424  23.598  0.00  0.00    +0.000 C 
ATOM     26  C   UNL     1      -0.515  13.602  22.423  0.00  0.00    +0.000 C 
ENDBRANCH  24  26
BRANCH  24  27
ATOM     27  C   UNL     1      -2.281  11.939  23.144  0.00  0.00    +0.000 C 
ATOM     28  C   UNL     1      -3.534  12.458  22.448  0.00  0.00    +0.000 C 
ENDBRANCH  24  27
ENDBRANCH  18  24
ENDBRANCH  14  21
ENDBRANCH   1  15
BRANCH   3  29
ATOM     29  C   UNL     1       2.504   3.397  17.770  0.00  0.00    +0.000 C 
BRANCH  29  30
ATOM     30  C   UNL     1       2.362   3.002  19.217  0.00  0.00    +0.000 A 
ATOM     31  C   UNL     1       3.473   2.622  19.972  0.00  0.00    +0.000 A 
ATOM     32  F   UNL     1       4.688   2.588  19.405  0.00  0.00    +0.000 F 
ATOM     33  C   UNL     1       3.370   2.297  21.325  0.00  0.00    +0.000 A 
ATOM     34  C   UNL     1       2.132   2.359  21.960  0.00  0.00    +0.000 A 
ATOM     35  C   UNL     1       1.009   2.743  21.232  0.00  0.00    +0.000 A 
ATOM     36  C   UNL     1       1.133   3.060  19.879  0.00  0.00    +0.000 A 
ATOM     37  F   UNL     1       0.033   3.467  19.232  0.00  0.00    +0.000 F 
ENDBRANCH  29  30
ENDBRANCH   3  29
TORSDOF 7
ENDMDL
MODEL 9
REMARK VINA RESULT:      -8.3      1.686      1.894
REMARK  Name = 
REMARK  9 active torsions:
REMARK  status: ('A' for Active; 'I' for Inactive)
REMARK    1  A    between atoms: C_1  and  C_2
REMARK    2  A    between atoms: C_2  and  N_3
REMARK    3  A    between atoms: N_3  and  C_4
REMARK    4  A    between atoms: N_3  and  C_6
REMARK    5  A    between atoms: C_4  and  C_5
REMARK    6  A    between atoms: C_9  and  N_10
REMARK    7  A    between atoms: C_11  and  C_13
REMARK    8  A    between atoms: N_15  and  C_16
REMARK    9  A    between atoms: C_16  and  C_17
REMARK                            x       y       z     vdW  Elec       q    Type
REMARK                         _______ _______ _______ _____ _____    ______ ____
ROOT
ATOM      1  C   UNL     1       3.240   6.802  17.803  0.00  0.00    +0.000 A 
ATOM      2  C   UNL     1       2.889   5.515  17.965  0.00  0.00    +0.000 A 
ATOM      3  N   UNL     1       3.576   4.397  17.482  0.00  0.00    +0.000 N 
ATOM      4  C   UNL     1       4.740   4.631  16.726  0.00  0.00    +0.000 A 
ATOM      5  C   UNL     1       5.484   3.547  16.099  0.00  0.00    +0.000 A 
ATOM      6  C   UNL     1       6.540   3.774  15.302  0.00  0.00    +0.000 A 
ATOM      7  C   UNL     1       7.015   5.159  15.081  0.00  0.00    +0.000 A 
ATOM      8  O   UNL     1       7.972   5.393  14.349  0.00  0.00    +0.000 OA
ATOM      9  N   UNL     1       6.327   6.129  15.745  0.00  0.00    +0.000 N 
ATOM     10  C   UNL     1       5.218   5.881  16.520  0.00  0.00    +0.000 A 
ATOM     11  C   UNL     1       4.513   7.060  17.106  0.00  0.00    +0.000 A 
ATOM     12  O   UNL     1       4.971   8.195  16.984  0.00  0.00    +0.000 OA
ATOM     13  H   UNL     1       6.624   7.091  15.623  0.00  0.00    +0.000 HD
ENDROOT
BRANCH   1  15
ATOM     14  N   UNL     1       2.050   7.871  19.623  0.00  0.00    +0.000 N 
ATOM     15  C   UNL     1       2.290   7.843  18.262  0.00  0.00    +0.000 C 
ATOM     16  O   UNL     1       1.810   8.611  17.432  0.00  0.00    +0.000 OA
ATOM     17  H   UNL     1       2.493   7.150  20.195  0.00  0.00    +0.000 HD
BRANCH  14  21
ATOM     18  C   UNL     1      -0.276  10.837  21.612  0.00  0.00    +0.000 A 
ATOM     19  C   UNL     1      -0.348   9.491  21.972  0.00  0.00    +0.000 A 
ATOM     20  C   UNL     1       0.404   8.511  21.332  0.00  0.00    +0.000 A 
ATOM     21  C   UNL     1       1.287   8.840  20.310  0.00  0.00    +0.000 A 
ATOM     22  C   UNL     1       1.400  10.180  19.943  0.00  0.00    +0.000 A 
ATOM     23  C   UNL     1       0.621  11.163  20.584  0.00  0.00    +0.000 A 
BRANCH  18  24
ATOM     24  N   UNL     1      -1.063  11.782  22.252  0.00  0.00    +0.000 N 
BRANCH  24  26
ATOM     25  C   UNL     1      -1.783  13.554  20.644  0.00  0.00    +0.000 C 
ATOM     26  C   UNL     1      -0.960  13.196  21.873  0.00  0.00    +0.000 C 
ENDBRANCH  24  26
BRANCH  24  27
ATOM     27  C   UNL     1      -1.908  11.402  23.384  0.00  0.00    +0.000 C 
ATOM     28  C   UNL     1      -3.157  12.272  23.468  0.00  0.00    +0.000 C 
ENDBRANCH  24  27
ENDBRANCH  18  24
ENDBRANCH  14  21
ENDBRANCH   1  15
BRANCH   3  29
ATOM     29  C   UNL     1       2.976   3.055  17.695  0.00  0.00    +0.000 C 
BRANCH  29  30
ATOM     30  C   UNL     1       2.479   2.844  19.102  0.00  0.00    +0.000 A 
ATOM     31  C   UNL     1       3.371   2.723  20.169  0.00  0.00    +0.000 A 
ATOM     32  F   UNL     1       4.692   2.775  19.947  0.00  0.00    +0.000 F 
ATOM     33  C   UNL     1       2.931   2.573  21.485  0.00  0.00    +0.000 A 
ATOM     34  C   UNL     1       1.566   2.555  21.762  0.00  0.00    +0.000 A 
ATOM     35  C   UNL     1       0.656   2.683  20.716  0.00  0.00    +0.000 A 
ATOM     36  C   UNL     1       1.116   2.827  19.407  0.00  0.00    +0.000 A 
ATOM     37  F   UNL     1       0.204   2.991  18.441  0.00  0.00    +0.000 F 
ENDBRANCH  29  30
ENDBRANCH   3  29
TORSDOF 7
ENDMDL
