MODEL 1
REMARK VINA RESULT:      -8.2      0.000      0.000
REMARK  Name = 
REMARK  9 active torsions:
REMARK  status: ('A' for Active; 'I' for Inactive)
REMARK    1  A    between atoms: C_1  and  C_2
REMARK    2  A    between atoms: C_6  and  C_8
REMARK    3  A    between atoms: C_8  and  C_9
REMARK    4  A    between atoms: C_8  and  C_10
REMARK    5  A    between atoms: C_8  and  N_11
REMARK    6  A    between atoms: C_13  and  C_14
REMARK    7  A    between atoms: C_19  and  N_20
REMARK    8  A    between atoms: N_20  and  S_21
REMARK    9  A    between atoms: S_21  and  C_24
REMARK                            x       y       z     vdW  Elec       q    Type
REMARK                         _______ _______ _______ _____ _____    ______ ____
ROOT
ATOM      1  C   UNL     1       3.535   6.898  17.815  0.00  0.00    +0.000 A 
ATOM      2  C   UNL     1       4.316   7.385  16.759  0.00  0.00    +0.000 A 
ATOM      3  N   UNL     1       5.193   6.648  16.032  0.00  0.00    +0.000 NA
ATOM      4  C   UNL     1       5.313   5.351  16.374  0.00  0.00    +0.000 A 
ATOM      5 CL   UNL     1       6.405   4.475  15.376  0.00  0.00    +0.000 Cl
ATOM      6  C   UNL     1       4.599   4.746  17.408  0.00  0.00    +0.000 A 
ATOM      7  C   UNL     1       3.701   5.542  18.125  0.00  0.00    +0.000 A 
ENDROOT
BRANCH   1  16
ATOM      8  C   UNL     1       1.956   6.392  20.662  0.00  0.00    +0.000 C 
ATOM      9  C   UNL     1       1.919   7.580  19.762  0.00  0.00    +0.000 A 
ATOM     10  N   UNL     1       1.146   8.667  20.175  0.00  0.00    +0.000 NA
ATOM     11  C   UNL     1       1.299   9.670  19.347  0.00  0.00    +0.000 A 
ATOM     12  N   UNL     1       0.710  10.893  19.567  0.00  0.00    +0.000 N 
ATOM     13  C   UNL     1       1.049  12.075  18.941  0.00  0.00    +0.000 C 
ATOM     14  O   UNL     1       1.950  12.212  18.110  0.00  0.00    +0.000 OA
ATOM     15  S   UNL     1       2.214   9.333  17.958  0.00  0.00    +0.000 S 
ATOM     16  C   UNL     1       2.607   7.765  18.565  0.00  0.00    +0.000 A 
ATOM     17  H   UNL     1       0.106  10.902  20.378  0.00  0.00    +0.000 HD
BRANCH  13  18
ATOM     18  C   UNL     1       0.206  13.320  19.376  0.00  0.00    +0.000 C 
ATOM     19  C   UNL     1      -0.386  13.116  20.772  0.00  0.00    +0.000 C 
ATOM     20  C   UNL     1       1.040  14.602  19.316  0.00  0.00    +0.000 C 
BRANCH  18  21
ATOM     21  N   UNL     1      -0.925  13.480  18.426  0.00  0.00    +0.000 NA
ATOM     22  H   UNL     1      -1.789  13.520  18.974  0.00  0.00    +0.000 HD
ATOM     23  H   UNL     1      -1.026  12.599  17.913  0.00  0.00    +0.000 HD
ENDBRANCH  18  21
ENDBRANCH  13  18
ENDBRANCH   1  16
BRANCH   6  24
ATOM     24  N   UNL     1       4.774   3.376  17.797  0.00  0.00    +0.000 N 
ATOM     25  H   UNL     1       5.322   3.203  18.640  0.00  0.00    +0.000 HD
BRANCH  24  26
ATOM     26  S   UNL     1       3.431   2.343  17.707  0.00  0.00    +0.000 S 
ATOM     27  O   UNL     1       2.557   2.813  16.652  0.00  0.00    +0.000 OA
ATOM     28  O   UNL     1       3.961   0.996  17.702  0.00  0.00    +0.000 OA
BRANCH  26  29
ATOM     29  C   UNL     1       2.601   2.582  19.262  0.00  0.00    +0.000 A 
ATOM     30  C   UNL     1       3.327   2.533  20.456  0.00  0.00    +0.000 A 
ATOM     31  C   UNL     1       2.662   2.714  21.671  0.00  0.00    +0.000 A 
ATOM     32  C   UNL     1       1.288   2.957  21.691  0.00  0.00    +0.000 A 
ATOM     33  C   UNL     1       0.573   3.035  20.495  0.00  0.00    +0.000 A 
ATOM     34  C   UNL     1       1.229   2.858  19.275  0.00  0.00    +0.000 A 
ENDBRANCH  26  29
ENDBRANCH  24  26
ENDBRANCH   6  24
TORSDOF 6
ENDMDL
MODEL 2
REMARK VINA RESULT:      -7.6      0.823      1.261
REMARK  Name = 
REMARK  9 active torsions:
REMARK  status: ('A' for Active; 'I' for Inactive)
REMARK    1  A    between atoms: C_1  and  C_2
REMARK    2  A    between atoms: C_6  and  C_8
REMARK    3  A    between atoms: C_8  and  C_9
REMARK    4  A    between atoms: C_8  and  C_10
REMARK    5  A    between atoms: C_8  and  N_11
REMARK    6  A    between atoms: C_13  and  C_14
REMARK    7  A    between atoms: C_19  and  N_20
REMARK    8  A    between atoms: N_20  and  S_21
REMARK    9  A    between atoms: S_21  and  C_24
REMARK                            x       y       z     vdW  Elec       q    Type
REMARK                         _______ _______ _______ _____ _____    ______ ____
ROOT
ATOM      1  C   UNL     1       3.562   6.701  18.220  0.00  0.00    +0.000 A 
ATOM      2  C   UNL     1       4.112   6.898  16.947  0.00  0.00    +0.000 A 
ATOM      3  N   UNL     1       5.018   6.081  16.352  0.00  0.00    +0.000 NA
ATOM      4  C   UNL     1       5.410   5.006  17.063  0.00  0.00    +0.000 A 
ATOM      5 CL   UNL     1       6.520   3.995  16.223  0.00  0.00    +0.000 Cl
ATOM      6  C   UNL     1       4.944   4.700  18.341  0.00  0.00    +0.000 A 
ATOM      7  C   UNL     1       4.006   5.566  18.911  0.00  0.00    +0.000 A 
ENDROOT
BRANCH   1  16
ATOM      8  C   UNL     1       1.711   6.457  20.935  0.00  0.00    +0.000 C 
ATOM      9  C   UNL     1       1.784   7.566  19.940  0.00  0.00    +0.000 A 
ATOM     10  N   UNL     1       0.999   8.694  20.185  0.00  0.00    +0.000 NA
ATOM     11  C   UNL     1       1.250   9.621  19.296  0.00  0.00    +0.000 A 
ATOM     12  N   UNL     1       0.668  10.866  19.357  0.00  0.00    +0.000 N 
ATOM     13  C   UNL     1       1.090  11.986  18.670  0.00  0.00    +0.000 C 
ATOM     14  O   UNL     1       2.068  12.040  17.921  0.00  0.00    +0.000 OA
ATOM     15  S   UNL     1       2.284   9.156  18.034  0.00  0.00    +0.000 S 
ATOM     16  C   UNL     1       2.585   7.640  18.803  0.00  0.00    +0.000 A 
ATOM     17  H   UNL     1      -0.009  10.951  20.103  0.00  0.00    +0.000 HD
BRANCH  13  18
ATOM     18  C   UNL     1       0.236  13.274  18.918  0.00  0.00    +0.000 C 
ATOM     19  C   UNL     1      -0.512  13.184  20.249  0.00  0.00    +0.000 C 
ATOM     20  C   UNL     1       1.104  14.534  18.862  0.00  0.00    +0.000 C 
BRANCH  18  21
ATOM     21  N   UNL     1      -0.777  13.384  17.838  0.00  0.00    +0.000 NA
ATOM     22  H   UNL     1      -1.020  14.374  17.739  0.00  0.00    +0.000 HD
ATOM     23  H   UNL     1      -1.649  12.974  18.187  0.00  0.00    +0.000 HD
ENDBRANCH  18  21
ENDBRANCH  13  18
ENDBRANCH   1  16
BRANCH   6  24
ATOM     24  N   UNL     1       5.409   3.581  19.108  0.00  0.00    +0.000 N 
ATOM     25  H   UNL     1       5.698   3.768  20.069  0.00  0.00    +0.000 HD
BRANCH  24  26
ATOM     26  S   UNL     1       4.553   2.121  18.991  0.00  0.00    +0.000 S 
ATOM     27  O   UNL     1       4.422   1.774  17.591  0.00  0.00    +0.000 OA
ATOM     28  O   UNL     1       5.170   1.216  19.937  0.00  0.00    +0.000 OA
BRANCH  26  29
ATOM     29  C   UNL     1       2.936   2.522  19.615  0.00  0.00    +0.000 A 
ATOM     30  C   UNL     1       1.854   2.627  18.736  0.00  0.00    +0.000 A 
ATOM     31  C   UNL     1       0.591   2.950  19.237  0.00  0.00    +0.000 A 
ATOM     32  C   UNL     1       0.408   3.150  20.605  0.00  0.00    +0.000 A 
ATOM     33  C   UNL     1       1.485   3.014  21.483  0.00  0.00    +0.000 A 
ATOM     34  C   UNL     1       2.751   2.689  20.992  0.00  0.00    +0.000 A 
ENDBRANCH  26  29
ENDBRANCH  24  26
ENDBRANCH   6  24
TORSDOF 6
ENDMDL
MODEL 3
REMARK VINA RESULT:      -7.5      0.864      1.320
REMARK  Name = 
REMARK  9 active torsions:
REMARK  status: ('A' for Active; 'I' for Inactive)
REMARK    1  A    between atoms: C_1  and  C_2
REMARK    2  A    between atoms: C_6  and  C_8
REMARK    3  A    between atoms: C_8  and  C_9
REMARK    4  A    between atoms: C_8  and  C_10
REMARK    5  A    between atoms: C_8  and  N_11
REMARK    6  A    between atoms: C_13  and  C_14
REMARK    7  A    between atoms: C_19  and  N_20
REMARK    8  A    between atoms: N_20  and  S_21
REMARK    9  A    between atoms: S_21  and  C_24
REMARK                            x       y       z     vdW  Elec       q    Type
REMARK                         _______ _______ _______ _____ _____    ______ ____
ROOT
ATOM      1  C   UNL     1       3.140   7.102  17.986  0.00  0.00    +0.000 A 
ATOM      2  C   UNL     1       4.264   7.623  17.335  0.00  0.00    +0.000 A 
ATOM      3  N   UNL     1       5.137   6.903  16.585  0.00  0.00    +0.000 NA
ATOM      4  C   UNL     1       4.887   5.584  16.479  0.00  0.00    +0.000 A 
ATOM      5 CL   UNL     1       6.006   4.751  15.474  0.00  0.00    +0.000 Cl
ATOM      6  C   UNL     1       3.806   4.941  17.083  0.00  0.00    +0.000 A 
ATOM      7  C   UNL     1       2.930   5.724  17.839  0.00  0.00    +0.000 A 
ENDROOT
BRANCH   1  16
ATOM      8  C   UNL     1       1.798   6.592  20.952  0.00  0.00    +0.000 C 
ATOM      9  C   UNL     1       1.652   7.762  20.040  0.00  0.00    +0.000 A 
ATOM     10  N   UNL     1       0.874   8.829  20.494  0.00  0.00    +0.000 NA
ATOM     11  C   UNL     1       0.929   9.822  19.642  0.00  0.00    +0.000 A 
ATOM     12  N   UNL     1       0.315  11.028  19.889  0.00  0.00    +0.000 N 
ATOM     13  C   UNL     1       0.564  12.209  19.221  0.00  0.00    +0.000 C 
ATOM     14  O   UNL     1       1.395  12.362  18.322  0.00  0.00    +0.000 OA
ATOM     15  S   UNL     1       1.748   9.492  18.193  0.00  0.00    +0.000 S 
ATOM     16  C   UNL     1       2.241   7.949  18.791  0.00  0.00    +0.000 A 
ATOM     17  H   UNL     1      -0.226  11.030  20.743  0.00  0.00    +0.000 HD
BRANCH  13  18
ATOM     18  C   UNL     1      -0.286  13.432  19.701  0.00  0.00    +0.000 C 
ATOM     19  C   UNL     1      -1.662  12.980  20.192  0.00  0.00    +0.000 C 
ATOM     20  C   UNL     1       0.448  14.228  20.783  0.00  0.00    +0.000 C 
BRANCH  18  21
ATOM     21  N   UNL     1      -0.497  14.343  18.545  0.00  0.00    +0.000 NA
ATOM     22  H   UNL     1      -0.582  15.295  18.912  0.00  0.00    +0.000 HD
ATOM     23  H   UNL     1      -1.434  14.162  18.175  0.00  0.00    +0.000 HD
ENDBRANCH  18  21
ENDBRANCH  13  18
ENDBRANCH   1  16
BRANCH   6  24
ATOM     24  N   UNL     1       3.581   3.527  17.005  0.00  0.00    +0.000 N 
ATOM     25  H   UNL     1       3.730   3.085  16.097  0.00  0.00    +0.000 HD
BRANCH  24  26
ATOM     26  S   UNL     1       4.159   2.555  18.270  0.00  0.00    +0.000 S 
ATOM     27  O   UNL     1       4.178   1.178  17.822  0.00  0.00    +0.000 OA
ATOM     28  O   UNL     1       5.355   3.204  18.761  0.00  0.00    +0.000 OA
BRANCH  26  29
ATOM     29  C   UNL     1       2.914   2.709  19.532  0.00  0.00    +0.000 A 
ATOM     30  C   UNL     1       1.568   2.835  19.174  0.00  0.00    +0.000 A 
ATOM     31  C   UNL     1       0.602   2.963  20.173  0.00  0.00    +0.000 A 
ATOM     32  C   UNL     1       0.974   2.950  21.518  0.00  0.00    +0.000 A 
ATOM     33  C   UNL     1       2.315   2.794  21.871  0.00  0.00    +0.000 A 
ATOM     34  C   UNL     1       3.290   2.662  20.879  0.00  0.00    +0.000 A 
ENDBRANCH  26  29
ENDBRANCH  24  26
ENDBRANCH   6  24
TORSDOF 6
ENDMDL
MODEL 4
REMARK VINA RESULT:      -7.5      3.007      4.871
REMARK  Name = 
REMARK  9 active torsions:
REMARK  status: ('A' for Active; 'I' for Inactive)
REMARK    1  A    between atoms: C_1  and  C_2
REMARK    2  A    between atoms: C_6  and  C_8
REMARK    3  A    between atoms: C_8  and  C_9
REMARK    4  A    between atoms: C_8  and  C_10
REMARK    5  A    between atoms: C_8  and  N_11
REMARK    6  A    between atoms: C_13  and  C_14
REMARK    7  A    between atoms: C_19  and  N_20
REMARK    8  A    between atoms: N_20  and  S_21
REMARK    9  A    between atoms: S_21  and  C_24
REMARK                            x       y       z     vdW  Elec       q    Type
REMARK                         _______ _______ _______ _____ _____    ______ ____
ROOT
ATOM      1  C   UNL     1       2.258   6.305  20.117  0.00  0.00    +0.000 A 
ATOM      2  C   UNL     1       1.557   5.356  20.871  0.00  0.00    +0.000 A 
ATOM      3  N   UNL     1       1.910   4.053  21.012  0.00  0.00    +0.000 NA
ATOM      4  C   UNL     1       3.023   3.662  20.360  0.00  0.00    +0.000 A 
ATOM      5 CL   UNL     1       3.431   2.014  20.627  0.00  0.00    +0.000 Cl
ATOM      6  C   UNL     1       3.806   4.506  19.573  0.00  0.00    +0.000 A 
ATOM      7  C   UNL     1       3.407   5.841  19.464  0.00  0.00    +0.000 A 
ENDROOT
BRANCH   1  16
ATOM      8  C   UNL     1       2.322   8.383  17.562  0.00  0.00    +0.000 C 
ATOM      9  C   UNL     1       1.824   8.610  18.949  0.00  0.00    +0.000 A 
ATOM     10  N   UNL     1       1.261   9.857  19.227  0.00  0.00    +0.000 NA
ATOM     11  C   UNL     1       0.771   9.870  20.440  0.00  0.00    +0.000 A 
ATOM     12  N   UNL     1       0.087  10.956  20.938  0.00  0.00    +0.000 N 
ATOM     13  C   UNL     1      -0.717  10.955  22.059  0.00  0.00    +0.000 C 
ATOM     14  O   UNL     1      -0.963   9.973  22.764  0.00  0.00    +0.000 OA
ATOM     15  S   UNL     1       1.096   8.490  21.371  0.00  0.00    +0.000 S 
ATOM     16  C   UNL     1       1.805   7.704  20.007  0.00  0.00    +0.000 A 
ATOM     17  H   UNL     1       0.074  11.742  20.302  0.00  0.00    +0.000 HD
BRANCH  13  18
ATOM     18  C   UNL     1      -1.369  12.335  22.406  0.00  0.00    +0.000 C 
ATOM     19  C   UNL     1      -1.642  13.143  21.136  0.00  0.00    +0.000 C 
ATOM     20  C   UNL     1      -2.650  12.154  23.225  0.00  0.00    +0.000 C 
BRANCH  18  21
ATOM     21  N   UNL     1      -0.415  13.112  23.239  0.00  0.00    +0.000 NA
ATOM     22  H   UNL     1      -0.954  13.581  23.973  0.00  0.00    +0.000 HD
ATOM     23  H   UNL     1      -0.078  13.897  22.673  0.00  0.00    +0.000 HD
ENDBRANCH  18  21
ENDBRANCH  13  18
ENDBRANCH   1  16
BRANCH   6  24
ATOM     24  N   UNL     1       4.958   4.065  18.842  0.00  0.00    +0.000 N 
ATOM     25  H   UNL     1       5.124   3.058  18.805  0.00  0.00    +0.000 HD
BRANCH  24  26
ATOM     26  S   UNL     1       5.288   4.802  17.350  0.00  0.00    +0.000 S 
ATOM     27  O   UNL     1       5.932   3.831  16.488  0.00  0.00    +0.000 OA
ATOM     28  O   UNL     1       4.067   5.469  16.953  0.00  0.00    +0.000 OA
BRANCH  26  29
ATOM     29  C   UNL     1       6.478   6.063  17.749  0.00  0.00    +0.000 A 
ATOM     30  C   UNL     1       6.439   7.294  17.089  0.00  0.00    +0.000 A 
ATOM     31  C   UNL     1       7.384   8.273  17.405  0.00  0.00    +0.000 A 
ATOM     32  C   UNL     1       8.348   8.029  18.383  0.00  0.00    +0.000 A 
ATOM     33  C   UNL     1       8.365   6.809  19.061  0.00  0.00    +0.000 A 
ATOM     34  C   UNL     1       7.423   5.825  18.754  0.00  0.00    +0.000 A 
ENDBRANCH  26  29
ENDBRANCH  24  26
ENDBRANCH   6  24
TORSDOF 6
ENDMDL
MODEL 5
REMARK VINA RESULT:      -7.4      3.012      4.955
REMARK  Name = 
REMARK  9 active torsions:
REMARK  status: ('A' for Active; 'I' for Inactive)
REMARK    1  A    between atoms: C_1  and  C_2
REMARK    2  A    between atoms: C_6  and  C_8
REMARK    3  A    between atoms: C_8  and  C_9
REMARK    4  A    between atoms: C_8  and  C_10
REMARK    5  A    between atoms: C_8  and  N_11
REMARK    6  A    between atoms: C_13  and  C_14
REMARK    7  A    between atoms: C_19  and  N_20
REMARK    8  A    between atoms: N_20  and  S_21
REMARK    9  A    between atoms: S_21  and  C_24
REMARK                            x       y       z     vdW  Elec       q    Type
REMARK                         _______ _______ _______ _____ _____    ______ ____
ROOT
ATOM      1  C   UNL     1       2.149   6.745  19.977  0.00  0.00    +0.000 A 
ATOM      2  C   UNL     1       1.840   5.863  21.020  0.00  0.00    +0.000 A 
ATOM      3  N   UNL     1       2.270   4.579  21.111  0.00  0.00    +0.000 NA
ATOM      4  C   UNL     1       3.049   4.137  20.105  0.00  0.00    +0.000 A 
ATOM      5 CL   UNL     1       3.593   2.520  20.318  0.00  0.00    +0.000 Cl
ATOM      6  C   UNL     1       3.425   4.911  19.008  0.00  0.00    +0.000 A 
ATOM      7  C   UNL     1       2.964   6.230  18.960  0.00  0.00    +0.000 A 
ENDROOT
BRANCH   1  16
ATOM      8  C   UNL     1       2.005   8.921  17.507  0.00  0.00    +0.000 C 
ATOM      9  C   UNL     1       1.567   9.073  18.924  0.00  0.00    +0.000 A 
ATOM     10  N   UNL     1       0.969  10.284  19.278  0.00  0.00    +0.000 NA
ATOM     11  C   UNL     1       0.538  10.230  20.513  0.00  0.00    +0.000 A 
ATOM     12  N   UNL     1      -0.163  11.266  21.086  0.00  0.00    +0.000 N 
ATOM     13  C   UNL     1      -0.911  11.189  22.243  0.00  0.00    +0.000 C 
ATOM     14  O   UNL     1      -1.083  10.171  22.918  0.00  0.00    +0.000 OA
ATOM     15  S   UNL     1       0.964   8.829  21.371  0.00  0.00    +0.000 S 
ATOM     16  C   UNL     1       1.636   8.127  19.944  0.00  0.00    +0.000 A 
ATOM     17  H   UNL     1      -0.239  12.074  20.483  0.00  0.00    +0.000 HD
BRANCH  13  18
ATOM     18  C   UNL     1      -1.600  12.526  22.675  0.00  0.00    +0.000 C 
ATOM     19  C   UNL     1      -2.002  13.352  21.452  0.00  0.00    +0.000 C 
ATOM     20  C   UNL     1      -2.807  12.261  23.578  0.00  0.00    +0.000 C 
BRANCH  18  21
ATOM     21  N   UNL     1      -0.625  13.327  23.459  0.00  0.00    +0.000 NA
ATOM     22  H   UNL     1      -0.893  14.312  23.376  0.00  0.00    +0.000 HD
ATOM     23  H   UNL     1       0.271  13.297  22.964  0.00  0.00    +0.000 HD
ENDBRANCH  18  21
ENDBRANCH  13  18
ENDBRANCH   1  16
BRANCH   6  24
ATOM     24  N   UNL     1       4.211   4.412  17.917  0.00  0.00    +0.000 N 
ATOM     25  H   UNL     1       3.728   4.260  17.032  0.00  0.00    +0.000 HD
BRANCH  24  26
ATOM     26  S   UNL     1       5.754   5.074  17.676  0.00  0.00    +0.000 S 
ATOM     27  O   UNL     1       5.675   6.508  17.866  0.00  0.00    +0.000 OA
ATOM     28  O   UNL     1       6.666   4.261  18.451  0.00  0.00    +0.000 OA
BRANCH  26  29
ATOM     29  C   UNL     1       6.091   4.762  15.957  0.00  0.00    +0.000 A 
ATOM     30  C   UNL     1       7.305   5.172  15.398  0.00  0.00    +0.000 A 
ATOM     31  C   UNL     1       7.554   4.928  14.046  0.00  0.00    +0.000 A 
ATOM     32  C   UNL     1       6.606   4.266  13.264  0.00  0.00    +0.000 A 
ATOM     33  C   UNL     1       5.408   3.831  13.835  0.00  0.00    +0.000 A 
ATOM     34  C   UNL     1       5.151   4.068  15.187  0.00  0.00    +0.000 A 
ENDBRANCH  26  29
ENDBRANCH  24  26
ENDBRANCH   6  24
TORSDOF 6
ENDMDL
MODEL 6
REMARK VINA RESULT:      -7.4      2.714      4.751
REMARK  Name = 
REMARK  9 active torsions:
REMARK  status: ('A' for Active; 'I' for Inactive)
REMARK    1  A    between atoms: C_1  and  C_2
REMARK    2  A    between atoms: C_6  and  C_8
REMARK    3  A    between atoms: C_8  and  C_9
REMARK    4  A    between atoms: C_8  and  C_10
REMARK    5  A    between atoms: C_8  and  N_11
REMARK    6  A    between atoms: C_13  and  C_14
REMARK    7  A    between atoms: C_19  and  N_20
REMARK    8  A    between atoms: N_20  and  S_21
REMARK    9  A    between atoms: S_21  and  C_24
REMARK                            x       y       z     vdW  Elec       q    Type
REMARK                         _______ _______ _______ _____ _____    ______ ____
ROOT
ATOM      1  C   UNL     1       2.046   6.673  20.221  0.00  0.00    +0.000 A 
ATOM      2  C   UNL     1       1.451   5.745  21.083  0.00  0.00    +0.000 A 
ATOM      3  N   UNL     1       1.826   4.446  21.214  0.00  0.00    +0.000 NA
ATOM      4  C   UNL     1       2.848   4.039  20.437  0.00  0.00    +0.000 A 
ATOM      5 CL   UNL     1       3.294   2.398  20.695  0.00  0.00    +0.000 Cl
ATOM      6  C   UNL     1       3.520   4.861  19.533  0.00  0.00    +0.000 A 
ATOM      7  C   UNL     1       3.105   6.192  19.439  0.00  0.00    +0.000 A 
ENDROOT
BRANCH   1  16
ATOM      8  C   UNL     1       1.990   8.754  17.667  0.00  0.00    +0.000 C 
ATOM      9  C   UNL     1       1.545   8.975  19.073  0.00  0.00    +0.000 A 
ATOM     10  N   UNL     1       0.983  10.217  19.375  0.00  0.00    +0.000 NA
ATOM     11  C   UNL     1       0.541  10.224  20.607  0.00  0.00    +0.000 A 
ATOM     12  N   UNL     1      -0.133  11.303  21.133  0.00  0.00    +0.000 N 
ATOM     13  C   UNL     1      -0.892  11.294  22.285  0.00  0.00    +0.000 C 
ATOM     14  O   UNL     1      -1.100  10.309  22.998  0.00  0.00    +0.000 OA
ATOM     15  S   UNL     1       0.915   8.845  21.522  0.00  0.00    +0.000 S 
ATOM     16  C   UNL     1       1.577   8.068  20.130  0.00  0.00    +0.000 A 
ATOM     17  H   UNL     1      -0.178  12.089  20.499  0.00  0.00    +0.000 HD
BRANCH  13  18
ATOM     18  C   UNL     1      -1.542  12.667  22.659  0.00  0.00    +0.000 C 
ATOM     19  C   UNL     1      -1.907  13.458  21.402  0.00  0.00    +0.000 C 
ATOM     20  C   UNL     1      -2.765  12.475  23.560  0.00  0.00    +0.000 C 
BRANCH  18  21
ATOM     21  N   UNL     1      -0.549  13.467  23.422  0.00  0.00    +0.000 NA
ATOM     22  H   UNL     1      -0.503  14.396  22.994  0.00  0.00    +0.000 HD
ATOM     23  H   UNL     1       0.379  13.082  23.222  0.00  0.00    +0.000 HD
ENDBRANCH  18  21
ENDBRANCH  13  18
ENDBRANCH   1  16
BRANCH   6  24
ATOM     24  N   UNL     1       4.573   4.400  18.674  0.00  0.00    +0.000 N 
ATOM     25  H   UNL     1       5.394   3.996  19.126  0.00  0.00    +0.000 HD
BRANCH  24  26
ATOM     26  S   UNL     1       4.144   3.536  17.279  0.00  0.00    +0.000 S 
ATOM     27  O   UNL     1       4.334   2.123  17.535  0.00  0.00    +0.000 OA
ATOM     28  O   UNL     1       2.862   4.060  16.860  0.00  0.00    +0.000 OA
BRANCH  26  29
ATOM     29  C   UNL     1       5.348   4.046  16.072  0.00  0.00    +0.000 A 
ATOM     30  C   UNL     1       6.482   4.757  16.474  0.00  0.00    +0.000 A 
ATOM     31  C   UNL     1       7.415   5.159  15.516  0.00  0.00    +0.000 A 
ATOM     32  C   UNL     1       7.225   4.839  14.171  0.00  0.00    +0.000 A 
ATOM     33  C   UNL     1       6.106   4.103  13.779  0.00  0.00    +0.000 A 
ATOM     34  C   UNL     1       5.168   3.694  14.729  0.00  0.00    +0.000 A 
ENDBRANCH  26  29
ENDBRANCH  24  26
ENDBRANCH   6  24
TORSDOF 6
ENDMDL
MODEL 7
REMARK VINA RESULT:      -7.4      3.031      4.116
REMARK  Name = 
REMARK  9 active torsions:
REMARK  status: ('A' for Active; 'I' for Inactive)
REMARK    1  A    between atoms: C_1  and  C_2
REMARK    2  A    between atoms: C_6  and  C_8
REMARK    3  A    between atoms: C_8  and  C_9
REMARK    4  A    between atoms: C_8  and  C_10
REMARK    5  A    between atoms: C_8  and  N_11
REMARK    6  A    between atoms: C_13  and  C_14
REMARK    7  A    between atoms: C_19  and  N_20
REMARK    8  A    between atoms: N_20  and  S_21
REMARK    9  A    between atoms: S_21  and  C_24
REMARK                            x       y       z     vdW  Elec       q    Type
REMARK                         _______ _______ _______ _____ _____    ______ ____
ROOT
ATOM      1  C   UNL     1       1.270   8.824  19.030  0.00  0.00    +0.000 A 
ATOM      2  C   UNL     1       1.985   8.795  17.826  0.00  0.00    +0.000 A 
ATOM      3  N   UNL     1       2.937   7.882  17.505  0.00  0.00    +0.000 NA
ATOM      4  C   UNL     1       3.203   6.944  18.434  0.00  0.00    +0.000 A 
ATOM      5 CL   UNL     1       4.382   5.797  17.933  0.00  0.00    +0.000 Cl
ATOM      6  C   UNL     1       2.567   6.867  19.672  0.00  0.00    +0.000 A 
ATOM      7  C   UNL     1       1.589   7.823  19.957  0.00  0.00    +0.000 A 
ENDROOT
BRANCH   1  16
ATOM      8  C   UNL     1      -1.368   9.761  17.292  0.00  0.00    +0.000 C 
ATOM      9  C   UNL     1      -0.866  10.280  18.597  0.00  0.00    +0.000 A 
ATOM     10  N   UNL     1      -1.620  11.278  19.217  0.00  0.00    +0.000 NA
ATOM     11  C   UNL     1      -1.122  11.552  20.396  0.00  0.00    +0.000 A 
ATOM     12  N   UNL     1      -1.724  12.445  21.252  0.00  0.00    +0.000 N 
ATOM     13  C   UNL     1      -1.463  12.570  22.601  0.00  0.00    +0.000 C 
ATOM     14  O   UNL     1      -0.669  11.877  23.243  0.00  0.00    +0.000 OA
ATOM     15  S   UNL     1       0.346  10.783  20.762  0.00  0.00    +0.000 S 
ATOM     16  C   UNL     1       0.253   9.855  19.309  0.00  0.00    +0.000 A 
ATOM     17  H   UNL     1      -2.529  12.903  20.845  0.00  0.00    +0.000 HD
BRANCH  13  18
ATOM     18  C   UNL     1      -2.289  13.677  23.335  0.00  0.00    +0.000 C 
ATOM     19  C   UNL     1      -3.412  13.058  24.168  0.00  0.00    +0.000 C 
ATOM     20  C   UNL     1      -1.386  14.559  24.202  0.00  0.00    +0.000 C 
BRANCH  18  21
ATOM     21  N   UNL     1      -2.916  14.554  22.312  0.00  0.00    +0.000 NA
ATOM     22  H   UNL     1      -3.498  13.963  21.711  0.00  0.00    +0.000 HD
ATOM     23  H   UNL     1      -2.177  14.863  21.674  0.00  0.00    +0.000 HD
ENDBRANCH  18  21
ENDBRANCH  13  18
ENDBRANCH   1  16
BRANCH   6  24
ATOM     24  N   UNL     1       2.897   5.894  20.674  0.00  0.00    +0.000 N 
ATOM     25  H   UNL     1       3.176   6.251  21.589  0.00  0.00    +0.000 HD
BRANCH  24  26
ATOM     26  S   UNL     1       1.904   4.526  20.817  0.00  0.00    +0.000 S 
ATOM     27  O   UNL     1       2.127   3.929  22.118  0.00  0.00    +0.000 OA
ATOM     28  O   UNL     1       0.584   4.943  20.395  0.00  0.00    +0.000 OA
BRANCH  26  29
ATOM     29  C   UNL     1       2.530   3.410  19.581  0.00  0.00    +0.000 A 
ATOM     30  C   UNL     1       1.949   3.379  18.310  0.00  0.00    +0.000 A 
ATOM     31  C   UNL     1       2.444   2.493  17.351  0.00  0.00    +0.000 A 
ATOM     32  C   UNL     1       3.520   1.658  17.654  0.00  0.00    +0.000 A 
ATOM     33  C   UNL     1       4.117   1.715  18.915  0.00  0.00    +0.000 A 
ATOM     34  C   UNL     1       3.631   2.599  19.880  0.00  0.00    +0.000 A 
ENDBRANCH  26  29
ENDBRANCH  24  26
ENDBRANCH   6  24
TORSDOF 6
ENDMDL
MODEL 8
REMARK VINA RESULT:      -7.3      2.890      4.664
REMARK  Name = 
REMARK  9 active torsions:
REMARK  status: ('A' for Active; 'I' for Inactive)
REMARK    1  A    between atoms: C_1  and  C_2
REMARK    2  A    between atoms: C_6  and  C_8
REMARK    3  A    between atoms: C_8  and  C_9
REMARK    4  A    between atoms: C_8  and  C_10
REMARK    5  A    between atoms: C_8  and  N_11
REMARK    6  A    between atoms: C_13  and  C_14
REMARK    7  A    between atoms: C_19  and  N_20
REMARK    8  A    between atoms: N_20  and  S_21
REMARK    9  A    between atoms: S_21  and  C_24
REMARK                            x       y       z     vdW  Elec       q    Type
REMARK                         _______ _______ _______ _____ _____    ______ ____
ROOT
ATOM      1  C   UNL     1       2.574   5.976  19.956  0.00  0.00    +0.000 A 
ATOM      2  C   UNL     1       2.033   5.102  20.906  0.00  0.00    +0.000 A 
ATOM      3  N   UNL     1       2.421   3.815  21.095  0.00  0.00    +0.000 NA
ATOM      4  C   UNL     1       3.401   3.362  20.289  0.00  0.00    +0.000 A 
ATOM      5 CL   UNL     1       3.870   1.742  20.622  0.00  0.00    +0.000 Cl
ATOM      6  C   UNL     1       4.017   4.128  19.300  0.00  0.00    +0.000 A 
ATOM      7  C   UNL     1       3.590   5.449  19.147  0.00  0.00    +0.000 A 
ENDROOT
BRANCH   1  16
ATOM      8  C   UNL     1       2.666   8.009  17.364  0.00  0.00    +0.000 C 
ATOM      9  C   UNL     1       2.122   8.249  18.731  0.00  0.00    +0.000 A 
ATOM     10  N   UNL     1       1.523   9.487  18.970  0.00  0.00    +0.000 NA
ATOM     11  C   UNL     1       0.996   9.510  20.168  0.00  0.00    +0.000 A 
ATOM     12  N   UNL     1       0.273  10.588  20.625  0.00  0.00    +0.000 N 
ATOM     13  C   UNL     1      -0.564  10.589  21.722  0.00  0.00    +0.000 C 
ATOM     14  O   UNL     1      -0.807   9.614  22.437  0.00  0.00    +0.000 OA
ATOM     15  S   UNL     1       1.326   8.155  21.133  0.00  0.00    +0.000 S 
ATOM     16  C   UNL     1       2.093   7.362  19.806  0.00  0.00    +0.000 A 
ATOM     17  H   UNL     1       0.261  11.362  19.974  0.00  0.00    +0.000 HD
BRANCH  13  18
ATOM     18  C   UNL     1      -1.257  11.959  22.023  0.00  0.00    +0.000 C 
ATOM     19  C   UNL     1      -2.012  12.470  20.795  0.00  0.00    +0.000 C 
ATOM     20  C   UNL     1      -2.188  11.856  23.234  0.00  0.00    +0.000 C 
BRANCH  18  21
ATOM     21  N   UNL     1      -0.207  12.957  22.354  0.00  0.00    +0.000 NA
ATOM     22  H   UNL     1       0.567  12.457  22.802  0.00  0.00    +0.000 HD
ATOM     23  H   UNL     1      -0.565  13.542  23.116  0.00  0.00    +0.000 HD
ENDBRANCH  18  21
ENDBRANCH  13  18
ENDBRANCH   1  16
BRANCH   6  24
ATOM     24  N   UNL     1       5.022   3.617  18.412  0.00  0.00    +0.000 N 
ATOM     25  H   UNL     1       5.000   2.615  18.219  0.00  0.00    +0.000 HD
BRANCH  24  26
ATOM     26  S   UNL     1       5.384   4.511  17.017  0.00  0.00    +0.000 S 
ATOM     27  O   UNL     1       6.098   3.654  16.093  0.00  0.00    +0.000 OA
ATOM     28  O   UNL     1       4.156   5.173  16.634  0.00  0.00    +0.000 OA
BRANCH  26  29
ATOM     29  C   UNL     1       6.508   5.765  17.590  0.00  0.00    +0.000 A 
ATOM     30  C   UNL     1       7.362   5.498  18.664  0.00  0.00    +0.000 A 
ATOM     31  C   UNL     1       8.234   6.493  19.111  0.00  0.00    +0.000 A 
ATOM     32  C   UNL     1       8.264   7.737  18.479  0.00  0.00    +0.000 A 
ATOM     33  C   UNL     1       7.431   7.988  17.388  0.00  0.00    +0.000 A 
ATOM     34  C   UNL     1       6.557   6.999  16.932  0.00  0.00    +0.000 A 
ENDBRANCH  26  29
ENDBRANCH  24  26
ENDBRANCH   6  24
TORSDOF 6
ENDMDL
MODEL 9
REMARK VINA RESULT:      -7.1      2.991      4.856
REMARK  Name = 
REMARK  9 active torsions:
REMARK  status: ('A' for Active; 'I' for Inactive)
REMARK    1  A    between atoms: C_1  and  C_2
REMARK    2  A    between atoms: C_6  and  C_8
REMARK    3  A    between atoms: C_8  and  C_9
REMARK    4  A    between atoms: C_8  and  C_10
REMARK    5  A    between atoms: C_8  and  N_11
REMARK    6  A    between atoms: C_13  and  C_14
REMARK    7  A    between atoms: C_19  and  N_20
REMARK    8  A    between atoms: N_20  and  S_21
REMARK    9  A    between atoms: S_21  and  C_24
REMARK                            x       y       z     vdW  Elec       q    Type
REMARK                         _______ _______ _______ _____ _____    ______ ____
ROOT
ATOM      1  C   UNL     1       2.614   5.927  19.903  0.00  0.00    +0.000 A 
ATOM      2  C   UNL     1       1.848   4.914  20.493  0.00  0.00    +0.000 A 
ATOM      3  N   UNL     1       2.231   3.618  20.620  0.00  0.00    +0.000 NA
ATOM      4  C   UNL     1       3.444   3.302  20.126  0.00  0.00    +0.000 A 
ATOM      5 CL   UNL     1       3.877   1.656  20.369  0.00  0.00    +0.000 Cl
ATOM      6  C   UNL     1       4.300   4.215  19.510  0.00  0.00    +0.000 A 
ATOM      7  C   UNL     1       3.866   5.540  19.409  0.00  0.00    +0.000 A 
ENDROOT
BRANCH   1  16
ATOM      8  C   UNL     1       2.618   8.011  17.351  0.00  0.00    +0.000 C 
ATOM      9  C   UNL     1       2.117   8.222  18.739  0.00  0.00    +0.000 A 
ATOM     10  N   UNL     1       1.522   9.453  19.020  0.00  0.00    +0.000 NA
ATOM     11  C   UNL     1       1.034   9.452  20.235  0.00  0.00    +0.000 A 
ATOM     12  N   UNL     1       0.323  10.518  20.736  0.00  0.00    +0.000 N 
ATOM     13  C   UNL     1      -0.479  10.495  21.858  0.00  0.00    +0.000 C 
ATOM     14  O   UNL     1      -0.697   9.505  22.561  0.00  0.00    +0.000 OA
ATOM     15  S   UNL     1       1.397   8.079  21.162  0.00  0.00    +0.000 S 
ATOM     16  C   UNL     1       2.124   7.314  19.796  0.00  0.00    +0.000 A 
ATOM     17  H   UNL     1       0.288  11.304  20.101  0.00  0.00    +0.000 HD
BRANCH  13  18
ATOM     18  C   UNL     1      -1.166  11.856  22.208  0.00  0.00    +0.000 C 
ATOM     19  C   UNL     1      -1.774  12.497  20.959  0.00  0.00    +0.000 C 
ATOM     20  C   UNL     1      -2.222  11.680  23.303  0.00  0.00    +0.000 C 
BRANCH  18  21
ATOM     21  N   UNL     1      -0.133  12.785  22.733  0.00  0.00    +0.000 NA
ATOM     22  H   UNL     1       0.066  12.515  23.701  0.00  0.00    +0.000 HD
ATOM     23  H   UNL     1      -0.570  13.705  22.844  0.00  0.00    +0.000 HD
ENDBRANCH  18  21
ENDBRANCH  13  18
ENDBRANCH   1  16
BRANCH   6  24
ATOM     24  N   UNL     1       5.567   3.855  18.942  0.00  0.00    +0.000 N 
ATOM     25  H   UNL     1       5.604   2.983  18.413  0.00  0.00    +0.000 HD
BRANCH  24  26
ATOM     26  S   UNL     1       6.482   5.073  18.195  0.00  0.00    +0.000 S 
ATOM     27  O   UNL     1       5.840   6.348  18.440  0.00  0.00    +0.000 OA
ATOM     28  O   UNL     1       7.856   4.834  18.579  0.00  0.00    +0.000 OA
BRANCH  26  29
ATOM     29  C   UNL     1       6.343   4.708  16.459  0.00  0.00    +0.000 A 
ATOM     30  C   UNL     1       5.206   4.060  15.970  0.00  0.00    +0.000 A 
ATOM     31  C   UNL     1       5.113   3.772  14.607  0.00  0.00    +0.000 A 
ATOM     32  C   UNL     1       6.139   4.143  13.738  0.00  0.00    +0.000 A 
ATOM     33  C   UNL     1       7.260   4.818  14.226  0.00  0.00    +0.000 A 
ATOM     34  C   UNL     1       7.361   5.112  15.587  0.00  0.00    +0.000 A 
ENDBRANCH  26  29
ENDBRANCH  24  26
ENDBRANCH   6  24
TORSDOF 6
ENDMDL
