MODEL 1
REMARK VINA RESULT:      -8.2      0.000      0.000
REMARK  Name = 
REMARK  2 active torsions:
REMARK  status: ('A' for Active; 'I' for Inactive)
REMARK    1  A    between atoms: C_2  and  C_18
REMARK    2  A    between atoms: N_3  and  C_4
REMARK                            x       y       z     vdW  Elec       q    Type
REMARK                         _______ _______ _______ _____ _____    ______ ____
ROOT
ATOM      1  C   UNL     1       0.982  10.680  18.924  0.00  0.00    +0.000 C 
ATOM      2  C   UNL     1       1.182  11.715  20.058  0.00  0.00    +0.000 C 
ATOM      3  C   UNL     1       0.141  11.546  21.185  0.00  0.00    +0.000 C 
ATOM      4  C   UNL     1      -1.317  11.673  20.698  0.00  0.00    +0.000 C 
ATOM      5  C   UNL     1      -1.495  11.186  19.298  0.00  0.00    +0.000 A 
ATOM      6  C   UNL     1      -0.450  10.730  18.519  0.00  0.00    +0.000 A 
ATOM      7  N   UNL     1      -0.928  10.468  17.265  0.00  0.00    +0.000 N 
ATOM      8  C   UNL     1      -2.265  10.808  17.197  0.00  0.00    +0.000 A 
ATOM      9  C   UNL     1      -3.145  10.800  16.107  0.00  0.00    +0.000 A 
ATOM     10  C   UNL     1      -4.454  11.245  16.325  0.00  0.00    +0.000 A 
ATOM     11  C   UNL     1      -4.860  11.670  17.588  0.00  0.00    +0.000 A 
ATOM     12 BR   UNL     1      -6.634  12.280  17.841  0.00  0.00    +0.000 Br
ATOM     13  C   UNL     1      -3.976  11.674  18.670  0.00  0.00    +0.000 A 
ATOM     14  C   UNL     1      -2.650  11.240  18.470  0.00  0.00    +0.000 A 
ATOM     15  H   UNL     1      -0.374  10.156  16.479  0.00  0.00    +0.000 HD
ENDROOT
BRANCH   1  18
ATOM     16  O   UNL     1       2.349   8.820  17.380  0.00  0.00    +0.000 OA
ATOM     17  C   UNL     1       1.986   8.485  18.501  0.00  0.00    +0.000 C 
ATOM     18  N   UNL     1       1.286   9.325  19.343  0.00  0.00    +0.000 N 
ATOM     19  H   UNL     1       1.224   9.111  20.330  0.00  0.00    +0.000 HD
BRANCH  17  20
ATOM     20  C   UNL     1       2.311   7.115  18.997  0.00  0.00    +0.000 A 
ATOM     21  C   UNL     1       2.948   6.229  18.111  0.00  0.00    +0.000 A 
ATOM     22  C   UNL     1       3.165   4.898  18.474  0.00  0.00    +0.000 A 
ATOM     23  C   UNL     1       2.742   4.455  19.721  0.00  0.00    +0.000 A 
ATOM     24  F   UNL     1       2.908   3.168  20.055  0.00  0.00    +0.000 F 
ATOM     25  C   UNL     1       2.126   5.323  20.618  0.00  0.00    +0.000 A 
ATOM     26  C   UNL     1       1.911   6.660  20.260  0.00  0.00    +0.000 A 
ENDBRANCH  17  20
ENDBRANCH   1  18
TORSDOF 2
ENDMDL
MODEL 2
REMARK VINA RESULT:      -8.1      0.218      1.012
REMARK  Name = 
REMARK  2 active torsions:
REMARK  status: ('A' for Active; 'I' for Inactive)
REMARK    1  A    between atoms: C_2  and  C_18
REMARK    2  A    between atoms: N_3  and  C_4
REMARK                            x       y       z     vdW  Elec       q    Type
REMARK                         _______ _______ _______ _____ _____    ______ ____
ROOT
ATOM      1  C   UNL     1       1.043  10.542  18.887  0.00  0.00    +0.000 C 
ATOM      2  C   UNL     1       1.280  11.542  20.044  0.00  0.00    +0.000 C 
ATOM      3  C   UNL     1       0.252  11.365  21.181  0.00  0.00    +0.000 C 
ATOM      4  C   UNL     1      -1.210  11.535  20.719  0.00  0.00    +0.000 C 
ATOM      5  C   UNL     1      -1.418  11.090  19.309  0.00  0.00    +0.000 A 
ATOM      6  C   UNL     1      -0.394  10.632  18.503  0.00  0.00    +0.000 A 
ATOM      7  N   UNL     1      -0.894  10.413  17.250  0.00  0.00    +0.000 N 
ATOM      8  C   UNL     1      -2.224  10.782  17.210  0.00  0.00    +0.000 A 
ATOM      9  C   UNL     1      -3.119  10.822  16.133  0.00  0.00    +0.000 A 
ATOM     10  C   UNL     1      -4.415  11.288  16.381  0.00  0.00    +0.000 A 
ATOM     11  C   UNL     1      -4.795  11.688  17.660  0.00  0.00    +0.000 A 
ATOM     12 BR   UNL     1      -6.552  12.328  17.955  0.00  0.00    +0.000 Br
ATOM     13  C   UNL     1      -3.896  11.645  18.729  0.00  0.00    +0.000 A 
ATOM     14  C   UNL     1      -2.583  11.189  18.499  0.00  0.00    +0.000 A 
ATOM     15  H   UNL     1      -0.358  10.110  16.448  0.00  0.00    +0.000 HD
ENDROOT
BRANCH   1  18
ATOM     16  O   UNL     1       2.412   8.716  17.304  0.00  0.00    +0.000 OA
ATOM     17  C   UNL     1       2.027   8.349  18.408  0.00  0.00    +0.000 C 
ATOM     18  N   UNL     1       1.324   9.170  19.266  0.00  0.00    +0.000 N 
ATOM     19  H   UNL     1       1.243   8.925  20.244  0.00  0.00    +0.000 HD
BRANCH  17  20
ATOM     20  C   UNL     1       2.327   6.960  18.864  0.00  0.00    +0.000 A 
ATOM     21  C   UNL     1       1.946   6.600  20.168  0.00  0.00    +0.000 A 
ATOM     22  C   UNL     1       2.310   5.359  20.696  0.00  0.00    +0.000 A 
ATOM     23  C   UNL     1       3.056   4.482  19.920  0.00  0.00    +0.000 A 
ATOM     24  F   UNL     1       3.445   3.309  20.438  0.00  0.00    +0.000 F 
ATOM     25  C   UNL     1       3.426   4.814  18.620  0.00  0.00    +0.000 A 
ATOM     26  C   UNL     1       3.059   6.055  18.085  0.00  0.00    +0.000 A 
ENDBRANCH  17  20
ENDBRANCH   1  18
TORSDOF 2
ENDMDL
MODEL 3
REMARK VINA RESULT:      -7.5      0.920      1.410
REMARK  Name = 
REMARK  2 active torsions:
REMARK  status: ('A' for Active; 'I' for Inactive)
REMARK    1  A    between atoms: C_2  and  C_18
REMARK    2  A    between atoms: N_3  and  C_4
REMARK                            x       y       z     vdW  Elec       q    Type
REMARK                         _______ _______ _______ _____ _____    ______ ____
ROOT
ATOM      1  C   UNL     1       0.412  11.371  18.835  0.00  0.00    +0.000 C 
ATOM      2  C   UNL     1       0.718  12.358  19.987  0.00  0.00    +0.000 C 
ATOM      3  C   UNL     1      -0.163  12.092  21.226  0.00  0.00    +0.000 C 
ATOM      4  C   UNL     1      -1.675  12.181  20.934  0.00  0.00    +0.000 C 
ATOM      5  C   UNL     1      -2.013  11.754  19.544  0.00  0.00    +0.000 A 
ATOM      6  C   UNL     1      -1.062  11.380  18.616  0.00  0.00    +0.000 A 
ATOM      7  N   UNL     1      -1.686  11.158  17.421  0.00  0.00    +0.000 N 
ATOM      8  C   UNL     1      -3.032  11.444  17.539  0.00  0.00    +0.000 A 
ATOM      9  C   UNL     1      -4.043  11.452  16.570  0.00  0.00    +0.000 A 
ATOM     10  C   UNL     1      -5.328  11.831  16.974  0.00  0.00    +0.000 A 
ATOM     11  C   UNL     1      -5.585  12.177  18.298  0.00  0.00    +0.000 A 
ATOM     12 BR   UNL     1      -7.332  12.700  18.805  0.00  0.00    +0.000 Br
ATOM     13  C   UNL     1      -4.570  12.167  19.260  0.00  0.00    +0.000 A 
ATOM     14  C   UNL     1      -3.266  11.799  18.872  0.00  0.00    +0.000 A 
ATOM     15  H   UNL     1      -1.226  10.907  16.556  0.00  0.00    +0.000 HD
ENDROOT
BRANCH   1  18
ATOM     16  O   UNL     1       2.225   9.889  17.341  0.00  0.00    +0.000 OA
ATOM     17  C   UNL     1       1.737   9.370  18.338  0.00  0.00    +0.000 C 
ATOM     18  N   UNL     1       0.815  10.011  19.140  0.00  0.00    +0.000 N 
ATOM     19  H   UNL     1       0.628   9.662  20.070  0.00  0.00    +0.000 HD
BRANCH  17  20
ATOM     20  C   UNL     1       2.150   7.988  18.721  0.00  0.00    +0.000 A 
ATOM     21  C   UNL     1       1.792   7.526  19.999  0.00  0.00    +0.000 A 
ATOM     22  C   UNL     1       2.256   6.292  20.463  0.00  0.00    +0.000 A 
ATOM     23  C   UNL     1       3.078   5.525  19.648  0.00  0.00    +0.000 A 
ATOM     24  F   UNL     1       3.561   4.362  20.106  0.00  0.00    +0.000 F 
ATOM     25  C   UNL     1       3.428   5.959  18.373  0.00  0.00    +0.000 A 
ATOM     26  C   UNL     1       2.962   7.193  17.902  0.00  0.00    +0.000 A 
ENDBRANCH  17  20
ENDBRANCH   1  18
TORSDOF 2
ENDMDL
MODEL 4
REMARK VINA RESULT:      -7.2      8.103      9.508
REMARK  Name = 
REMARK  2 active torsions:
REMARK  status: ('A' for Active; 'I' for Inactive)
REMARK    1  A    between atoms: C_2  and  C_18
REMARK    2  A    between atoms: N_3  and  C_4
REMARK                            x       y       z     vdW  Elec       q    Type
REMARK                         _______ _______ _______ _____ _____    ______ ____
ROOT
ATOM      1  C   UNL     1       7.433   5.076  16.755  0.00  0.00    +0.000 C 
ATOM      2  C   UNL     1       7.279   4.701  15.261  0.00  0.00    +0.000 C 
ATOM      3  C   UNL     1       5.951   5.219  14.669  0.00  0.00    +0.000 C 
ATOM      4  C   UNL     1       4.703   4.692  15.407  0.00  0.00    +0.000 C 
ATOM      5  C   UNL     1       4.953   4.466  16.861  0.00  0.00    +0.000 A 
ATOM      6  C   UNL     1       6.186   4.657  17.454  0.00  0.00    +0.000 A 
ATOM      7  N   UNL     1       6.105   4.259  18.759  0.00  0.00    +0.000 N 
ATOM      8  C   UNL     1       4.847   3.749  19.012  0.00  0.00    +0.000 A 
ATOM      9  C   UNL     1       4.332   3.146  20.167  0.00  0.00    +0.000 A 
ATOM     10  C   UNL     1       3.015   2.676  20.123  0.00  0.00    +0.000 A 
ATOM     11  C   UNL     1       2.247   2.816  18.968  0.00  0.00    +0.000 A 
ATOM     12 BR   UNL     1       0.474   2.154  18.940  0.00  0.00    +0.000 Br
ATOM     13  C   UNL     1       2.769   3.419  17.820  0.00  0.00    +0.000 A 
ATOM     14  C   UNL     1       4.097   3.890  17.840  0.00  0.00    +0.000 A 
ATOM     15  H   UNL     1       6.871   4.254  19.420  0.00  0.00    +0.000 HD
ENDROOT
BRANCH   1  18
ATOM     16  O   UNL     1       8.233   6.241  19.146  0.00  0.00    +0.000 OA
ATOM     17  C   UNL     1       8.025   6.975  18.187  0.00  0.00    +0.000 C 
ATOM     18  N   UNL     1       7.608   6.502  16.959  0.00  0.00    +0.000 N 
ATOM     19  H   UNL     1       7.687   7.089  16.140  0.00  0.00    +0.000 HD
BRANCH  17  20
ATOM     20  C   UNL     1       8.232   8.446  18.331  0.00  0.00    +0.000 A 
ATOM     21  C   UNL     1       7.611   9.292  17.396  0.00  0.00    +0.000 A 
ATOM     22  C   UNL     1       7.867  10.665  17.403  0.00  0.00    +0.000 A 
ATOM     23  C   UNL     1       8.745  11.188  18.343  0.00  0.00    +0.000 A 
ATOM     24  F   UNL     1       9.027  12.498  18.324  0.00  0.00    +0.000 F 
ATOM     25  C   UNL     1       9.355  10.369  19.288  0.00  0.00    +0.000 A 
ATOM     26  C   UNL     1       9.097   8.992  19.288  0.00  0.00    +0.000 A 
ENDBRANCH  17  20
ENDBRANCH   1  18
TORSDOF 2
ENDMDL
MODEL 5
REMARK VINA RESULT:      -6.7      3.076      4.120
REMARK  Name = 
REMARK  2 active torsions:
REMARK  status: ('A' for Active; 'I' for Inactive)
REMARK    1  A    between atoms: C_2  and  C_18
REMARK    2  A    between atoms: N_3  and  C_4
REMARK                            x       y       z     vdW  Elec       q    Type
REMARK                         _______ _______ _______ _____ _____    ______ ____
ROOT
ATOM      1  C   UNL     1      -0.814  13.261  20.001  0.00  0.00    +0.000 C 
ATOM      2  C   UNL     1      -0.130  14.371  20.836  0.00  0.00    +0.000 C 
ATOM      3  C   UNL     1      -0.182  14.073  22.349  0.00  0.00    +0.000 C 
ATOM      4  C   UNL     1      -1.616  13.907  22.893  0.00  0.00    +0.000 C 
ATOM      5  C   UNL     1      -2.546  13.326  21.880  0.00  0.00    +0.000 A 
ATOM      6  C   UNL     1      -2.164  13.029  20.587  0.00  0.00    +0.000 A 
ATOM      7  N   UNL     1      -3.269  12.621  19.892  0.00  0.00    +0.000 N 
ATOM      8  C   UNL     1      -4.385  12.708  20.701  0.00  0.00    +0.000 A 
ATOM      9  C   UNL     1      -5.735  12.485  20.405  0.00  0.00    +0.000 A 
ATOM     10  C   UNL     1      -6.669  12.695  21.426  0.00  0.00    +0.000 A 
ATOM     11  C   UNL     1      -6.257  13.102  22.694  0.00  0.00    +0.000 A 
ATOM     12 BR   UNL     1      -7.549  13.391  24.047  0.00  0.00    +0.000 Br
ATOM     13  C   UNL     1      -4.908  13.322  22.982  0.00  0.00    +0.000 A 
ATOM     14  C   UNL     1      -3.952  13.127  21.964  0.00  0.00    +0.000 A 
ATOM     15  H   UNL     1      -3.289  12.376  18.911  0.00  0.00    +0.000 HD
ENDROOT
BRANCH   1  18
ATOM     16  O   UNL     1      -0.969  11.296  18.045  0.00  0.00    +0.000 OA
ATOM     17  C   UNL     1      -0.225  11.104  18.999  0.00  0.00    +0.000 C 
ATOM     18  N   UNL     1      -0.086  12.007  20.033  0.00  0.00    +0.000 N 
ATOM     19  H   UNL     1       0.703  11.936  20.661  0.00  0.00    +0.000 HD
BRANCH  17  20
ATOM     20  C   UNL     1       0.580   9.849  19.059  0.00  0.00    +0.000 A 
ATOM     21  C   UNL     1       0.729   9.223  20.309  0.00  0.00    +0.000 A 
ATOM     22  C   UNL     1       1.572   8.118  20.453  0.00  0.00    +0.000 A 
ATOM     23  C   UNL     1       2.264   7.643  19.347  0.00  0.00    +0.000 A 
ATOM     24  F   UNL     1       3.107   6.611  19.490  0.00  0.00    +0.000 F 
ATOM     25  C   UNL     1       2.114   8.238  18.098  0.00  0.00    +0.000 A 
ATOM     26  C   UNL     1       1.267   9.343  17.948  0.00  0.00    +0.000 A 
ENDBRANCH  17  20
ENDBRANCH   1  18
TORSDOF 2
ENDMDL
MODEL 6
REMARK VINA RESULT:      -6.6      4.693      7.629
REMARK  Name = 
REMARK  2 active torsions:
REMARK  status: ('A' for Active; 'I' for Inactive)
REMARK    1  A    between atoms: C_2  and  C_18
REMARK    2  A    between atoms: N_3  and  C_4
REMARK                            x       y       z     vdW  Elec       q    Type
REMARK                         _______ _______ _______ _____ _____    ______ ____
ROOT
ATOM      1  C   UNL     1       0.873  10.300  18.874  0.00  0.00    +0.000 C 
ATOM      2  C   UNL     1      -0.355  10.356  19.814  0.00  0.00    +0.000 C 
ATOM      3  C   UNL     1       0.006   9.954  21.260  0.00  0.00    +0.000 C 
ATOM      4  C   UNL     1       0.606   8.538  21.372  0.00  0.00    +0.000 C 
ATOM      5  C   UNL     1       1.394   8.155  20.163  0.00  0.00    +0.000 A 
ATOM      6  C   UNL     1       1.515   8.967  19.053  0.00  0.00    +0.000 A 
ATOM      7  N   UNL     1       2.201   8.283  18.089  0.00  0.00    +0.000 N 
ATOM      8  C   UNL     1       2.478   7.005  18.534  0.00  0.00    +0.000 A 
ATOM      9  C   UNL     1       3.075   5.926  17.870  0.00  0.00    +0.000 A 
ATOM     10  C   UNL     1       3.189   4.717  18.565  0.00  0.00    +0.000 A 
ATOM     11  C   UNL     1       2.729   4.603  19.875  0.00  0.00    +0.000 A 
ATOM     12 BR   UNL     1       2.886   2.947  20.779  0.00  0.00    +0.000 Br
ATOM     13  C   UNL     1       2.135   5.685  20.531  0.00  0.00    +0.000 A 
ATOM     14  C   UNL     1       2.000   6.909  19.845  0.00  0.00    +0.000 A 
ATOM     15  H   UNL     1       2.402   8.623  17.158  0.00  0.00    +0.000 HD
ENDROOT
BRANCH   1  18
ATOM     16  O   UNL     1       0.610  12.990  18.235  0.00  0.00    +0.000 OA
ATOM     17  C   UNL     1       1.621  12.634  18.828  0.00  0.00    +0.000 C 
ATOM     18  N   UNL     1       1.859  11.320  19.178  0.00  0.00    +0.000 N 
ATOM     19  H   UNL     1       2.563  11.103  19.870  0.00  0.00    +0.000 HD
BRANCH  17  20
ATOM     20  C   UNL     1       2.647  13.650  19.203  0.00  0.00    +0.000 A 
ATOM     21  C   UNL     1       3.295  14.343  18.166  0.00  0.00    +0.000 A 
ATOM     22  C   UNL     1       4.351  15.214  18.447  0.00  0.00    +0.000 A 
ATOM     23  C   UNL     1       4.757  15.388  19.763  0.00  0.00    +0.000 A 
ATOM     24  F   UNL     1       5.798  16.188  20.032  0.00  0.00    +0.000 F 
ATOM     25  C   UNL     1       4.115  14.724  20.804  0.00  0.00    +0.000 A 
ATOM     26  C   UNL     1       3.052  13.854  20.528  0.00  0.00    +0.000 A 
ENDBRANCH  17  20
ENDBRANCH   1  18
TORSDOF 2
ENDMDL
MODEL 7
REMARK VINA RESULT:      -6.6      3.055      4.464
REMARK  Name = 
REMARK  2 active torsions:
REMARK  status: ('A' for Active; 'I' for Inactive)
REMARK    1  A    between atoms: C_2  and  C_18
REMARK    2  A    between atoms: N_3  and  C_4
REMARK                            x       y       z     vdW  Elec       q    Type
REMARK                         _______ _______ _______ _____ _____    ______ ____
ROOT
ATOM      1  C   UNL     1       0.492  10.311  20.167  0.00  0.00    +0.000 C 
ATOM      2  C   UNL     1      -1.029  10.076  19.998  0.00  0.00    +0.000 C 
ATOM      3  C   UNL     1      -1.533  10.529  18.611  0.00  0.00    +0.000 C 
ATOM      4  C   UNL     1      -1.262  12.018  18.315  0.00  0.00    +0.000 C 
ATOM      5  C   UNL     1      -0.012  12.511  18.966  0.00  0.00    +0.000 A 
ATOM      6  C   UNL     1       0.773  11.724  19.786  0.00  0.00    +0.000 A 
ATOM      7  N   UNL     1       1.771  12.500  20.305  0.00  0.00    +0.000 N 
ATOM      8  C   UNL     1       1.612  13.805  19.882  0.00  0.00    +0.000 A 
ATOM      9  C   UNL     1       2.329  14.959  20.223  0.00  0.00    +0.000 A 
ATOM     10  C   UNL     1       1.910  16.173  19.666  0.00  0.00    +0.000 A 
ATOM     11  C   UNL     1       0.822  16.220  18.797  0.00  0.00    +0.000 A 
ATOM     12 BR   UNL     1       0.275  17.882  18.076  0.00  0.00    +0.000 Br
ATOM     13  C   UNL     1       0.112  15.064  18.462  0.00  0.00    +0.000 A 
ATOM     14  C   UNL     1       0.511  13.832  19.020  0.00  0.00    +0.000 A 
ATOM     15  H   UNL     1       2.471  12.192  20.967  0.00  0.00    +0.000 HD
ENDROOT
BRANCH   1  18
ATOM     16  O   UNL     1       1.428   7.802  20.902  0.00  0.00    +0.000 OA
ATOM     17  C   UNL     1       1.691   8.209  19.777  0.00  0.00    +0.000 C 
ATOM     18  N   UNL     1       1.290   9.447  19.317  0.00  0.00    +0.000 N 
ATOM     19  H   UNL     1       1.305   9.645  18.326  0.00  0.00    +0.000 HD
BRANCH  17  20
ATOM     20  C   UNL     1       2.473   7.342  18.848  0.00  0.00    +0.000 A 
ATOM     21  C   UNL     1       2.472   5.957  19.085  0.00  0.00    +0.000 A 
ATOM     22  C   UNL     1       3.283   5.108  18.328  0.00  0.00    +0.000 A 
ATOM     23  C   UNL     1       4.094   5.646  17.338  0.00  0.00    +0.000 A 
ATOM     24  F   UNL     1       4.906   4.841  16.639  0.00  0.00    +0.000 F 
ATOM     25  C   UNL     1       4.094   7.013  17.077  0.00  0.00    +0.000 A 
ATOM     26  C   UNL     1       3.279   7.868  17.830  0.00  0.00    +0.000 A 
ENDBRANCH  17  20
ENDBRANCH   1  18
TORSDOF 2
ENDMDL
MODEL 8
REMARK VINA RESULT:      -6.5      4.926      7.938
REMARK  Name = 
REMARK  2 active torsions:
REMARK  status: ('A' for Active; 'I' for Inactive)
REMARK    1  A    between atoms: C_2  and  C_18
REMARK    2  A    between atoms: N_3  and  C_4
REMARK                            x       y       z     vdW  Elec       q    Type
REMARK                         _______ _______ _______ _____ _____    ______ ____
ROOT
ATOM      1  C   UNL     1       0.510  10.385  19.095  0.00  0.00    +0.000 C 
ATOM      2  C   UNL     1      -0.574   9.950  20.110  0.00  0.00    +0.000 C 
ATOM      3  C   UNL     1       0.042   9.404  21.416  0.00  0.00    +0.000 C 
ATOM      4  C   UNL     1       0.976   8.197  21.196  0.00  0.00    +0.000 C 
ATOM      5  C   UNL     1       1.684   8.256  19.883  0.00  0.00    +0.000 A 
ATOM      6  C   UNL     1       1.472   9.256  18.955  0.00  0.00    +0.000 A 
ATOM      7  N   UNL     1       2.184   8.958  17.827  0.00  0.00    +0.000 N 
ATOM      8  C   UNL     1       2.813   7.738  17.983  0.00  0.00    +0.000 A 
ATOM      9  C   UNL     1       3.571   6.989  17.074  0.00  0.00    +0.000 A 
ATOM     10  C   UNL     1       4.056   5.747  17.500  0.00  0.00    +0.000 A 
ATOM     11  C   UNL     1       3.797   5.286  18.788  0.00  0.00    +0.000 A 
ATOM     12 BR   UNL     1       4.457   3.594  19.325  0.00  0.00    +0.000 Br
ATOM     13  C   UNL     1       3.040   6.039  19.690  0.00  0.00    +0.000 A 
ATOM     14  C   UNL     1       2.533   7.288  19.278  0.00  0.00    +0.000 A 
ATOM     15  H   UNL     1       2.185   9.499  16.973  0.00  0.00    +0.000 HD
ENDROOT
BRANCH   1  18
ATOM     16  O   UNL     1       0.037  12.972  18.201  0.00  0.00    +0.000 OA
ATOM     17  C   UNL     1       0.920  12.800  19.033  0.00  0.00    +0.000 C 
ATOM     18  N   UNL     1       1.248  11.555  19.531  0.00  0.00    +0.000 N 
ATOM     19  H   UNL     1       1.794  11.480  20.378  0.00  0.00    +0.000 HD
BRANCH  17  20
ATOM     20  C   UNL     1       1.681  13.977  19.546  0.00  0.00    +0.000 A 
ATOM     21  C   UNL     1       1.303  15.253  19.094  0.00  0.00    +0.000 A 
ATOM     22  C   UNL     1       2.054  16.379  19.439  0.00  0.00    +0.000 A 
ATOM     23  C   UNL     1       3.182  16.226  20.234  0.00  0.00    +0.000 A 
ATOM     24  F   UNL     1       3.930  17.298  20.531  0.00  0.00    +0.000 F 
ATOM     25  C   UNL     1       3.561  14.973  20.706  0.00  0.00    +0.000 A 
ATOM     26  C   UNL     1       2.809  13.842  20.367  0.00  0.00    +0.000 A 
ENDBRANCH  17  20
ENDBRANCH   1  18
TORSDOF 2
ENDMDL
MODEL 9
REMARK VINA RESULT:      -6.5      4.739      7.759
REMARK  Name = 
REMARK  2 active torsions:
REMARK  status: ('A' for Active; 'I' for Inactive)
REMARK    1  A    between atoms: C_2  and  C_18
REMARK    2  A    between atoms: N_3  and  C_4
REMARK                            x       y       z     vdW  Elec       q    Type
REMARK                         _______ _______ _______ _____ _____    ______ ____
ROOT
ATOM      1  C   UNL     1       0.893  10.256  18.747  0.00  0.00    +0.000 C 
ATOM      2  C   UNL     1      -0.322  10.326  19.702  0.00  0.00    +0.000 C 
ATOM      3  C   UNL     1       0.059   9.956  21.151  0.00  0.00    +0.000 C 
ATOM      4  C   UNL     1       0.667   8.545  21.285  0.00  0.00    +0.000 C 
ATOM      5  C   UNL     1       1.441   8.140  20.074  0.00  0.00    +0.000 A 
ATOM      6  C   UNL     1       1.543   8.930  18.945  0.00  0.00    +0.000 A 
ATOM      7  N   UNL     1       2.220   8.228  17.987  0.00  0.00    +0.000 N 
ATOM      8  C   UNL     1       2.508   6.961  18.454  0.00  0.00    +0.000 A 
ATOM      9  C   UNL     1       3.101   5.871  17.805  0.00  0.00    +0.000 A 
ATOM     10  C   UNL     1       3.230   4.677  18.523  0.00  0.00    +0.000 A 
ATOM     11  C   UNL     1       2.788   4.589  19.842  0.00  0.00    +0.000 A 
ATOM     12 BR   UNL     1       2.964   2.953  20.778  0.00  0.00    +0.000 Br
ATOM     13  C   UNL     1       2.198   5.681  20.483  0.00  0.00    +0.000 A 
ATOM     14  C   UNL     1       2.049   6.890  19.773  0.00  0.00    +0.000 A 
ATOM     15  H   UNL     1       2.407   8.549  17.046  0.00  0.00    +0.000 HD
ENDROOT
BRANCH   1  18
ATOM     16  O   UNL     1       0.531  12.960  18.228  0.00  0.00    +0.000 OA
ATOM     17  C   UNL     1       1.589  12.605  18.733  0.00  0.00    +0.000 C 
ATOM     18  N   UNL     1       1.879  11.286  19.016  0.00  0.00    +0.000 N 
ATOM     19  H   UNL     1       2.636  11.060  19.648  0.00  0.00    +0.000 HD
BRANCH  17  20
ATOM     20  C   UNL     1       2.620  13.631  19.070  0.00  0.00    +0.000 A 
ATOM     21  C   UNL     1       2.950  13.811  20.425  0.00  0.00    +0.000 A 
ATOM     22  C   UNL     1       3.812  14.838  20.814  0.00  0.00    +0.000 A 
ATOM     23  C   UNL     1       4.341  15.684  19.849  0.00  0.00    +0.000 A 
ATOM     24  F   UNL     1       5.134  16.698  20.222  0.00  0.00    +0.000 F 
ATOM     25  C   UNL     1       4.041  15.510  18.501  0.00  0.00    +0.000 A 
ATOM     26  C   UNL     1       3.180  14.478  18.105  0.00  0.00    +0.000 A 
ENDBRANCH  17  20
ENDBRANCH   1  18
TORSDOF 2
ENDMDL
