MODEL 1
REMARK VINA RESULT:      -7.1      0.000      0.000
REMARK  Name = 
REMARK  10 active torsions:
REMARK  status: ('A' for Active; 'I' for Inactive)
REMARK    1  A    between atoms: C_1  and  C_2
REMARK    2  A    between atoms: C_2  and  O_3
REMARK    3  A    between atoms: O_3  and  C_4
REMARK    4  A    between atoms: C_4  and  C_6
REMARK    5  A    between atoms: C_7  and  C_8
REMARK    6  A    between atoms: C_10  and  C_11
REMARK    7  A    between atoms: C_14  and  O_15
REMARK    8  A    between atoms: O_15  and  C_16
REMARK    9  A    between atoms: N_25  and  C_26
REMARK   10  A    between atoms: C_26  and  C_27
REMARK                            x       y       z     vdW  Elec       q    Type
REMARK                         _______ _______ _______ _____ _____    ______ ____
ROOT
ATOM      1  C   UNL     1       1.861   8.575  19.180  0.00  0.00    +0.000 A 
ATOM      2  C   UNL     1       0.921   8.873  20.158  0.00  0.00    +0.000 A 
ATOM      3  O   UNL     1       0.758   7.802  20.988  0.00  0.00    +0.000 OA
ATOM      4  C   UNL     1       1.587   6.814  20.564  0.00  0.00    +0.000 A 
ATOM      5  C   UNL     1       1.713   5.559  21.155  0.00  0.00    +0.000 A 
ATOM      6  C   UNL     1       2.540   4.637  20.501  0.00  0.00    +0.000 A 
ATOM      7  C   UNL     1       3.207   4.979  19.324  0.00  0.00    +0.000 A 
ATOM      8  C   UNL     1       3.125   6.277  18.797  0.00  0.00    +0.000 A 
ATOM      9  C   UNL     1       2.272   7.217  19.428  0.00  0.00    +0.000 A 
ATOM     10  C   UNL     1       3.871   6.596  17.544  0.00  0.00    +0.000 C 
ATOM     11  N   UNL     1       4.921   5.645  17.216  0.00  0.00    +0.000 NA
ATOM     12  C   UNL     1       4.337   4.312  17.354  0.00  0.00    +0.000 C 
ATOM     13  O   UNL     1       3.951   4.002  18.710  0.00  0.00    +0.000 OA
ENDROOT
BRANCH   2  14
ATOM     14  C   UNL     1      -0.007   9.987  20.367  0.00  0.00    +0.000 A 
ATOM     15  C   UNL     1      -0.834  10.326  19.266  0.00  0.00    +0.000 A 
ATOM     16  C   UNL     1      -1.788  11.346  19.310  0.00  0.00    +0.000 A 
ATOM     17  C   UNL     1      -2.600  11.685  18.095  0.00  0.00    +0.000 C 
ATOM     18  C   UNL     1      -1.954  12.040  20.501  0.00  0.00    +0.000 A 
ATOM     19  C   UNL     1      -1.171  11.707  21.612  0.00  0.00    +0.000 A 
ATOM     20  C   UNL     1      -0.191  10.701  21.563  0.00  0.00    +0.000 A 
BRANCH  20  21
ATOM     21  O   UNL     1       0.424  10.538  22.776  0.00  0.00    +0.000 OA
ATOM     22  C   UNL     1      -0.007   9.509  23.653  0.00  0.00    +0.000 C 
ENDBRANCH  20  21
ENDBRANCH   2  14
BRANCH   1  23
ATOM     23  C   UNL     1       2.207   9.452  18.072  0.00  0.00    +0.000 C 
ATOM     24  O   UNL     1       2.208   9.125  16.894  0.00  0.00    +0.000 OA
BRANCH  23  25
ATOM     25  O   UNL     1       2.677  10.638  18.532  0.00  0.00    +0.000 OA
BRANCH  25  27
ATOM     26  C   UNL     1       1.982  12.841  18.974  0.00  0.00    +0.000 C 
ATOM     27  C   UNL     1       2.287  11.844  17.872  0.00  0.00    +0.000 C 
ENDBRANCH  25  27
ENDBRANCH  23  25
ENDBRANCH   1  23
BRANCH  11  28
ATOM     28  C   UNL     1       5.398   5.902  15.848  0.00  0.00    +0.000 C 
BRANCH  28  29
ATOM     29  C   UNL     1       6.139   4.703  15.301  0.00  0.00    +0.000 C 
ATOM     30  C   UNL     1       5.750   4.092  13.976  0.00  0.00    +0.000 C 
ATOM     31  C   UNL     1       7.057   4.819  14.112  0.00  0.00    +0.000 C 
ENDBRANCH  28  29
ENDBRANCH  11  28
TORSDOF 7
ENDMDL
MODEL 2
REMARK VINA RESULT:      -6.9      4.886     10.251
REMARK  Name = 
REMARK  10 active torsions:
REMARK  status: ('A' for Active; 'I' for Inactive)
REMARK    1  A    between atoms: C_1  and  C_2
REMARK    2  A    between atoms: C_2  and  O_3
REMARK    3  A    between atoms: O_3  and  C_4
REMARK    4  A    between atoms: C_4  and  C_6
REMARK    5  A    between atoms: C_7  and  C_8
REMARK    6  A    between atoms: C_10  and  C_11
REMARK    7  A    between atoms: C_14  and  O_15
REMARK    8  A    between atoms: O_15  and  C_16
REMARK    9  A    between atoms: N_25  and  C_26
REMARK   10  A    between atoms: C_26  and  C_27
REMARK                            x       y       z     vdW  Elec       q    Type
REMARK                         _______ _______ _______ _____ _____    ______ ____
ROOT
ATOM      1  C   UNL     1      -2.761  12.446  19.966  0.00  0.00    +0.000 A 
ATOM      2  C   UNL     1      -1.965  12.049  18.898  0.00  0.00    +0.000 A 
ATOM      3  O   UNL     1      -2.747  11.571  17.888  0.00  0.00    +0.000 OA
ATOM      4  C   UNL     1      -4.043  11.659  18.284  0.00  0.00    +0.000 A 
ATOM      5  C   UNL     1      -5.145  11.270  17.526  0.00  0.00    +0.000 A 
ATOM      6  C   UNL     1      -6.395  11.336  18.155  0.00  0.00    +0.000 A 
ATOM      7  C   UNL     1      -6.512  11.782  19.472  0.00  0.00    +0.000 A 
ATOM      8  C   UNL     1      -5.394  12.244  20.183  0.00  0.00    +0.000 A 
ATOM      9  C   UNL     1      -4.117  12.161  19.574  0.00  0.00    +0.000 A 
ATOM     10  C   UNL     1      -5.578  12.725  21.583  0.00  0.00    +0.000 C 
ATOM     11  N   UNL     1      -6.955  13.039  21.932  0.00  0.00    +0.000 NA
ATOM     12  C   UNL     1      -7.768  11.914  21.474  0.00  0.00    +0.000 C 
ATOM     13  O   UNL     1      -7.764  11.760  20.039  0.00  0.00    +0.000 OA
ENDROOT
BRANCH   2  14
ATOM     14  C   UNL     1      -0.520  11.891  18.714  0.00  0.00    +0.000 A 
ATOM     15  C   UNL     1      -0.064  10.574  18.454  0.00  0.00    +0.000 A 
ATOM     16  C   UNL     1       1.279  10.259  18.231  0.00  0.00    +0.000 A 
ATOM     17  C   UNL     1       1.702   8.837  18.005  0.00  0.00    +0.000 C 
ATOM     18  C   UNL     1       2.206  11.292  18.234  0.00  0.00    +0.000 A 
ATOM     19  C   UNL     1       1.780  12.605  18.461  0.00  0.00    +0.000 A 
ATOM     20  C   UNL     1       0.434  12.922  18.714  0.00  0.00    +0.000 A 
BRANCH  20  21
ATOM     21  O   UNL     1       0.257  14.271  18.877  0.00  0.00    +0.000 OA
ATOM     22  C   UNL     1       1.377  15.141  18.825  0.00  0.00    +0.000 C 
ENDBRANCH  20  21
ENDBRANCH   2  14
BRANCH   1  23
ATOM     23  C   UNL     1      -2.253  12.911  21.246  0.00  0.00    +0.000 C 
ATOM     24  O   UNL     1      -1.862  14.048  21.473  0.00  0.00    +0.000 OA
BRANCH  23  25
ATOM     25  O   UNL     1      -2.124  11.877  22.113  0.00  0.00    +0.000 OA
BRANCH  25  27
ATOM     26  C   UNL     1      -0.416  10.260  22.168  0.00  0.00    +0.000 C 
ATOM     27  C   UNL     1      -0.846  11.614  22.698  0.00  0.00    +0.000 C 
ENDBRANCH  25  27
ENDBRANCH  23  25
ENDBRANCH   1  23
BRANCH  11  28
ATOM     28  C   UNL     1      -7.053  13.238  23.387  0.00  0.00    +0.000 C 
BRANCH  28  29
ATOM     29  C   UNL     1      -7.420  14.669  23.710  0.00  0.00    +0.000 C 
ATOM     30  C   UNL     1      -6.349  15.718  23.898  0.00  0.00    +0.000 C 
ATOM     31  C   UNL     1      -7.251  15.773  22.699  0.00  0.00    +0.000 C 
ENDBRANCH  28  29
ENDBRANCH  11  28
TORSDOF 7
ENDMDL
MODEL 3
REMARK VINA RESULT:      -6.9      0.905      2.013
REMARK  Name = 
REMARK  10 active torsions:
REMARK  status: ('A' for Active; 'I' for Inactive)
REMARK    1  A    between atoms: C_1  and  C_2
REMARK    2  A    between atoms: C_2  and  O_3
REMARK    3  A    between atoms: O_3  and  C_4
REMARK    4  A    between atoms: C_4  and  C_6
REMARK    5  A    between atoms: C_7  and  C_8
REMARK    6  A    between atoms: C_10  and  C_11
REMARK    7  A    between atoms: C_14  and  O_15
REMARK    8  A    between atoms: O_15  and  C_16
REMARK    9  A    between atoms: N_25  and  C_26
REMARK   10  A    between atoms: C_26  and  C_27
REMARK                            x       y       z     vdW  Elec       q    Type
REMARK                         _______ _______ _______ _____ _____    ______ ____
ROOT
ATOM      1  C   UNL     1       1.674   8.799  19.214  0.00  0.00    +0.000 A 
ATOM      2  C   UNL     1       0.700   9.118  20.152  0.00  0.00    +0.000 A 
ATOM      3  O   UNL     1       0.528   8.078  21.017  0.00  0.00    +0.000 OA
ATOM      4  C   UNL     1       1.385   7.088  20.657  0.00  0.00    +0.000 A 
ATOM      5  C   UNL     1       1.511   5.858  21.299  0.00  0.00    +0.000 A 
ATOM      6  C   UNL     1       2.372   4.926  20.707  0.00  0.00    +0.000 A 
ATOM      7  C   UNL     1       3.070   5.234  19.538  0.00  0.00    +0.000 A 
ATOM      8  C   UNL     1       2.984   6.510  18.959  0.00  0.00    +0.000 A 
ATOM      9  C   UNL     1       2.098   7.459  19.527  0.00  0.00    +0.000 A 
ATOM     10  C   UNL     1       3.763   6.793  17.717  0.00  0.00    +0.000 C 
ATOM     11  N   UNL     1       4.838   5.847  17.458  0.00  0.00    +0.000 NA
ATOM     12  C   UNL     1       4.270   4.512  17.630  0.00  0.00    +0.000 C 
ATOM     13  O   UNL     1       3.848   4.247  18.984  0.00  0.00    +0.000 OA
ENDROOT
BRANCH   2  14
ATOM     14  C   UNL     1      -0.252  10.224  20.290  0.00  0.00    +0.000 A 
ATOM     15  C   UNL     1      -0.213  10.933  21.517  0.00  0.00    +0.000 A 
ATOM     16  C   UNL     1      -1.035  12.027  21.796  0.00  0.00    +0.000 A 
ATOM     17  C   UNL     1      -0.976  12.706  23.133  0.00  0.00    +0.000 C 
ATOM     18  C   UNL     1      -1.912  12.458  20.810  0.00  0.00    +0.000 A 
ATOM     19  C   UNL     1      -1.952  11.795  19.579  0.00  0.00    +0.000 A 
ATOM     20  C   UNL     1      -1.146  10.677  19.305  0.00  0.00    +0.000 A 
BRANCH  20  21
ATOM     21  O   UNL     1      -1.340  10.217  18.029  0.00  0.00    +0.000 OA
ATOM     22  C   UNL     1      -2.653   9.929  17.574  0.00  0.00    +0.000 C 
ENDBRANCH  20  21
ENDBRANCH   2  14
BRANCH   1  23
ATOM     23  C   UNL     1       2.039   9.639  18.085  0.00  0.00    +0.000 C 
ATOM     24  O   UNL     1       1.959   9.307  16.910  0.00  0.00    +0.000 OA
BRANCH  23  25
ATOM     25  O   UNL     1       2.628  10.783  18.512  0.00  0.00    +0.000 OA
BRANCH  25  27
ATOM     26  C   UNL     1       2.077  12.903  19.371  0.00  0.00    +0.000 C 
ATOM     27  C   UNL     1       2.069  12.040  18.123  0.00  0.00    +0.000 C 
ENDBRANCH  25  27
ENDBRANCH  23  25
ENDBRANCH   1  23
BRANCH  11  28
ATOM     28  C   UNL     1       5.352   6.060  16.096  0.00  0.00    +0.000 C 
BRANCH  28  29
ATOM     29  C   UNL     1       6.102   4.842  15.607  0.00  0.00    +0.000 C 
ATOM     30  C   UNL     1       5.762   4.206  14.280  0.00  0.00    +0.000 C 
ATOM     31  C   UNL     1       7.071   4.923  14.456  0.00  0.00    +0.000 C 
ENDBRANCH  28  29
ENDBRANCH  11  28
TORSDOF 7
ENDMDL
MODEL 4
REMARK VINA RESULT:      -6.7      1.346      2.482
REMARK  Name = 
REMARK  10 active torsions:
REMARK  status: ('A' for Active; 'I' for Inactive)
REMARK    1  A    between atoms: C_1  and  C_2
REMARK    2  A    between atoms: C_2  and  O_3
REMARK    3  A    between atoms: O_3  and  C_4
REMARK    4  A    between atoms: C_4  and  C_6
REMARK    5  A    between atoms: C_7  and  C_8
REMARK    6  A    between atoms: C_10  and  C_11
REMARK    7  A    between atoms: C_14  and  O_15
REMARK    8  A    between atoms: O_15  and  C_16
REMARK    9  A    between atoms: N_25  and  C_26
REMARK   10  A    between atoms: C_26  and  C_27
REMARK                            x       y       z     vdW  Elec       q    Type
REMARK                         _______ _______ _______ _____ _____    ______ ____
ROOT
ATOM      1  C   UNL     1       1.703   8.815  19.291  0.00  0.00    +0.000 A 
ATOM      2  C   UNL     1       0.600   9.073  20.096  0.00  0.00    +0.000 A 
ATOM      3  O   UNL     1       0.338   7.991  20.886  0.00  0.00    +0.000 OA
ATOM      4  C   UNL     1       1.262   7.036  20.607  0.00  0.00    +0.000 A 
ATOM      5  C   UNL     1       1.331   5.782  21.210  0.00  0.00    +0.000 A 
ATOM      6  C   UNL     1       2.289   4.894  20.705  0.00  0.00    +0.000 A 
ATOM      7  C   UNL     1       3.133   5.268  19.658  0.00  0.00    +0.000 A 
ATOM      8  C   UNL     1       3.095   6.566  19.126  0.00  0.00    +0.000 A 
ATOM      9  C   UNL     1       2.114   7.471  19.604  0.00  0.00    +0.000 A 
ATOM     10  C   UNL     1       4.030   6.919  18.018  0.00  0.00    +0.000 C 
ATOM     11  N   UNL     1       5.154   6.008  17.871  0.00  0.00    +0.000 NA
ATOM     12  C   UNL     1       4.603   4.655  17.908  0.00  0.00    +0.000 C 
ATOM     13  O   UNL     1       4.005   4.321  19.178  0.00  0.00    +0.000 OA
ENDROOT
BRANCH   2  14
ATOM     14  C   UNL     1      -0.389  10.152  20.146  0.00  0.00    +0.000 A 
ATOM     15  C   UNL     1      -0.483  10.858  21.372  0.00  0.00    +0.000 A 
ATOM     16  C   UNL     1      -1.357  11.929  21.574  0.00  0.00    +0.000 A 
ATOM     17  C   UNL     1      -1.440  12.605  22.910  0.00  0.00    +0.000 C 
ATOM     18  C   UNL     1      -2.151  12.339  20.511  0.00  0.00    +0.000 A 
ATOM     19  C   UNL     1      -2.059  11.678  19.281  0.00  0.00    +0.000 A 
ATOM     20  C   UNL     1      -1.201  10.583  19.083  0.00  0.00    +0.000 A 
BRANCH  20  21
ATOM     21  O   UNL     1      -1.264  10.121  17.794  0.00  0.00    +0.000 OA
ATOM     22  C   UNL     1      -2.526   9.911  17.181  0.00  0.00    +0.000 C 
ENDBRANCH  20  21
ENDBRANCH   2  14
BRANCH   1  23
ATOM     23  C   UNL     1       2.199   9.711  18.259  0.00  0.00    +0.000 C 
ATOM     24  O   UNL     1       2.399   9.395  17.094  0.00  0.00    +0.000 OA
BRANCH  23  25
ATOM     25  O   UNL     1       2.557  10.904  18.795  0.00  0.00    +0.000 OA
BRANCH  25  27
ATOM     26  C   UNL     1       1.794  13.070  19.300  0.00  0.00    +0.000 C 
ATOM     27  C   UNL     1       2.110  12.109  18.170  0.00  0.00    +0.000 C 
ENDBRANCH  25  27
ENDBRANCH  23  25
ENDBRANCH   1  23
BRANCH  11  28
ATOM     28  C   UNL     1       5.846   6.291  16.604  0.00  0.00    +0.000 C 
BRANCH  28  29
ATOM     29  C   UNL     1       7.288   6.671  16.851  0.00  0.00    +0.000 C 
ATOM     30  C   UNL     1       7.645   8.024  17.421  0.00  0.00    +0.000 C 
ATOM     31  C   UNL     1       7.845   6.786  18.246  0.00  0.00    +0.000 C 
ENDBRANCH  28  29
ENDBRANCH  11  28
TORSDOF 7
ENDMDL
MODEL 5
REMARK VINA RESULT:      -6.6      2.619      7.590
REMARK  Name = 
REMARK  10 active torsions:
REMARK  status: ('A' for Active; 'I' for Inactive)
REMARK    1  A    between atoms: C_1  and  C_2
REMARK    2  A    between atoms: C_2  and  O_3
REMARK    3  A    between atoms: O_3  and  C_4
REMARK    4  A    between atoms: C_4  and  C_6
REMARK    5  A    between atoms: C_7  and  C_8
REMARK    6  A    between atoms: C_10  and  C_11
REMARK    7  A    between atoms: C_14  and  O_15
REMARK    8  A    between atoms: O_15  and  C_16
REMARK    9  A    between atoms: N_25  and  C_26
REMARK   10  A    between atoms: C_26  and  C_27
REMARK                            x       y       z     vdW  Elec       q    Type
REMARK                         _______ _______ _______ _____ _____    ______ ____
ROOT
ATOM      1  C   UNL     1       0.942   9.303  19.601  0.00  0.00    +0.000 A 
ATOM      2  C   UNL     1       1.334   8.034  20.009  0.00  0.00    +0.000 A 
ATOM      3  O   UNL     1       1.019   7.850  21.323  0.00  0.00    +0.000 OA
ATOM      4  C   UNL     1       0.420   8.983  21.773  0.00  0.00    +0.000 A 
ATOM      5  C   UNL     1      -0.050   9.186  23.068  0.00  0.00    +0.000 A 
ATOM      6  C   UNL     1      -0.535  10.465  23.367  0.00  0.00    +0.000 A 
ATOM      7  C   UNL     1      -0.550  11.471  22.400  0.00  0.00    +0.000 A 
ATOM      8  C   UNL     1      -0.146  11.213  21.081  0.00  0.00    +0.000 A 
ATOM      9  C   UNL     1       0.373   9.933  20.765  0.00  0.00    +0.000 A 
ATOM     10  C   UNL     1      -0.197  12.320  20.081  0.00  0.00    +0.000 C 
ATOM     11  N   UNL     1      -1.033  13.443  20.476  0.00  0.00    +0.000 NA
ATOM     12  C   UNL     1      -0.671  13.770  21.853  0.00  0.00    +0.000 C 
ATOM     13  O   UNL     1      -0.985  12.716  22.786  0.00  0.00    +0.000 OA
ENDROOT
BRANCH   2  14
ATOM     14  C   UNL     1       2.129   6.971  19.390  0.00  0.00    +0.000 A 
ATOM     15  C   UNL     1       3.041   7.377  18.382  0.00  0.00    +0.000 A 
ATOM     16  C   UNL     1       3.888   6.491  17.713  0.00  0.00    +0.000 A 
ATOM     17  C   UNL     1       4.798   6.979  16.625  0.00  0.00    +0.000 C 
ATOM     18  C   UNL     1       3.856   5.151  18.076  0.00  0.00    +0.000 A 
ATOM     19  C   UNL     1       2.986   4.726  19.086  0.00  0.00    +0.000 A 
ATOM     20  C   UNL     1       2.112   5.610  19.741  0.00  0.00    +0.000 A 
BRANCH  20  21
ATOM     21  O   UNL     1       1.381   4.971  20.708  0.00  0.00    +0.000 OA
ATOM     22  C   UNL     1       1.193   3.566  20.637  0.00  0.00    +0.000 C 
ENDBRANCH  20  21
ENDBRANCH   2  14
BRANCH   1  23
ATOM     23  C   UNL     1       1.213   9.869  18.290  0.00  0.00    +0.000 C 
ATOM     24  O   UNL     1       2.160  10.596  18.023  0.00  0.00    +0.000 OA
BRANCH  23  25
ATOM     25  O   UNL     1       0.191   9.610  17.438  0.00  0.00    +0.000 OA
BRANCH  25  27
ATOM     26  C   UNL     1      -1.990   9.728  16.566  0.00  0.00    +0.000 C 
ATOM     27  C   UNL     1      -1.111  10.119  17.738  0.00  0.00    +0.000 C 
ENDBRANCH  25  27
ENDBRANCH  23  25
ENDBRANCH   1  23
BRANCH  11  28
ATOM     28  C   UNL     1      -0.797  14.569  19.557  0.00  0.00    +0.000 C 
BRANCH  28  29
ATOM     29  C   UNL     1       0.524  15.240  19.857  0.00  0.00    +0.000 C 
ATOM     30  C   UNL     1       1.604  15.326  18.804  0.00  0.00    +0.000 C 
ATOM     31  C   UNL     1       0.888  16.570  19.249  0.00  0.00    +0.000 C 
ENDBRANCH  28  29
ENDBRANCH  11  28
TORSDOF 7
ENDMDL
MODEL 6
REMARK VINA RESULT:      -6.6      3.011      5.452
REMARK  Name = 
REMARK  10 active torsions:
REMARK  status: ('A' for Active; 'I' for Inactive)
REMARK    1  A    between atoms: C_1  and  C_2
REMARK    2  A    between atoms: C_2  and  O_3
REMARK    3  A    between atoms: O_3  and  C_4
REMARK    4  A    between atoms: C_4  and  C_6
REMARK    5  A    between atoms: C_7  and  C_8
REMARK    6  A    between atoms: C_10  and  C_11
REMARK    7  A    between atoms: C_14  and  O_15
REMARK    8  A    between atoms: O_15  and  C_16
REMARK    9  A    between atoms: N_25  and  C_26
REMARK   10  A    between atoms: C_26  and  C_27
REMARK                            x       y       z     vdW  Elec       q    Type
REMARK                         _______ _______ _______ _____ _____    ______ ____
ROOT
ATOM      1  C   UNL     1      -1.748  11.818  19.932  0.00  0.00    +0.000 A 
ATOM      2  C   UNL     1      -2.689  12.506  20.687  0.00  0.00    +0.000 A 
ATOM      3  O   UNL     1      -2.548  12.190  22.006  0.00  0.00    +0.000 OA
ATOM      4  C   UNL     1      -1.522  11.308  22.118  0.00  0.00    +0.000 A 
ATOM      5  C   UNL     1      -1.067  10.748  23.309  0.00  0.00    +0.000 A 
ATOM      6  C   UNL     1      -0.068   9.772  23.203  0.00  0.00    +0.000 A 
ATOM      7  C   UNL     1       0.442   9.399  21.959  0.00  0.00    +0.000 A 
ATOM      8  C   UNL     1       0.022  10.039  20.783  0.00  0.00    +0.000 A 
ATOM      9  C   UNL     1      -1.006  11.011  20.866  0.00  0.00    +0.000 A 
ATOM     10  C   UNL     1       0.611   9.614  19.480  0.00  0.00    +0.000 C 
ATOM     11  N   UNL     1       1.848   8.857  19.602  0.00  0.00    +0.000 NA
ATOM     12  C   UNL     1       1.614   7.837  20.622  0.00  0.00    +0.000 C 
ATOM     13  O   UNL     1       1.376   8.392  21.933  0.00  0.00    +0.000 OA
ENDROOT
BRANCH   2  14
ATOM     14  C   UNL     1      -3.852  13.332  20.351  0.00  0.00    +0.000 A 
ATOM     15  C   UNL     1      -4.899  12.681  19.651  0.00  0.00    +0.000 A 
ATOM     16  C   UNL     1      -6.085  13.319  19.279  0.00  0.00    +0.000 A 
ATOM     17  C   UNL     1      -7.135  12.586  18.499  0.00  0.00    +0.000 C 
ATOM     18  C   UNL     1      -6.256  14.649  19.641  0.00  0.00    +0.000 A 
ATOM     19  C   UNL     1      -5.252  15.308  20.357  0.00  0.00    +0.000 A 
ATOM     20  C   UNL     1      -4.046  14.677  20.708  0.00  0.00    +0.000 A 
BRANCH  20  21
ATOM     21  O   UNL     1      -3.232  15.511  21.428  0.00  0.00    +0.000 OA
ATOM     22  C   UNL     1      -3.739  16.174  22.576  0.00  0.00    +0.000 C 
ENDBRANCH  20  21
ENDBRANCH   2  14
BRANCH   1  23
ATOM     23  C   UNL     1      -1.677  11.842  18.480  0.00  0.00    +0.000 C 
ATOM     24  O   UNL     1      -1.158  12.732  17.818  0.00  0.00    +0.000 OA
BRANCH  23  25
ATOM     25  O   UNL     1      -2.399  10.824  17.949  0.00  0.00    +0.000 OA
BRANCH  25  27
ATOM     26  C   UNL     1      -4.097  11.179  16.360  0.00  0.00    +0.000 C 
ATOM     27  C   UNL     1      -2.639  10.802  16.541  0.00  0.00    +0.000 C 
ENDBRANCH  25  27
ENDBRANCH  23  25
ENDBRANCH   1  23
BRANCH  11  28
ATOM     28  C   UNL     1       2.187   8.269  18.296  0.00  0.00    +0.000 C 
BRANCH  28  29
ATOM     29  C   UNL     1       3.059   7.046  18.467  0.00  0.00    +0.000 C 
ATOM     30  C   UNL     1       2.698   5.739  17.799  0.00  0.00    +0.000 C 
ATOM     31  C   UNL     1       3.899   6.513  17.335  0.00  0.00    +0.000 C 
ENDBRANCH  28  29
ENDBRANCH  11  28
TORSDOF 7
ENDMDL
MODEL 7
REMARK VINA RESULT:      -6.6      1.158      1.533
REMARK  Name = 
REMARK  10 active torsions:
REMARK  status: ('A' for Active; 'I' for Inactive)
REMARK    1  A    between atoms: C_1  and  C_2
REMARK    2  A    between atoms: C_2  and  O_3
REMARK    3  A    between atoms: O_3  and  C_4
REMARK    4  A    between atoms: C_4  and  C_6
REMARK    5  A    between atoms: C_7  and  C_8
REMARK    6  A    between atoms: C_10  and  C_11
REMARK    7  A    between atoms: C_14  and  O_15
REMARK    8  A    between atoms: O_15  and  C_16
REMARK    9  A    between atoms: N_25  and  C_26
REMARK   10  A    between atoms: C_26  and  C_27
REMARK                            x       y       z     vdW  Elec       q    Type
REMARK                         _______ _______ _______ _____ _____    ______ ____
ROOT
ATOM      1  C   UNL     1       1.671   8.875  19.217  0.00  0.00    +0.000 A 
ATOM      2  C   UNL     1       0.559   9.150  20.003  0.00  0.00    +0.000 A 
ATOM      3  O   UNL     1       0.286   8.086  20.811  0.00  0.00    +0.000 OA
ATOM      4  C   UNL     1       1.212   7.124  20.564  0.00  0.00    +0.000 A 
ATOM      5  C   UNL     1       1.272   5.883  21.194  0.00  0.00    +0.000 A 
ATOM      6  C   UNL     1       2.236   4.985  20.720  0.00  0.00    +0.000 A 
ATOM      7  C   UNL     1       3.093   5.336  19.676  0.00  0.00    +0.000 A 
ATOM      8  C   UNL     1       3.063   6.623  19.117  0.00  0.00    +0.000 A 
ATOM      9  C   UNL     1       2.078   7.538  19.563  0.00  0.00    +0.000 A 
ATOM     10  C   UNL     1       4.012   6.952  18.013  0.00  0.00    +0.000 C 
ATOM     11  N   UNL     1       5.138   6.037  17.900  0.00  0.00    +0.000 NA
ATOM     12  C   UNL     1       4.585   4.685  17.958  0.00  0.00    +0.000 C 
ATOM     13  O   UNL     1       3.971   4.379  19.227  0.00  0.00    +0.000 OA
ENDROOT
BRANCH   2  14
ATOM     14  C   UNL     1      -0.430  10.231  20.017  0.00  0.00    +0.000 A 
ATOM     15  C   UNL     1      -1.216  10.374  18.845  0.00  0.00    +0.000 A 
ATOM     16  C   UNL     1      -2.218  11.338  18.709  0.00  0.00    +0.000 A 
ATOM     17  C   UNL     1      -2.985  11.466  17.425  0.00  0.00    +0.000 C 
ATOM     18  C   UNL     1      -2.476  12.175  19.786  0.00  0.00    +0.000 A 
ATOM     19  C   UNL     1      -1.735  12.038  20.964  0.00  0.00    +0.000 A 
ATOM     20  C   UNL     1      -0.707  11.089  21.095  0.00  0.00    +0.000 A 
BRANCH  20  21
ATOM     21  O   UNL     1      -0.145  11.124  22.344  0.00  0.00    +0.000 OA
ATOM     22  C   UNL     1      -0.621  10.250  23.356  0.00  0.00    +0.000 C 
ENDBRANCH  20  21
ENDBRANCH   2  14
BRANCH   1  23
ATOM     23  C   UNL     1       2.181   9.749  18.172  0.00  0.00    +0.000 C 
ATOM     24  O   UNL     1       2.431   9.400  17.027  0.00  0.00    +0.000 OA
BRANCH  23  25
ATOM     25  O   UNL     1       2.489  10.968  18.679  0.00  0.00    +0.000 OA
BRANCH  25  27
ATOM     26  C   UNL     1       1.470  13.088  18.642  0.00  0.00    +0.000 C 
ATOM     27  C   UNL     1       2.335  12.124  17.853  0.00  0.00    +0.000 C 
ENDBRANCH  25  27
ENDBRANCH  23  25
ENDBRANCH   1  23
BRANCH  11  28
ATOM     28  C   UNL     1       5.846   6.294  16.635  0.00  0.00    +0.000 C 
BRANCH  28  29
ATOM     29  C   UNL     1       7.289   6.665  16.892  0.00  0.00    +0.000 C 
ATOM     30  C   UNL     1       7.647   8.009  17.483  0.00  0.00    +0.000 C 
ATOM     31  C   UNL     1       7.842   6.757  18.291  0.00  0.00    +0.000 C 
ENDBRANCH  28  29
ENDBRANCH  11  28
TORSDOF 7
ENDMDL
MODEL 8
REMARK VINA RESULT:      -6.5      2.260      4.316
REMARK  Name = 
REMARK  10 active torsions:
REMARK  status: ('A' for Active; 'I' for Inactive)
REMARK    1  A    between atoms: C_1  and  C_2
REMARK    2  A    between atoms: C_2  and  O_3
REMARK    3  A    between atoms: O_3  and  C_4
REMARK    4  A    between atoms: C_4  and  C_6
REMARK    5  A    between atoms: C_7  and  C_8
REMARK    6  A    between atoms: C_10  and  C_11
REMARK    7  A    between atoms: C_14  and  O_15
REMARK    8  A    between atoms: O_15  and  C_16
REMARK    9  A    between atoms: N_25  and  C_26
REMARK   10  A    between atoms: C_26  and  C_27
REMARK                            x       y       z     vdW  Elec       q    Type
REMARK                         _______ _______ _______ _____ _____    ______ ____
ROOT
ATOM      1  C   UNL     1       0.723   9.135  20.175  0.00  0.00    +0.000 A 
ATOM      2  C   UNL     1       0.588  10.407  19.632  0.00  0.00    +0.000 A 
ATOM      3  O   UNL     1       1.359  10.518  18.511  0.00  0.00    +0.000 OA
ATOM      4  C   UNL     1       1.988   9.331  18.317  0.00  0.00    +0.000 A 
ATOM      5  C   UNL     1       2.864   9.045  17.272  0.00  0.00    +0.000 A 
ATOM      6  C   UNL     1       3.499   7.797  17.309  0.00  0.00    +0.000 A 
ATOM      7  C   UNL     1       3.246   6.893  18.341  0.00  0.00    +0.000 A 
ATOM      8  C   UNL     1       2.297   7.176  19.335  0.00  0.00    +0.000 A 
ATOM      9  C   UNL     1       1.663   8.444  19.332  0.00  0.00    +0.000 A 
ATOM     10  C   UNL     1       2.053   6.168  20.408  0.00  0.00    +0.000 C 
ATOM     11  N   UNL     1       2.531   4.831  20.091  0.00  0.00    +0.000 NA
ATOM     12  C   UNL     1       3.893   4.984  19.582  0.00  0.00    +0.000 C 
ATOM     13  O   UNL     1       3.953   5.715  18.339  0.00  0.00    +0.000 OA
ENDROOT
BRANCH   2  14
ATOM     14  C   UNL     1      -0.050  11.643  20.090  0.00  0.00    +0.000 A 
ATOM     15  C   UNL     1      -1.456  11.720  19.923  0.00  0.00    +0.000 A 
ATOM     16  C   UNL     1      -2.217  12.818  20.330  0.00  0.00    +0.000 A 
ATOM     17  C   UNL     1      -3.697  12.856  20.083  0.00  0.00    +0.000 C 
ATOM     18  C   UNL     1      -1.567  13.872  20.957  0.00  0.00    +0.000 A 
ATOM     19  C   UNL     1      -0.184  13.812  21.160  0.00  0.00    +0.000 A 
ATOM     20  C   UNL     1       0.588  12.721  20.726  0.00  0.00    +0.000 A 
BRANCH  20  21
ATOM     21  O   UNL     1       1.908  12.874  21.061  0.00  0.00    +0.000 OA
ATOM     22  C   UNL     1       2.476  14.174  21.117  0.00  0.00    +0.000 C 
ENDBRANCH  20  21
ENDBRANCH   2  14
BRANCH   1  23
ATOM     23  C   UNL     1       0.121   8.704  21.426  0.00  0.00    +0.000 C 
ATOM     24  O   UNL     1      -0.816   7.923  21.520  0.00  0.00    +0.000 OA
BRANCH  23  25
ATOM     25  O   UNL     1       0.634   9.403  22.469  0.00  0.00    +0.000 OA
BRANCH  25  27
ATOM     26  C   UNL     1      -1.153  10.697  23.283  0.00  0.00    +0.000 C 
ATOM     27  C   UNL     1      -0.167   9.600  23.636  0.00  0.00    +0.000 C 
ENDBRANCH  25  27
ENDBRANCH  23  25
ENDBRANCH   1  23
BRANCH  11  28
ATOM     28  C   UNL     1       2.483   3.999  21.305  0.00  0.00    +0.000 C 
BRANCH  28  29
ATOM     29  C   UNL     1       1.723   2.717  21.048  0.00  0.00    +0.000 C 
ATOM     30  C   UNL     1       0.544   2.693  20.103  0.00  0.00    +0.000 C 
ATOM     31  C   UNL     1       1.820   1.993  19.731  0.00  0.00    +0.000 C 
ENDBRANCH  28  29
ENDBRANCH  11  28
TORSDOF 7
ENDMDL
MODEL 9
REMARK VINA RESULT:      -6.5      4.468      9.572
REMARK  Name = 
REMARK  10 active torsions:
REMARK  status: ('A' for Active; 'I' for Inactive)
REMARK    1  A    between atoms: C_1  and  C_2
REMARK    2  A    between atoms: C_2  and  O_3
REMARK    3  A    between atoms: O_3  and  C_4
REMARK    4  A    between atoms: C_4  and  C_6
REMARK    5  A    between atoms: C_7  and  C_8
REMARK    6  A    between atoms: C_10  and  C_11
REMARK    7  A    between atoms: C_14  and  O_15
REMARK    8  A    between atoms: O_15  and  C_16
REMARK    9  A    between atoms: N_25  and  C_26
REMARK   10  A    between atoms: C_26  and  C_27
REMARK                            x       y       z     vdW  Elec       q    Type
REMARK                         _______ _______ _______ _____ _____    ______ ____
ROOT
ATOM      1  C   UNL     1       0.480  13.732  19.423  0.00  0.00    +0.000 A 
ATOM      2  C   UNL     1       1.372  12.675  19.559  0.00  0.00    +0.000 A 
ATOM      3  O   UNL     1       2.622  13.072  19.183  0.00  0.00    +0.000 OA
ATOM      4  C   UNL     1       2.554  14.376  18.811  0.00  0.00    +0.000 A 
ATOM      5  C   UNL     1       3.627  15.143  18.364  0.00  0.00    +0.000 A 
ATOM      6  C   UNL     1       3.331  16.438  17.920  0.00  0.00    +0.000 A 
ATOM      7  C   UNL     1       2.023  16.923  17.942  0.00  0.00    +0.000 A 
ATOM      8  C   UNL     1       0.975  16.155  18.474  0.00  0.00    +0.000 A 
ATOM      9  C   UNL     1       1.249  14.833  18.904  0.00  0.00    +0.000 A 
ATOM     10  C   UNL     1      -0.403  16.727  18.488  0.00  0.00    +0.000 C 
ATOM     11  N   UNL     1      -0.453  18.171  18.316  0.00  0.00    +0.000 NA
ATOM     12  C   UNL     1       0.416  18.487  17.184  0.00  0.00    +0.000 C 
ATOM     13  O   UNL     1       1.804  18.180  17.433  0.00  0.00    +0.000 OA
ENDROOT
BRANCH   2  14
ATOM     14  C   UNL     1       1.217  11.248  19.848  0.00  0.00    +0.000 A 
ATOM     15  C   UNL     1       1.696  10.353  18.857  0.00  0.00    +0.000 A 
ATOM     16  C   UNL     1       1.645   8.964  18.991  0.00  0.00    +0.000 A 
ATOM     17  C   UNL     1       2.127   8.072  17.885  0.00  0.00    +0.000 C 
ATOM     18  C   UNL     1       1.128   8.435  20.166  0.00  0.00    +0.000 A 
ATOM     19  C   UNL     1       0.675   9.294  21.173  0.00  0.00    +0.000 A 
ATOM     20  C   UNL     1       0.698  10.692  21.030  0.00  0.00    +0.000 A 
BRANCH  20  21
ATOM     21  O   UNL     1       0.231  11.320  22.154  0.00  0.00    +0.000 OA
ATOM     22  C   UNL     1      -0.866  10.769  22.866  0.00  0.00    +0.000 C 
ENDBRANCH  20  21
ENDBRANCH   2  14
BRANCH   1  23
ATOM     23  C   UNL     1      -0.954  13.633  19.640  0.00  0.00    +0.000 C 
ATOM     24  O   UNL     1      -1.544  14.055  20.625  0.00  0.00    +0.000 OA
BRANCH  23  25
ATOM     25  O   UNL     1      -1.532  12.874  18.677  0.00  0.00    +0.000 OA
BRANCH  25  27
ATOM     26  C   UNL     1      -2.006  10.594  18.344  0.00  0.00    +0.000 C 
ATOM     27  C   UNL     1      -2.458  11.854  19.057  0.00  0.00    +0.000 C 
ENDBRANCH  25  27
ENDBRANCH  23  25
ENDBRANCH   1  23
BRANCH  11  28
ATOM     28  C   UNL     1      -1.845  18.583  18.078  0.00  0.00    +0.000 C 
BRANCH  28  29
ATOM     29  C   UNL     1      -2.769  17.978  19.111  0.00  0.00    +0.000 C 
ATOM     30  C   UNL     1      -2.953  18.631  20.461  0.00  0.00    +0.000 C 
ATOM     31  C   UNL     1      -4.081  18.626  19.470  0.00  0.00    +0.000 C 
ENDBRANCH  28  29
ENDBRANCH  11  28
TORSDOF 7
ENDMDL
