MODEL 1
REMARK VINA RESULT:      -9.6      0.000      0.000
REMARK  Name = 
REMARK  9 active torsions:
REMARK  status: ('A' for Active; 'I' for Inactive)
REMARK    1  A    between atoms: C_1  and  O_2
REMARK    2  A    between atoms: O_2  and  C_3
REMARK    3  A    between atoms: C_5  and  C_6
REMARK    4  A    between atoms: C_10  and  C_11
REMARK    5  A    between atoms: C_16  and  O_17
REMARK    6  A    between atoms: C_19  and  O_20
REMARK    7  A    between atoms: C_28  and  C_29
REMARK    8  A    between atoms: C_29  and  O_30
REMARK    9  A    between atoms: C_33  and  O_34
REMARK                            x       y       z     vdW  Elec       q    Type
REMARK                         _______ _______ _______ _____ _____    ______ ____
ROOT
ATOM      1  C   UNL     1      -1.189  11.973  19.177  0.00  0.00    +0.000 C 
ATOM      2  O   UNL     1       0.192  11.698  18.762  0.00  0.00    +0.000 OA
ATOM      3  C   UNL     1       0.655  10.572  19.413  0.00  0.00    +0.000 A 
ATOM      4  C   UNL     1       1.264   9.514  18.714  0.00  0.00    +0.000 A 
ATOM      5  C   UNL     1       1.675   8.366  19.417  0.00  0.00    +0.000 A 
ATOM      6  C   UNL     1       1.465   8.361  20.821  0.00  0.00    +0.000 A 
ATOM      7  C   UNL     1       0.901   9.434  21.507  0.00  0.00    +0.000 A 
ATOM      8  C   UNL     1       0.452  10.521  20.793  0.00  0.00    +0.000 A 
ATOM      9  O   UNL     1      -0.197  11.516  21.462  0.00  0.00    +0.000 OA
ATOM     10  C   UNL     1      -1.357  11.969  20.727  0.00  0.00    +0.000 C 
ENDROOT
BRANCH   5  11
ATOM     11  C   UNL     1       2.417   7.196  18.818  0.00  0.00    +0.000 A 
ATOM     12  C   UNL     1       2.247   6.019  19.445  0.00  0.00    +0.000 A 
ATOM     13  C   UNL     1       3.004   4.875  18.961  0.00  0.00    +0.000 A 
ATOM     14  O   UNL     1       2.680   3.727  19.224  0.00  0.00    +0.000 OA
ATOM     15  C   UNL     1       4.210   5.220  18.237  0.00  0.00    +0.000 A 
ATOM     16  C   UNL     1       5.349   4.437  18.383  0.00  0.00    +0.000 A 
ATOM     17  C   UNL     1       6.462   4.705  17.608  0.00  0.00    +0.000 A 
ATOM     18  C   UNL     1       6.395   5.738  16.674  0.00  0.00    +0.000 A 
ATOM     19  C   UNL     1       5.282   6.598  16.608  0.00  0.00    +0.000 A 
ATOM     20  C   UNL     1       4.209   6.391  17.483  0.00  0.00    +0.000 A 
ATOM     21  O   UNL     1       3.242   7.377  17.696  0.00  0.00    +0.000 OA
BRANCH  16  22
ATOM     22  O   UNL     1       5.463   3.477  19.351  0.00  0.00    +0.000 OA
ATOM     23  H   UNL     1       4.759   3.613  20.019  0.00  0.00    +0.000 HD
ENDBRANCH  16  22
BRANCH  18  24
ATOM     24  O   UNL     1       7.451   5.958  15.837  0.00  0.00    +0.000 OA
ATOM     25  H   UNL     1       8.209   5.430  16.149  0.00  0.00    +0.000 HD
ENDBRANCH  18  24
ENDBRANCH   5  11
BRANCH   1  28
ATOM     26  C   UNL     1      -4.186  10.791  17.325  0.00  0.00    +0.000 A 
ATOM     27  C   UNL     1      -3.401  11.067  18.443  0.00  0.00    +0.000 A 
ATOM     28  C   UNL     1      -2.000  10.929  18.389  0.00  0.00    +0.000 A 
ATOM     29  C   UNL     1      -1.434  10.220  17.321  0.00  0.00    +0.000 A 
ATOM     30  C   UNL     1      -2.209   9.937  16.203  0.00  0.00    +0.000 A 
ATOM     31  C   UNL     1      -3.556  10.305  16.175  0.00  0.00    +0.000 A 
BRANCH  26  33
ATOM     32  C   UNL     1      -6.175  10.665  18.631  0.00  0.00    +0.000 C 
ATOM     33  O   UNL     1      -5.493  11.157  17.492  0.00  0.00    +0.000 OA
ENDBRANCH  26  33
BRANCH  31  34
ATOM     34  O   UNL     1      -4.183  10.261  14.962  0.00  0.00    +0.000 OA
ATOM     35  H   UNL     1      -4.979   9.710  15.075  0.00  0.00    +0.000 HD
ENDBRANCH  31  34
ENDBRANCH   1  28
BRANCH  10  36
ATOM     36  C   UNL     1      -1.744  13.343  21.290  0.00  0.00    +0.000 C 
BRANCH  36  37
ATOM     37  O   UNL     1      -2.298  14.192  20.295  0.00  0.00    +0.000 OA
ATOM     38  H   UNL     1      -1.986  15.095  20.500  0.00  0.00    +0.000 HD
ENDBRANCH  36  37
ENDBRANCH  10  36
TORSDOF 8
ENDMDL
MODEL 2
REMARK VINA RESULT:      -9.6      2.386      9.434
REMARK  Name = 
REMARK  9 active torsions:
REMARK  status: ('A' for Active; 'I' for Inactive)
REMARK    1  A    between atoms: C_1  and  O_2
REMARK    2  A    between atoms: O_2  and  C_3
REMARK    3  A    between atoms: C_5  and  C_6
REMARK    4  A    between atoms: C_10  and  C_11
REMARK    5  A    between atoms: C_16  and  O_17
REMARK    6  A    between atoms: C_19  and  O_20
REMARK    7  A    between atoms: C_28  and  C_29
REMARK    8  A    between atoms: C_29  and  O_30
REMARK    9  A    between atoms: C_33  and  O_34
REMARK                            x       y       z     vdW  Elec       q    Type
REMARK                         _______ _______ _______ _____ _____    ______ ____
ROOT
ATOM      1  C   UNL     1       3.395   3.356  17.402  0.00  0.00    +0.000 C 
ATOM      2  O   UNL     1       2.140   4.108  17.517  0.00  0.00    +0.000 OA
ATOM      3  C   UNL     1       2.106   4.771  18.728  0.00  0.00    +0.000 A 
ATOM      4  C   UNL     1       1.802   6.142  18.810  0.00  0.00    +0.000 A 
ATOM      5  C   UNL     1       1.829   6.784  20.062  0.00  0.00    +0.000 A 
ATOM      6  C   UNL     1       2.147   5.981  21.189  0.00  0.00    +0.000 A 
ATOM      7  C   UNL     1       2.403   4.615  21.100  0.00  0.00    +0.000 A 
ATOM      8  C   UNL     1       2.430   4.021  19.860  0.00  0.00    +0.000 A 
ATOM      9  O   UNL     1       2.790   2.708  19.775  0.00  0.00    +0.000 OA
ATOM     10  C   UNL     1       3.685   2.484  18.662  0.00  0.00    +0.000 C 
ENDROOT
BRANCH   5  11
ATOM     11  C   UNL     1       1.442   8.220  20.314  0.00  0.00    +0.000 A 
ATOM     12  C   UNL     1       1.060   8.506  21.571  0.00  0.00    +0.000 A 
ATOM     13  C   UNL     1       0.596   9.856  21.851  0.00  0.00    +0.000 A 
ATOM     14  O   UNL     1       0.556  10.303  22.987  0.00  0.00    +0.000 OA
ATOM     15  C   UNL     1       0.102  10.570  20.692  0.00  0.00    +0.000 A 
ATOM     16  C   UNL     1      -0.992  11.417  20.820  0.00  0.00    +0.000 A 
ATOM     17  C   UNL     1      -1.391  12.179  19.737  0.00  0.00    +0.000 A 
ATOM     18  C   UNL     1      -0.658  12.098  18.554  0.00  0.00    +0.000 A 
ATOM     19  C   UNL     1       0.379  11.158  18.394  0.00  0.00    +0.000 A 
ATOM     20  C   UNL     1       0.694  10.307  19.459  0.00  0.00    +0.000 A 
ATOM     21  O   UNL     1       1.466   9.157  19.268  0.00  0.00    +0.000 OA
BRANCH  16  22
ATOM     22  O   UNL     1      -1.773  11.446  21.942  0.00  0.00    +0.000 OA
ATOM     23  H   UNL     1      -2.657  11.085  21.724  0.00  0.00    +0.000 HD
ENDBRANCH  16  22
BRANCH  18  24
ATOM     24  O   UNL     1      -0.981  12.910  17.505  0.00  0.00    +0.000 OA
ATOM     25  H   UNL     1      -1.878  12.680  17.200  0.00  0.00    +0.000 HD
ENDBRANCH  18  24
ENDBRANCH   5  11
BRANCH   1  28
ATOM     26  C   UNL     1       6.832   4.760  17.241  0.00  0.00    +0.000 A 
ATOM     27  C   UNL     1       5.609   4.439  17.827  0.00  0.00    +0.000 A 
ATOM     28  C   UNL     1       4.423   4.452  17.067  0.00  0.00    +0.000 A 
ATOM     29  C   UNL     1       4.431   5.087  15.818  0.00  0.00    +0.000 A 
ATOM     30  C   UNL     1       5.645   5.415  15.227  0.00  0.00    +0.000 A 
ATOM     31  C   UNL     1       6.841   5.166  15.902  0.00  0.00    +0.000 A 
BRANCH  26  33
ATOM     32  C   UNL     1       8.118   5.410  19.138  0.00  0.00    +0.000 C 
ATOM     33  O   UNL     1       7.895   4.514  18.065  0.00  0.00    +0.000 OA
ENDBRANCH  26  33
BRANCH  31  34
ATOM     34  O   UNL     1       7.992   5.240  15.170  0.00  0.00    +0.000 OA
ATOM     35  H   UNL     1       8.629   5.755  15.697  0.00  0.00    +0.000 HD
ENDBRANCH  31  34
ENDBRANCH   1  28
BRANCH  10  36
ATOM     36  C   UNL     1       3.669   0.979  18.363  0.00  0.00    +0.000 C 
BRANCH  36  37
ATOM     37  O   UNL     1       4.722   0.291  19.024  0.00  0.00    +0.000 OA
ATOM     38  H   UNL     1       5.224  -0.175  18.328  0.00  0.00    +0.000 HD
ENDBRANCH  36  37
ENDBRANCH  10  36
TORSDOF 8
ENDMDL
MODEL 3
REMARK VINA RESULT:      -9.0      1.750      2.917
REMARK  Name = 
REMARK  9 active torsions:
REMARK  status: ('A' for Active; 'I' for Inactive)
REMARK    1  A    between atoms: C_1  and  O_2
REMARK    2  A    between atoms: O_2  and  C_3
REMARK    3  A    between atoms: C_5  and  C_6
REMARK    4  A    between atoms: C_10  and  C_11
REMARK    5  A    between atoms: C_16  and  O_17
REMARK    6  A    between atoms: C_19  and  O_20
REMARK    7  A    between atoms: C_28  and  C_29
REMARK    8  A    between atoms: C_29  and  O_30
REMARK    9  A    between atoms: C_33  and  O_34
REMARK                            x       y       z     vdW  Elec       q    Type
REMARK                         _______ _______ _______ _____ _____    ______ ____
ROOT
ATOM      1  C   UNL     1      -1.095  12.449  18.793  0.00  0.00    +0.000 C 
ATOM      2  O   UNL     1       0.267  11.943  18.589  0.00  0.00    +0.000 OA
ATOM      3  C   UNL     1       0.542  10.963  19.523  0.00  0.00    +0.000 A 
ATOM      4  C   UNL     1       1.065   9.713  19.148  0.00  0.00    +0.000 A 
ATOM      5  C   UNL     1       1.281   8.729  20.131  0.00  0.00    +0.000 A 
ATOM      6  C   UNL     1       0.972   9.081  21.471  0.00  0.00    +0.000 A 
ATOM      7  C   UNL     1       0.496  10.338  21.835  0.00  0.00    +0.000 A 
ATOM      8  C   UNL     1       0.236  11.263  20.851  0.00  0.00    +0.000 A 
ATOM      9  O   UNL     1      -0.333  12.451  21.208  0.00  0.00    +0.000 OA
ATOM     10  C   UNL     1      -1.373  12.831  20.279  0.00  0.00    +0.000 C 
ENDROOT
BRANCH   5  11
ATOM     11  C   UNL     1       1.915   7.381  19.891  0.00  0.00    +0.000 A 
ATOM     12  C   UNL     1       2.277   7.128  18.621  0.00  0.00    +0.000 A 
ATOM     13  C   UNL     1       2.816   5.812  18.317  0.00  0.00    +0.000 A 
ATOM     14  O   UNL     1       3.473   5.599  17.309  0.00  0.00    +0.000 OA
ATOM     15  C   UNL     1       2.425   4.776  19.250  0.00  0.00    +0.000 A 
ATOM     16  C   UNL     1       2.161   3.493  18.785  0.00  0.00    +0.000 A 
ATOM     17  C   UNL     1       1.895   2.483  19.690  0.00  0.00    +0.000 A 
ATOM     18  C   UNL     1       1.934   2.777  21.052  0.00  0.00    +0.000 A 
ATOM     19  C   UNL     1       2.091   4.098  21.515  0.00  0.00    +0.000 A 
ATOM     20  C   UNL     1       2.238   5.132  20.584  0.00  0.00    +0.000 A 
ATOM     21  O   UNL     1       2.071   6.471  20.949  0.00  0.00    +0.000 OA
BRANCH  16  22
ATOM     22  O   UNL     1       2.034   3.205  17.453  0.00  0.00    +0.000 OA
ATOM     23  H   UNL     1       1.329   2.534  17.339  0.00  0.00    +0.000 HD
ENDBRANCH  16  22
BRANCH  18  24
ATOM     24  O   UNL     1       1.765   1.774  21.963  0.00  0.00    +0.000 OA
ATOM     25  H   UNL     1       0.923   1.921  22.432  0.00  0.00    +0.000 HD
ENDBRANCH  18  24
ENDBRANCH   5  11
BRANCH   1  28
ATOM     26  C   UNL     1      -4.229  11.114  17.306  0.00  0.00    +0.000 A 
ATOM     27  C   UNL     1      -3.362  11.501  18.327  0.00  0.00    +0.000 A 
ATOM     28  C   UNL     1      -1.970  11.335  18.189  0.00  0.00    +0.000 A 
ATOM     29  C   UNL     1      -1.489  10.501  17.171  0.00  0.00    +0.000 A 
ATOM     30  C   UNL     1      -2.345  10.106  16.151  0.00  0.00    +0.000 A 
ATOM     31  C   UNL     1      -3.687  10.491  16.177  0.00  0.00    +0.000 A 
BRANCH  26  33
ATOM     32  C   UNL     1      -6.291  10.779  18.451  0.00  0.00    +0.000 C 
ATOM     33  O   UNL     1      -5.516  11.517  17.524  0.00  0.00    +0.000 OA
ENDBRANCH  26  33
BRANCH  31  34
ATOM     34  O   UNL     1      -4.402  10.320  15.026  0.00  0.00    +0.000 OA
ATOM     35  H   UNL     1      -5.287  10.007  15.285  0.00  0.00    +0.000 HD
ENDBRANCH  31  34
ENDBRANCH   1  28
BRANCH  10  36
ATOM     36  C   UNL     1      -1.627  14.332  20.472  0.00  0.00    +0.000 C 
BRANCH  36  37
ATOM     37  O   UNL     1      -1.202  15.096  19.352  0.00  0.00    +0.000 OA
ATOM     38  H   UNL     1      -0.698  14.486  18.780  0.00  0.00    +0.000 HD
ENDBRANCH  36  37
ENDBRANCH  10  36
TORSDOF 8
ENDMDL
MODEL 4
REMARK VINA RESULT:      -9.0      1.573      2.710
REMARK  Name = 
REMARK  9 active torsions:
REMARK  status: ('A' for Active; 'I' for Inactive)
REMARK    1  A    between atoms: C_1  and  O_2
REMARK    2  A    between atoms: O_2  and  C_3
REMARK    3  A    between atoms: C_5  and  C_6
REMARK    4  A    between atoms: C_10  and  C_11
REMARK    5  A    between atoms: C_16  and  O_17
REMARK    6  A    between atoms: C_19  and  O_20
REMARK    7  A    between atoms: C_28  and  C_29
REMARK    8  A    between atoms: C_29  and  O_30
REMARK    9  A    between atoms: C_33  and  O_34
REMARK                            x       y       z     vdW  Elec       q    Type
REMARK                         _______ _______ _______ _____ _____    ______ ____
ROOT
ATOM      1  C   UNL     1      -1.072  12.119  19.179  0.00  0.00    +0.000 C 
ATOM      2  O   UNL     1       0.301  11.642  18.982  0.00  0.00    +0.000 OA
ATOM      3  C   UNL     1       0.557  10.596  19.846  0.00  0.00    +0.000 A 
ATOM      4  C   UNL     1       1.105   9.382  19.393  0.00  0.00    +0.000 A 
ATOM      5  C   UNL     1       1.301   8.327  20.304  0.00  0.00    +0.000 A 
ATOM      6  C   UNL     1       0.946   8.572  21.657  0.00  0.00    +0.000 A 
ATOM      7  C   UNL     1       0.445   9.793  22.101  0.00  0.00    +0.000 A 
ATOM      8  C   UNL     1       0.205  10.789  21.182  0.00  0.00    +0.000 A 
ATOM      9  O   UNL     1      -0.387  11.941  21.611  0.00  0.00    +0.000 OA
ATOM     10  C   UNL     1      -1.401  12.383  20.680  0.00  0.00    +0.000 C 
ENDROOT
BRANCH   5  11
ATOM     11  C   UNL     1       1.957   7.008  19.982  0.00  0.00    +0.000 A 
ATOM     12  C   UNL     1       3.112   7.086  19.296  0.00  0.00    +0.000 A 
ATOM     13  C   UNL     1       3.744   5.842  18.886  0.00  0.00    +0.000 A 
ATOM     14  O   UNL     1       4.925   5.788  18.575  0.00  0.00    +0.000 OA
ATOM     15  C   UNL     1       2.839   4.715  18.787  0.00  0.00    +0.000 A 
ATOM     16  C   UNL     1       3.011   3.780  17.774  0.00  0.00    +0.000 A 
ATOM     17  C   UNL     1       2.214   2.651  17.748  0.00  0.00    +0.000 A 
ATOM     18  C   UNL     1       1.280   2.467  18.767  0.00  0.00    +0.000 A 
ATOM     19  C   UNL     1       1.033   3.468  19.727  0.00  0.00    +0.000 A 
ATOM     20  C   UNL     1       1.763   4.661  19.669  0.00  0.00    +0.000 A 
ATOM     21  O   UNL     1       1.352   5.800  20.367  0.00  0.00    +0.000 OA
BRANCH  16  22
ATOM     22  O   UNL     1       3.861   3.984  16.721  0.00  0.00    +0.000 OA
ATOM     23  H   UNL     1       4.177   4.911  16.742  0.00  0.00    +0.000 HD
ENDBRANCH  16  22
BRANCH  18  24
ATOM     24  O   UNL     1       0.549   1.315  18.810  0.00  0.00    +0.000 OA
ATOM     25  H   UNL     1       1.051   0.613  18.357  0.00  0.00    +0.000 HD
ENDBRANCH  18  24
ENDBRANCH   5  11
BRANCH   1  28
ATOM     26  C   UNL     1      -4.146  10.872  17.502  0.00  0.00    +0.000 A 
ATOM     27  C   UNL     1      -3.313  11.186  18.575  0.00  0.00    +0.000 A 
ATOM     28  C   UNL     1      -1.915  11.048  18.463  0.00  0.00    +0.000 A 
ATOM     29  C   UNL     1      -1.395  10.304  17.396  0.00  0.00    +0.000 A 
ATOM     30  C   UNL     1      -2.218   9.983  16.323  0.00  0.00    +0.000 A 
ATOM     31  C   UNL     1      -3.565  10.349  16.342  0.00  0.00    +0.000 A 
BRANCH  26  33
ATOM     32  C   UNL     1      -5.842  12.531  17.282  0.00  0.00    +0.000 C 
ATOM     33  O   UNL     1      -5.444  11.242  17.715  0.00  0.00    +0.000 OA
ENDBRANCH  26  33
BRANCH  31  34
ATOM     34  O   UNL     1      -4.246  10.264  15.161  0.00  0.00    +0.000 OA
ATOM     35  H   UNL     1      -5.101   9.839  15.357  0.00  0.00    +0.000 HD
ENDBRANCH  31  34
ENDBRANCH   1  28
BRANCH  10  36
ATOM     36  C   UNL     1      -1.679  13.862  20.981  0.00  0.00    +0.000 C 
BRANCH  36  37
ATOM     37  O   UNL     1      -2.735  14.380  20.185  0.00  0.00    +0.000 OA
ATOM     38  H   UNL     1      -2.348  15.099  19.649  0.00  0.00    +0.000 HD
ENDBRANCH  36  37
ENDBRANCH  10  36
TORSDOF 8
ENDMDL
MODEL 5
REMARK VINA RESULT:      -8.9      1.115      1.163
REMARK  Name = 
REMARK  9 active torsions:
REMARK  status: ('A' for Active; 'I' for Inactive)
REMARK    1  A    between atoms: C_1  and  O_2
REMARK    2  A    between atoms: O_2  and  C_3
REMARK    3  A    between atoms: C_5  and  C_6
REMARK    4  A    between atoms: C_10  and  C_11
REMARK    5  A    between atoms: C_16  and  O_17
REMARK    6  A    between atoms: C_19  and  O_20
REMARK    7  A    between atoms: C_28  and  C_29
REMARK    8  A    between atoms: C_29  and  O_30
REMARK    9  A    between atoms: C_33  and  O_34
REMARK                            x       y       z     vdW  Elec       q    Type
REMARK                         _______ _______ _______ _____ _____    ______ ____
ROOT
ATOM      1  C   UNL     1      -0.670  12.032  20.170  0.00  0.00    +0.000 C 
ATOM      2  O   UNL     1       0.666  11.739  19.639  0.00  0.00    +0.000 OA
ATOM      3  C   UNL     1       1.024  10.448  19.973  0.00  0.00    +0.000 A 
ATOM      4  C   UNL     1       1.506   9.544  19.010  0.00  0.00    +0.000 A 
ATOM      5  C   UNL     1       1.811   8.223  19.390  0.00  0.00    +0.000 A 
ATOM      6  C   UNL     1       1.629   7.890  20.758  0.00  0.00    +0.000 A 
ATOM      7  C   UNL     1       1.192   8.807  21.710  0.00  0.00    +0.000 A 
ATOM      8  C   UNL     1       0.843  10.074  21.305  0.00  0.00    +0.000 A 
ATOM      9  O   UNL     1       0.313  10.929  22.227  0.00  0.00    +0.000 OA
ATOM     10  C   UNL     1      -0.808  11.658  21.678  0.00  0.00    +0.000 C 
ENDROOT
BRANCH   5  11
ATOM     11  C   UNL     1       2.416   7.174  18.490  0.00  0.00    +0.000 A 
ATOM     12  C   UNL     1       1.942   5.927  18.652  0.00  0.00    +0.000 A 
ATOM     13  C   UNL     1       2.549   4.861  17.870  0.00  0.00    +0.000 A 
ATOM     14  O   UNL     1       1.987   3.792  17.688  0.00  0.00    +0.000 OA
ATOM     15  C   UNL     1       3.896   5.144  17.419  0.00  0.00    +0.000 A 
ATOM     16  C   UNL     1       4.838   4.123  17.384  0.00  0.00    +0.000 A 
ATOM     17  C   UNL     1       6.090   4.372  16.851  0.00  0.00    +0.000 A 
ATOM     18  C   UNL     1       6.357   5.638  16.331  0.00  0.00    +0.000 A 
ATOM     19  C   UNL     1       5.440   6.698  16.470  0.00  0.00    +0.000 A 
ATOM     20  C   UNL     1       4.224   6.464  17.121  0.00  0.00    +0.000 A 
ATOM     21  O   UNL     1       3.427   7.519  17.577  0.00  0.00    +0.000 OA
BRANCH  16  22
ATOM     22  O   UNL     1       4.625   2.903  17.965  0.00  0.00    +0.000 OA
ATOM     23  H   UNL     1       4.582   3.016  18.937  0.00  0.00    +0.000 HD
ENDBRANCH  16  22
BRANCH  18  24
ATOM     24  O   UNL     1       7.554   5.875  15.719  0.00  0.00    +0.000 OA
ATOM     25  H   UNL     1       8.212   6.097  16.402  0.00  0.00    +0.000 HD
ENDBRANCH  18  24
ENDBRANCH   5  11
BRANCH   1  28
ATOM     26  C   UNL     1      -3.921  11.451  18.464  0.00  0.00    +0.000 A 
ATOM     27  C   UNL     1      -2.977  11.349  19.485  0.00  0.00    +0.000 A 
ATOM     28  C   UNL     1      -1.601  11.298  19.187  0.00  0.00    +0.000 A 
ATOM     29  C   UNL     1      -1.206  11.034  17.869  0.00  0.00    +0.000 A 
ATOM     30  C   UNL     1      -2.141  11.130  16.845  0.00  0.00    +0.000 A 
ATOM     31  C   UNL     1      -3.472  11.427  17.140  0.00  0.00    +0.000 A 
BRANCH  26  33
ATOM     32  C   UNL     1      -5.477  12.971  19.437  0.00  0.00    +0.000 C 
ATOM     33  O   UNL     1      -5.184  11.680  18.934  0.00  0.00    +0.000 OA
ENDBRANCH  26  33
BRANCH  31  34
ATOM     34  O   UNL     1      -4.273  11.786  16.093  0.00  0.00    +0.000 OA
ATOM     35  H   UNL     1      -4.784  12.564  16.381  0.00  0.00    +0.000 HD
ENDBRANCH  31  34
ENDBRANCH   1  28
BRANCH  10  36
ATOM     36  C   UNL     1      -1.040  12.880  22.578  0.00  0.00    +0.000 C 
BRANCH  36  37
ATOM     37  O   UNL     1      -2.163  13.644  22.163  0.00  0.00    +0.000 OA
ATOM     38  H   UNL     1      -2.885  13.429  22.784  0.00  0.00    +0.000 HD
ENDBRANCH  36  37
ENDBRANCH  10  36
TORSDOF 8
ENDMDL
MODEL 6
REMARK VINA RESULT:      -8.7      1.382      1.566
REMARK  Name = 
REMARK  9 active torsions:
REMARK  status: ('A' for Active; 'I' for Inactive)
REMARK    1  A    between atoms: C_1  and  O_2
REMARK    2  A    between atoms: O_2  and  C_3
REMARK    3  A    between atoms: C_5  and  C_6
REMARK    4  A    between atoms: C_10  and  C_11
REMARK    5  A    between atoms: C_16  and  O_17
REMARK    6  A    between atoms: C_19  and  O_20
REMARK    7  A    between atoms: C_28  and  C_29
REMARK    8  A    between atoms: C_29  and  O_30
REMARK    9  A    between atoms: C_33  and  O_34
REMARK                            x       y       z     vdW  Elec       q    Type
REMARK                         _______ _______ _______ _____ _____    ______ ____
ROOT
ATOM      1  C   UNL     1      -0.465  12.114  19.130  0.00  0.00    +0.000 C 
ATOM      2  O   UNL     1       0.764  11.389  18.791  0.00  0.00    +0.000 OA
ATOM      3  C   UNL     1       0.948  10.349  19.681  0.00  0.00    +0.000 A 
ATOM      4  C   UNL     1       1.210   9.039  19.241  0.00  0.00    +0.000 A 
ATOM      5  C   UNL     1       1.341   8.004  20.185  0.00  0.00    +0.000 A 
ATOM      6  C   UNL     1       1.220   8.363  21.553  0.00  0.00    +0.000 A 
ATOM      7  C   UNL     1       1.005   9.672  21.978  0.00  0.00    +0.000 A 
ATOM      8  C   UNL     1       0.820  10.657  21.036  0.00  0.00    +0.000 A 
ATOM      9  O   UNL     1       0.501  11.913  21.462  0.00  0.00    +0.000 OA
ATOM     10  C   UNL     1      -0.537  12.494  20.640  0.00  0.00    +0.000 C 
ENDROOT
BRANCH   5  11
ATOM     11  C   UNL     1       1.707   6.575  19.867  0.00  0.00    +0.000 A 
ATOM     12  C   UNL     1       1.513   5.692  20.863  0.00  0.00    +0.000 A 
ATOM     13  C   UNL     1       1.927   4.315  20.640  0.00  0.00    +0.000 A 
ATOM     14  O   UNL     1       1.497   3.394  21.318  0.00  0.00    +0.000 OA
ATOM     15  C   UNL     1       2.950   4.155  19.628  0.00  0.00    +0.000 A 
ATOM     16  C   UNL     1       3.945   3.201  19.799  0.00  0.00    +0.000 A 
ATOM     17  C   UNL     1       4.855   2.977  18.782  0.00  0.00    +0.000 A 
ATOM     18  C   UNL     1       4.722   3.695  17.595  0.00  0.00    +0.000 A 
ATOM     19  C   UNL     1       3.783   4.737  17.467  0.00  0.00    +0.000 A 
ATOM     20  C   UNL     1       2.948   5.037  18.550  0.00  0.00    +0.000 A 
ATOM     21  O   UNL     1       2.239   6.240  18.612  0.00  0.00    +0.000 OA
BRANCH  16  22
ATOM     22  O   UNL     1       4.143   2.549  20.986  0.00  0.00    +0.000 OA
ATOM     23  H   UNL     1       3.536   1.783  21.033  0.00  0.00    +0.000 HD
ENDBRANCH  16  22
BRANCH  18  24
ATOM     24  O   UNL     1       5.553   3.422  16.546  0.00  0.00    +0.000 OA
ATOM     25  H   UNL     1       5.982   4.252  16.268  0.00  0.00    +0.000 HD
ENDBRANCH  18  24
ENDBRANCH   5  11
BRANCH   1  28
ATOM     26  C   UNL     1      -3.909  11.378  17.941  0.00  0.00    +0.000 A 
ATOM     27  C   UNL     1      -2.895  11.578  18.877  0.00  0.00    +0.000 A 
ATOM     28  C   UNL     1      -1.571  11.186  18.595  0.00  0.00    +0.000 A 
ATOM     29  C   UNL     1      -1.339  10.321  17.518  0.00  0.00    +0.000 A 
ATOM     30  C   UNL     1      -2.345  10.112  16.582  0.00  0.00    +0.000 A 
ATOM     31  C   UNL     1      -3.593  10.715  16.751  0.00  0.00    +0.000 A 
BRANCH  26  33
ATOM     32  C   UNL     1      -6.014  11.228  19.048  0.00  0.00    +0.000 C 
ATOM     33  O   UNL     1      -5.082  11.984  18.295  0.00  0.00    +0.000 OA
ENDBRANCH  26  33
BRANCH  31  34
ATOM     34  O   UNL     1      -4.433  10.709  15.674  0.00  0.00    +0.000 OA
ATOM     35  H   UNL     1      -4.830  11.597  15.620  0.00  0.00    +0.000 HD
ENDBRANCH  31  34
ENDBRANCH   1  28
BRANCH  10  36
ATOM     36  C   UNL     1      -0.509  14.010  20.878  0.00  0.00    +0.000 C 
BRANCH  36  37
ATOM     37  O   UNL     1      -1.468  14.694  20.083  0.00  0.00    +0.000 OA
ATOM     38  H   UNL     1      -2.190  14.058  19.917  0.00  0.00    +0.000 HD
ENDBRANCH  36  37
ENDBRANCH  10  36
TORSDOF 8
ENDMDL
MODEL 7
REMARK VINA RESULT:      -8.6      2.397      9.314
REMARK  Name = 
REMARK  9 active torsions:
REMARK  status: ('A' for Active; 'I' for Inactive)
REMARK    1  A    between atoms: C_1  and  O_2
REMARK    2  A    between atoms: O_2  and  C_3
REMARK    3  A    between atoms: C_5  and  C_6
REMARK    4  A    between atoms: C_10  and  C_11
REMARK    5  A    between atoms: C_16  and  O_17
REMARK    6  A    between atoms: C_19  and  O_20
REMARK    7  A    between atoms: C_28  and  C_29
REMARK    8  A    between atoms: C_29  and  O_30
REMARK    9  A    between atoms: C_33  and  O_34
REMARK                            x       y       z     vdW  Elec       q    Type
REMARK                         _______ _______ _______ _____ _____    ______ ____
ROOT
ATOM      1  C   UNL     1       4.087   3.408  17.621  0.00  0.00    +0.000 C 
ATOM      2  O   UNL     1       2.945   4.290  17.354  0.00  0.00    +0.000 OA
ATOM      3  C   UNL     1       2.489   4.828  18.542  0.00  0.00    +0.000 A 
ATOM      4  C   UNL     1       2.277   6.210  18.692  0.00  0.00    +0.000 A 
ATOM      5  C   UNL     1       1.859   6.717  19.937  0.00  0.00    +0.000 A 
ATOM      6  C   UNL     1       1.653   5.773  20.977  0.00  0.00    +0.000 A 
ATOM      7  C   UNL     1       1.824   4.402  20.803  0.00  0.00    +0.000 A 
ATOM      8  C   UNL     1       2.290   3.936  19.596  0.00  0.00    +0.000 A 
ATOM      9  O   UNL     1       2.558   2.604  19.473  0.00  0.00    +0.000 OA
ATOM     10  C   UNL     1       3.798   2.386  18.762  0.00  0.00    +0.000 C 
ENDROOT
BRANCH   5  11
ATOM     11  C   UNL     1       1.509   8.157  20.220  0.00  0.00    +0.000 A 
ATOM     12  C   UNL     1       1.159   8.430  21.489  0.00  0.00    +0.000 A 
ATOM     13  C   UNL     1       0.731   9.785  21.800  0.00  0.00    +0.000 A 
ATOM     14  O   UNL     1       0.724  10.214  22.943  0.00  0.00    +0.000 OA
ATOM     15  C   UNL     1       0.230  10.529  20.662  0.00  0.00    +0.000 A 
ATOM     16  C   UNL     1      -0.841  11.398  20.826  0.00  0.00    +0.000 A 
ATOM     17  C   UNL     1      -1.245  12.186  19.764  0.00  0.00    +0.000 A 
ATOM     18  C   UNL     1      -0.537  12.109  18.566  0.00  0.00    +0.000 A 
ATOM     19  C   UNL     1       0.474  11.149  18.369  0.00  0.00    +0.000 A 
ATOM     20  C   UNL     1       0.792  10.273  19.414  0.00  0.00    +0.000 A 
ATOM     21  O   UNL     1       1.534   9.110  19.188  0.00  0.00    +0.000 OA
BRANCH  16  22
ATOM     22  O   UNL     1      -1.600  11.426  21.964  0.00  0.00    +0.000 OA
ATOM     23  H   UNL     1      -1.086  11.032  22.699  0.00  0.00    +0.000 HD
ENDBRANCH  16  22
BRANCH  18  24
ATOM     24  O   UNL     1      -0.863  12.945  17.536  0.00  0.00    +0.000 OA
ATOM     25  H   UNL     1      -1.706  12.646  17.149  0.00  0.00    +0.000 HD
ENDBRANCH  18  24
ENDBRANCH   5  11
BRANCH   1  28
ATOM     26  C   UNL     1       6.775   5.716  16.497  0.00  0.00    +0.000 A 
ATOM     27  C   UNL     1       6.197   4.491  16.824  0.00  0.00    +0.000 A 
ATOM     28  C   UNL     1       5.241   4.400  17.855  0.00  0.00    +0.000 A 
ATOM     29  C   UNL     1       5.111   5.472  18.748  0.00  0.00    +0.000 A 
ATOM     30  C   UNL     1       5.687   6.697  18.433  0.00  0.00    +0.000 A 
ATOM     31  C   UNL     1       6.438   6.835  17.265  0.00  0.00    +0.000 A 
BRANCH  26  33
ATOM     32  C   UNL     1       7.075   4.823  14.308  0.00  0.00    +0.000 C 
ATOM     33  O   UNL     1       7.530   5.658  15.359  0.00  0.00    +0.000 OA
ENDBRANCH  26  33
BRANCH  31  34
ATOM     34  O   UNL     1       6.734   8.108  16.867  0.00  0.00    +0.000 OA
ATOM     35  H   UNL     1       6.345   8.225  15.981  0.00  0.00    +0.000 HD
ENDBRANCH  31  34
ENDBRANCH   1  28
BRANCH  10  36
ATOM     36  C   UNL     1       3.792   0.931  18.274  0.00  0.00    +0.000 C 
BRANCH  36  37
ATOM     37  O   UNL     1       4.770   0.141  18.935  0.00  0.00    +0.000 OA
ATOM     38  H   UNL     1       4.623  -0.779  18.642  0.00  0.00    +0.000 HD
ENDBRANCH  36  37
ENDBRANCH  10  36
TORSDOF 8
ENDMDL
MODEL 8
REMARK VINA RESULT:      -8.5      3.109      9.448
REMARK  Name = 
REMARK  9 active torsions:
REMARK  status: ('A' for Active; 'I' for Inactive)
REMARK    1  A    between atoms: C_1  and  O_2
REMARK    2  A    between atoms: O_2  and  C_3
REMARK    3  A    between atoms: C_5  and  C_6
REMARK    4  A    between atoms: C_10  and  C_11
REMARK    5  A    between atoms: C_16  and  O_17
REMARK    6  A    between atoms: C_19  and  O_20
REMARK    7  A    between atoms: C_28  and  C_29
REMARK    8  A    between atoms: C_29  and  O_30
REMARK    9  A    between atoms: C_33  and  O_34
REMARK                            x       y       z     vdW  Elec       q    Type
REMARK                         _______ _______ _______ _____ _____    ______ ____
ROOT
ATOM      1  C   UNL     1       3.244   3.556  17.520  0.00  0.00    +0.000 C 
ATOM      2  O   UNL     1       2.037   4.376  17.370  0.00  0.00    +0.000 OA
ATOM      3  C   UNL     1       1.950   5.267  18.422  0.00  0.00    +0.000 A 
ATOM      4  C   UNL     1       1.732   6.640  18.210  0.00  0.00    +0.000 A 
ATOM      5  C   UNL     1       1.701   7.516  19.311  0.00  0.00    +0.000 A 
ATOM      6  C   UNL     1       1.872   6.938  20.597  0.00  0.00    +0.000 A 
ATOM      7  C   UNL     1       2.042   5.570  20.797  0.00  0.00    +0.000 A 
ATOM      8  C   UNL     1       2.130   4.742  19.702  0.00  0.00    +0.000 A 
ATOM      9  O   UNL     1       2.406   3.422  19.906  0.00  0.00    +0.000 OA
ATOM     10  C   UNL     1       3.372   2.937  18.945  0.00  0.00    +0.000 C 
ENDROOT
BRANCH   5  11
ATOM     11  C   UNL     1       1.391   8.991  19.244  0.00  0.00    +0.000 A 
ATOM     12  C   UNL     1       2.193   9.716  18.445  0.00  0.00    +0.000 A 
ATOM     13  C   UNL     1       1.993  11.157  18.407  0.00  0.00    +0.000 A 
ATOM     14  O   UNL     1       2.418  11.844  17.490  0.00  0.00    +0.000 OA
ATOM     15  C   UNL     1       1.345  11.701  19.582  0.00  0.00    +0.000 A 
ATOM     16  C   UNL     1       1.738  12.940  20.074  0.00  0.00    +0.000 A 
ATOM     17  C   UNL     1       1.044  13.503  21.128  0.00  0.00    +0.000 A 
ATOM     18  C   UNL     1      -0.057  12.823  21.645  0.00  0.00    +0.000 A 
ATOM     19  C   UNL     1      -0.383  11.520  21.220  0.00  0.00    +0.000 A 
ATOM     20  C   UNL     1       0.403  10.910  20.235  0.00  0.00    +0.000 A 
ATOM     21  O   UNL     1       0.343   9.532  20.006  0.00  0.00    +0.000 OA
BRANCH  16  22
ATOM     22  O   UNL     1       2.865  13.581  19.637  0.00  0.00    +0.000 OA
ATOM     23  H   UNL     1       2.641  14.115  18.847  0.00  0.00    +0.000 HD
ENDBRANCH  16  22
BRANCH  18  24
ATOM     24  O   UNL     1      -0.810  13.405  22.625  0.00  0.00    +0.000 OA
ATOM     25  H   UNL     1      -1.646  12.911  22.708  0.00  0.00    +0.000 HD
ENDBRANCH  18  24
ENDBRANCH   5  11
BRANCH   1  28
ATOM     26  C   UNL     1       6.775   4.709  17.383  0.00  0.00    +0.000 A 
ATOM     27  C   UNL     1       5.495   4.571  17.918  0.00  0.00    +0.000 A 
ATOM     28  C   UNL     1       4.367   4.511  17.076  0.00  0.00    +0.000 A 
ATOM     29  C   UNL     1       4.504   4.903  15.738  0.00  0.00    +0.000 A 
ATOM     30  C   UNL     1       5.776   5.047  15.196  0.00  0.00    +0.000 A 
ATOM     31  C   UNL     1       6.903   4.859  15.998  0.00  0.00    +0.000 A 
BRANCH  26  33
ATOM     32  C   UNL     1       7.889   5.565  19.307  0.00  0.00    +0.000 C 
ATOM     33  O   UNL     1       7.759   4.558  18.320  0.00  0.00    +0.000 OA
ENDBRANCH  26  33
BRANCH  31  34
ATOM     34  O   UNL     1       8.103   4.732  15.359  0.00  0.00    +0.000 OA
ATOM     35  H   UNL     1       8.400   3.815  15.495  0.00  0.00    +0.000 HD
ENDBRANCH  31  34
ENDBRANCH   1  28
BRANCH  10  36
ATOM     36  C   UNL     1       3.280   1.405  18.942  0.00  0.00    +0.000 C 
BRANCH  36  37
ATOM     37  O   UNL     1       4.289   0.810  18.139  0.00  0.00    +0.000 OA
ATOM     38  H   UNL     1       4.718   0.132  18.695  0.00  0.00    +0.000 HD
ENDBRANCH  36  37
ENDBRANCH  10  36
TORSDOF 8
ENDMDL
MODEL 9
REMARK VINA RESULT:      -8.5      2.171      9.494
REMARK  Name = 
REMARK  9 active torsions:
REMARK  status: ('A' for Active; 'I' for Inactive)
REMARK    1  A    between atoms: C_1  and  O_2
REMARK    2  A    between atoms: O_2  and  C_3
REMARK    3  A    between atoms: C_5  and  C_6
REMARK    4  A    between atoms: C_10  and  C_11
REMARK    5  A    between atoms: C_16  and  O_17
REMARK    6  A    between atoms: C_19  and  O_20
REMARK    7  A    between atoms: C_28  and  C_29
REMARK    8  A    between atoms: C_29  and  O_30
REMARK    9  A    between atoms: C_33  and  O_34
REMARK                            x       y       z     vdW  Elec       q    Type
REMARK                         _______ _______ _______ _____ _____    ______ ____
ROOT
ATOM      1  C   UNL     1       3.579   3.613  17.473  0.00  0.00    +0.000 C 
ATOM      2  O   UNL     1       2.278   4.281  17.348  0.00  0.00    +0.000 OA
ATOM      3  C   UNL     1       2.216   5.342  18.230  0.00  0.00    +0.000 A 
ATOM      4  C   UNL     1       1.822   6.626  17.811  0.00  0.00    +0.000 A 
ATOM      5  C   UNL     1       1.823   7.687  18.736  0.00  0.00    +0.000 A 
ATOM      6  C   UNL     1       2.208   7.378  20.068  0.00  0.00    +0.000 A 
ATOM      7  C   UNL     1       2.554   6.094  20.480  0.00  0.00    +0.000 A 
ATOM      8  C   UNL     1       2.604   5.085  19.545  0.00  0.00    +0.000 A 
ATOM      9  O   UNL     1       3.049   3.857  19.938  0.00  0.00    +0.000 OA
ATOM     10  C   UNL     1       3.943   3.288  18.954  0.00  0.00    +0.000 C 
ENDROOT
BRANCH   5  11
ATOM     11  C   UNL     1       1.344   9.089  18.455  0.00  0.00    +0.000 A 
ATOM     12  C   UNL     1       2.295  10.040  18.466  0.00  0.00    +0.000 A 
ATOM     13  C   UNL     1       1.878  11.422  18.283  0.00  0.00    +0.000 A 
ATOM     14  O   UNL     1       2.662  12.294  17.943  0.00  0.00    +0.000 OA
ATOM     15  C   UNL     1       0.496  11.679  18.633  0.00  0.00    +0.000 A 
ATOM     16  C   UNL     1       0.153  12.878  19.247  0.00  0.00    +0.000 A 
ATOM     17  C   UNL     1      -1.179  13.166  19.480  0.00  0.00    +0.000 A 
ATOM     18  C   UNL     1      -2.144  12.254  19.057  0.00  0.00    +0.000 A 
ATOM     19  C   UNL     1      -1.789  10.994  18.538  0.00  0.00    +0.000 A 
ATOM     20  C   UNL     1      -0.434  10.665  18.421  0.00  0.00    +0.000 A 
ATOM     21  O   UNL     1      -0.019   9.343  18.230  0.00  0.00    +0.000 OA
BRANCH  16  22
ATOM     22  O   UNL     1       1.088  13.744  19.744  0.00  0.00    +0.000 OA
ATOM     23  H   UNL     1       1.144  13.630  20.716  0.00  0.00    +0.000 HD
ENDBRANCH  16  22
BRANCH  18  24
ATOM     24  O   UNL     1      -3.468  12.562  19.195  0.00  0.00    +0.000 OA
ATOM     25  H   UNL     1      -3.960  11.739  19.369  0.00  0.00    +0.000 HD
ENDBRANCH  18  24
ENDBRANCH   5  11
BRANCH   1  28
ATOM     26  C   UNL     1       6.863   5.240  16.855  0.00  0.00    +0.000 A 
ATOM     27  C   UNL     1       5.620   5.059  17.459  0.00  0.00    +0.000 A 
ATOM     28  C   UNL     1       4.528   4.564  16.720  0.00  0.00    +0.000 A 
ATOM     29  C   UNL     1       4.610   4.554  15.321  0.00  0.00    +0.000 A 
ATOM     30  C   UNL     1       5.844   4.737  14.709  0.00  0.00    +0.000 A 
ATOM     31  C   UNL     1       6.978   4.988  15.484  0.00  0.00    +0.000 A 
BRANCH  26  33
ATOM     32  C   UNL     1       7.895   6.864  18.260  0.00  0.00    +0.000 C 
ATOM     33  O   UNL     1       7.848   5.543  17.753  0.00  0.00    +0.000 OA
ENDBRANCH  26  33
BRANCH  31  34
ATOM     34  O   UNL     1       8.189   4.876  14.862  0.00  0.00    +0.000 OA
ATOM     35  H   UNL     1       8.570   5.771  14.821  0.00  0.00    +0.000 HD
ENDBRANCH  31  34
ENDBRANCH   1  28
BRANCH  10  36
ATOM     36  C   UNL     1       4.023   1.780  19.232  0.00  0.00    +0.000 C 
BRANCH  36  37
ATOM     37  O   UNL     1       5.142   1.445  20.041  0.00  0.00    +0.000 OA
ATOM     38  H   UNL     1       4.945   0.573  20.434  0.00  0.00    +0.000 HD
ENDBRANCH  36  37
ENDBRANCH  10  36
TORSDOF 8
ENDMDL
