MODEL 1
REMARK VINA RESULT:      -7.8      0.000      0.000
REMARK  Name = 
REMARK  9 active torsions:
REMARK  status: ('A' for Active; 'I' for Inactive)
REMARK    1  A    between atoms: C_1  and  C_2
REMARK    2  A    between atoms: C_2  and  N_3
REMARK    3  A    between atoms: N_3  and  C_4
REMARK    4  A    between atoms: C_4  and  C_5
REMARK    5  A    between atoms: C_19  and  N_20
REMARK    6  A    between atoms: C_21  and  O_23
REMARK    7  A    between atoms: O_23  and  C_24
REMARK    8  A    between atoms: C_24  and  C_25
REMARK    9  A    between atoms: C_24  and  C_26
REMARK                            x       y       z     vdW  Elec       q    Type
REMARK                         _______ _______ _______ _____ _____    ______ ____
ROOT
ATOM      1  C   UNL     1       2.675   6.760  18.635  0.00  0.00    +0.000 C 
ATOM      2  O   UNL     1       1.595   6.848  19.202  0.00  0.00    +0.000 OA
ATOM      3  N   UNL     1       3.395   5.582  18.705  0.00  0.00    +0.000 N 
ATOM      4  C   UNL     1       2.958   4.475  19.517  0.00  0.00    +0.000 A 
ATOM      5  C   UNL     1       2.468   4.744  20.817  0.00  0.00    +0.000 A 
ATOM      6  C   UNL     1       2.106   3.717  21.687  0.00  0.00    +0.000 A 
ATOM      7  C   UNL     1       2.217   2.396  21.285  0.00  0.00    +0.000 A 
ATOM      8  C   UNL     1       2.692   2.092  20.013  0.00  0.00    +0.000 A 
ATOM      9  C   UNL     1       3.067   3.106  19.109  0.00  0.00    +0.000 A 
ATOM     10  C   UNL     1       3.534   2.599  17.755  0.00  0.00    +0.000 C 
ATOM     11  C   UNL     1       3.858   3.616  16.666  0.00  0.00    +0.000 C 
ATOM     12  C   UNL     1       4.946   4.538  17.109  0.00  0.00    +0.000 A 
ATOM     13  C   UNL     1       6.215   4.468  16.529  0.00  0.00    +0.000 A 
ATOM     14  C   UNL     1       7.232   5.320  16.946  0.00  0.00    +0.000 A 
ATOM     15  C   UNL     1       7.007   6.280  17.959  0.00  0.00    +0.000 A 
ATOM     16  C   UNL     1       5.724   6.341  18.529  0.00  0.00    +0.000 A 
ATOM     17  C   UNL     1       4.686   5.486  18.100  0.00  0.00    +0.000 A 
ENDROOT
BRANCH  15  18
ATOM     18  N   UNL     1       8.024   7.166  18.462  0.00  0.00    +0.000 N 
ATOM     19  C   UNL     1       8.181   8.484  18.122  0.00  0.00    +0.000 C 
ATOM     20  O   UNL     1       7.381   9.045  17.392  0.00  0.00    +0.000 OA
ATOM     21  H   UNL     1       8.698   6.783  19.147  0.00  0.00    +0.000 HD
BRANCH  19  22
ATOM     22  O   UNL     1       9.243   9.190  18.601  0.00  0.00    +0.000 OA
BRANCH  22  23
ATOM     23  C   UNL     1       9.196  10.558  18.836  0.00  0.00    +0.000 C 
ATOM     24  C   UNL     1       9.475  10.850  20.314  0.00  0.00    +0.000 C 
ATOM     25  C   UNL     1      10.195  11.281  17.943  0.00  0.00    +0.000 C 
ENDBRANCH  22  23
ENDBRANCH  19  22
ENDBRANCH  15  18
BRANCH   1  26
ATOM     26  C   UNL     1       3.121   7.933  17.762  0.00  0.00    +0.000 C 
BRANCH  26  27
ATOM     27  N   UNL     1       2.000   8.792  17.345  0.00  0.00    +0.000 NA
ATOM     28  H   UNL     1       2.131   8.989  16.324  0.00  0.00    +0.000 HD
BRANCH  27  30
ATOM     29  C   UNL     1       0.712  10.338  18.782  0.00  0.00    +0.000 C 
ATOM     30  C   UNL     1       2.028  10.082  18.056  0.00  0.00    +0.000 C 
ENDBRANCH  27  30
ENDBRANCH  26  27
ENDBRANCH   1  26
TORSDOF 6
ENDMDL
MODEL 2
REMARK VINA RESULT:      -6.9      4.115      8.965
REMARK  Name = 
REMARK  9 active torsions:
REMARK  status: ('A' for Active; 'I' for Inactive)
REMARK    1  A    between atoms: C_1  and  C_2
REMARK    2  A    between atoms: C_2  and  N_3
REMARK    3  A    between atoms: N_3  and  C_4
REMARK    4  A    between atoms: C_4  and  C_5
REMARK    5  A    between atoms: C_19  and  N_20
REMARK    6  A    between atoms: C_21  and  O_23
REMARK    7  A    between atoms: O_23  and  C_24
REMARK    8  A    between atoms: C_24  and  C_25
REMARK    9  A    between atoms: C_24  and  C_26
REMARK                            x       y       z     vdW  Elec       q    Type
REMARK                         _______ _______ _______ _____ _____    ______ ____
ROOT
ATOM      1  C   UNL     1      -1.003  11.889  18.788  0.00  0.00    +0.000 C 
ATOM      2  O   UNL     1      -1.094  12.792  17.968  0.00  0.00    +0.000 OA
ATOM      3  N   UNL     1      -0.427  12.134  20.021  0.00  0.00    +0.000 N 
ATOM      4  C   UNL     1       0.167  13.408  20.338  0.00  0.00    +0.000 A 
ATOM      5  C   UNL     1       0.980  14.035  19.365  0.00  0.00    +0.000 A 
ATOM      6  C   UNL     1       1.651  15.227  19.633  0.00  0.00    +0.000 A 
ATOM      7  C   UNL     1       1.528  15.828  20.875  0.00  0.00    +0.000 A 
ATOM      8  C   UNL     1       0.735  15.243  21.857  0.00  0.00    +0.000 A 
ATOM      9  C   UNL     1       0.043  14.038  21.619  0.00  0.00    +0.000 A 
ATOM     10  C   UNL     1      -0.799  13.557  22.788  0.00  0.00    +0.000 C 
ATOM     11  C   UNL     1      -1.675  12.323  22.599  0.00  0.00    +0.000 C 
ATOM     12  C   UNL     1      -0.847  11.137  22.228  0.00  0.00    +0.000 A 
ATOM     13  C   UNL     1      -0.670  10.085  23.131  0.00  0.00    +0.000 A 
ATOM     14  C   UNL     1       0.109   8.984  22.790  0.00  0.00    +0.000 A 
ATOM     15  C   UNL     1       0.733   8.898  21.525  0.00  0.00    +0.000 A 
ATOM     16  C   UNL     1       0.542   9.961  20.627  0.00  0.00    +0.000 A 
ATOM     17  C   UNL     1      -0.258  11.075  20.964  0.00  0.00    +0.000 A 
ENDROOT
BRANCH  15  18
ATOM     18  N   UNL     1       1.580   7.804  21.124  0.00  0.00    +0.000 N 
ATOM     19  C   UNL     1       2.066   7.587  19.862  0.00  0.00    +0.000 C 
ATOM     20  O   UNL     1       1.867   8.387  18.964  0.00  0.00    +0.000 OA
ATOM     21  H   UNL     1       1.857   7.121  21.849  0.00  0.00    +0.000 HD
BRANCH  19  22
ATOM     22  O   UNL     1       2.785   6.461  19.593  0.00  0.00    +0.000 OA
BRANCH  22  23
ATOM     23  C   UNL     1       3.001   5.993  18.304  0.00  0.00    +0.000 C 
ATOM     24  C   UNL     1       4.464   5.572  18.131  0.00  0.00    +0.000 C 
ATOM     25  C   UNL     1       2.064   4.830  18.002  0.00  0.00    +0.000 C 
ENDBRANCH  22  23
ENDBRANCH  19  22
ENDBRANCH  15  18
BRANCH   1  26
ATOM     26  C   UNL     1      -1.651  10.547  18.448  0.00  0.00    +0.000 C 
BRANCH  26  27
ATOM     27  N   UNL     1      -1.546  10.209  17.019  0.00  0.00    +0.000 NA
ATOM     28  H   UNL     1      -1.141  11.047  16.536  0.00  0.00    +0.000 HD
BRANCH  27  30
ATOM     29  C   UNL     1      -2.898  10.296  14.950  0.00  0.00    +0.000 C 
ATOM     30  C   UNL     1      -2.875   9.955  16.436  0.00  0.00    +0.000 C 
ENDBRANCH  27  30
ENDBRANCH  26  27
ENDBRANCH   1  26
TORSDOF 6
ENDMDL
MODEL 3
REMARK VINA RESULT:      -6.8      6.956     11.012
REMARK  Name = 
REMARK  9 active torsions:
REMARK  status: ('A' for Active; 'I' for Inactive)
REMARK    1  A    between atoms: C_1  and  C_2
REMARK    2  A    between atoms: C_2  and  N_3
REMARK    3  A    between atoms: N_3  and  C_4
REMARK    4  A    between atoms: C_4  and  C_5
REMARK    5  A    between atoms: C_19  and  N_20
REMARK    6  A    between atoms: C_21  and  O_23
REMARK    7  A    between atoms: O_23  and  C_24
REMARK    8  A    between atoms: C_24  and  C_25
REMARK    9  A    between atoms: C_24  and  C_26
REMARK                            x       y       z     vdW  Elec       q    Type
REMARK                         _______ _______ _______ _____ _____    ______ ____
ROOT
ATOM      1  C   UNL     1      -0.040  12.839  21.570  0.00  0.00    +0.000 C 
ATOM      2  O   UNL     1       0.623  13.597  22.266  0.00  0.00    +0.000 OA
ATOM      3  N   UNL     1       0.238  12.722  20.221  0.00  0.00    +0.000 N 
ATOM      4  C   UNL     1       1.228  13.549  19.579  0.00  0.00    +0.000 A 
ATOM      5  C   UNL     1       1.265  14.927  19.896  0.00  0.00    +0.000 A 
ATOM      6  C   UNL     1       2.141  15.800  19.253  0.00  0.00    +0.000 A 
ATOM      7  C   UNL     1       3.005  15.324  18.280  0.00  0.00    +0.000 A 
ATOM      8  C   UNL     1       2.999  13.975  17.942  0.00  0.00    +0.000 A 
ATOM      9  C   UNL     1       2.126  13.065  18.573  0.00  0.00    +0.000 A 
ATOM     10  C   UNL     1       2.273  11.628  18.106  0.00  0.00    +0.000 C 
ATOM     11  C   UNL     1       1.455  10.545  18.802  0.00  0.00    +0.000 C 
ATOM     12  C   UNL     1      -0.007  10.825  18.678  0.00  0.00    +0.000 A 
ATOM     13  C   UNL     1      -0.817  10.021  17.872  0.00  0.00    +0.000 A 
ATOM     14  C   UNL     1      -2.178  10.286  17.749  0.00  0.00    +0.000 A 
ATOM     15  C   UNL     1      -2.773  11.366  18.438  0.00  0.00    +0.000 A 
ATOM     16  C   UNL     1      -1.947  12.162  19.249  0.00  0.00    +0.000 A 
ATOM     17  C   UNL     1      -0.568  11.889  19.386  0.00  0.00    +0.000 A 
ENDROOT
BRANCH  15  18
ATOM     18  N   UNL     1      -4.166  11.715  18.326  0.00  0.00    +0.000 N 
ATOM     19  C   UNL     1      -4.875  11.824  17.159  0.00  0.00    +0.000 C 
ATOM     20  O   UNL     1      -4.368  11.544  16.086  0.00  0.00    +0.000 OA
ATOM     21  H   UNL     1      -4.687  11.895  19.201  0.00  0.00    +0.000 HD
BRANCH  19  22
ATOM     22  O   UNL     1      -6.168  12.253  17.183  0.00  0.00    +0.000 OA
BRANCH  22  23
ATOM     23  C   UNL     1      -6.551  13.465  17.741  0.00  0.00    +0.000 C 
ATOM     24  C   UNL     1      -7.016  14.429  16.644  0.00  0.00    +0.000 C 
ATOM     25  C   UNL     1      -7.652  13.246  18.771  0.00  0.00    +0.000 C 
ENDBRANCH  22  23
ENDBRANCH  19  22
ENDBRANCH  15  18
BRANCH   1  26
ATOM     26  C   UNL     1      -1.075  11.955  22.264  0.00  0.00    +0.000 C 
BRANCH  26  27
ATOM     27  N   UNL     1      -0.475  11.032  23.243  0.00  0.00    +0.000 NA
ATOM     28  H   UNL     1       0.540  11.285  23.317  0.00  0.00    +0.000 HD
BRANCH  27  30
ATOM     29  C   UNL     1       0.784   9.167  22.217  0.00  0.00    +0.000 C 
ATOM     30  C   UNL     1      -0.555   9.638  22.775  0.00  0.00    +0.000 C 
ENDBRANCH  27  30
ENDBRANCH  26  27
ENDBRANCH   1  26
TORSDOF 6
ENDMDL
MODEL 4
REMARK VINA RESULT:      -6.7      4.336      8.730
REMARK  Name = 
REMARK  9 active torsions:
REMARK  status: ('A' for Active; 'I' for Inactive)
REMARK    1  A    between atoms: C_1  and  C_2
REMARK    2  A    between atoms: C_2  and  N_3
REMARK    3  A    between atoms: N_3  and  C_4
REMARK    4  A    between atoms: C_4  and  C_5
REMARK    5  A    between atoms: C_19  and  N_20
REMARK    6  A    between atoms: C_21  and  O_23
REMARK    7  A    between atoms: O_23  and  C_24
REMARK    8  A    between atoms: C_24  and  C_25
REMARK    9  A    between atoms: C_24  and  C_26
REMARK                            x       y       z     vdW  Elec       q    Type
REMARK                         _______ _______ _______ _____ _____    ______ ____
ROOT
ATOM      1  C   UNL     1      -1.222  11.325  18.478  0.00  0.00    +0.000 C 
ATOM      2  O   UNL     1      -1.569  12.243  17.747  0.00  0.00    +0.000 OA
ATOM      3  N   UNL     1      -0.476  11.590  19.611  0.00  0.00    +0.000 N 
ATOM      4  C   UNL     1      -0.002  12.917  19.910  0.00  0.00    +0.000 A 
ATOM      5  C   UNL     1       0.542  13.693  18.860  0.00  0.00    +0.000 A 
ATOM      6  C   UNL     1       1.094  14.952  19.093  0.00  0.00    +0.000 A 
ATOM      7  C   UNL     1       1.115  15.473  20.376  0.00  0.00    +0.000 A 
ATOM      8  C   UNL     1       0.586  14.742  21.435  0.00  0.00    +0.000 A 
ATOM      9  C   UNL     1       0.022  13.466  21.234  0.00  0.00    +0.000 A 
ATOM     10  C   UNL     1      -0.535  12.821  22.491  0.00  0.00    +0.000 C 
ATOM     11  C   UNL     1      -1.268  11.488  22.368  0.00  0.00    +0.000 C 
ATOM     12  C   UNL     1      -0.373  10.445  21.784  0.00  0.00    +0.000 A 
ATOM     13  C   UNL     1       0.091   9.387  22.570  0.00  0.00    +0.000 A 
ATOM     14  C   UNL     1       0.931   8.419  22.029  0.00  0.00    +0.000 A 
ATOM     15  C   UNL     1       1.331   8.477  20.675  0.00  0.00    +0.000 A 
ATOM     16  C   UNL     1       0.852   9.544  19.896  0.00  0.00    +0.000 A 
ATOM     17  C   UNL     1      -0.011  10.521  20.437  0.00  0.00    +0.000 A 
ENDROOT
BRANCH  15  18
ATOM     18  N   UNL     1       2.226   7.529  20.064  0.00  0.00    +0.000 N 
ATOM     19  C   UNL     1       2.164   6.167  20.195  0.00  0.00    +0.000 C 
ATOM     20  O   UNL     1       1.253   5.634  20.807  0.00  0.00    +0.000 OA
ATOM     21  H   UNL     1       2.983   7.901  19.466  0.00  0.00    +0.000 HD
BRANCH  19  22
ATOM     22  O   UNL     1       3.129   5.383  19.638  0.00  0.00    +0.000 OA
BRANCH  22  23
ATOM     23  C   UNL     1       2.842   4.254  18.882  0.00  0.00    +0.000 C 
ATOM     24  C   UNL     1       1.802   4.585  17.807  0.00  0.00    +0.000 C 
ATOM     25  C   UNL     1       4.116   3.705  18.252  0.00  0.00    +0.000 C 
ENDBRANCH  22  23
ENDBRANCH  19  22
ENDBRANCH  15  18
BRANCH   1  26
ATOM     26  C   UNL     1      -1.744   9.923  18.160  0.00  0.00    +0.000 C 
BRANCH  26  27
ATOM     27  N   UNL     1      -3.000   9.943  17.392  0.00  0.00    +0.000 NA
ATOM     28  H   UNL     1      -3.608   9.183  17.782  0.00  0.00    +0.000 HD
BRANCH  27  30
ATOM     29  C   UNL     1      -3.330  10.724  15.069  0.00  0.00    +0.000 C 
ATOM     30  C   UNL     1      -2.757   9.637  15.971  0.00  0.00    +0.000 C 
ENDBRANCH  27  30
ENDBRANCH  26  27
ENDBRANCH   1  26
TORSDOF 6
ENDMDL
MODEL 5
REMARK VINA RESULT:      -6.4      3.443      7.737
REMARK  Name = 
REMARK  9 active torsions:
REMARK  status: ('A' for Active; 'I' for Inactive)
REMARK    1  A    between atoms: C_1  and  C_2
REMARK    2  A    between atoms: C_2  and  N_3
REMARK    3  A    between atoms: N_3  and  C_4
REMARK    4  A    between atoms: C_4  and  C_5
REMARK    5  A    between atoms: C_19  and  N_20
REMARK    6  A    between atoms: C_21  and  O_23
REMARK    7  A    between atoms: O_23  and  C_24
REMARK    8  A    between atoms: C_24  and  C_25
REMARK    9  A    between atoms: C_24  and  C_26
REMARK                            x       y       z     vdW  Elec       q    Type
REMARK                         _______ _______ _______ _____ _____    ______ ____
ROOT
ATOM      1  C   UNL     1      -1.214  11.105  18.003  0.00  0.00    +0.000 C 
ATOM      2  O   UNL     1      -1.738  12.119  17.564  0.00  0.00    +0.000 OA
ATOM      3  N   UNL     1      -0.294  11.194  19.032  0.00  0.00    +0.000 N 
ATOM      4  C   UNL     1       0.149  12.467  19.541  0.00  0.00    +0.000 A 
ATOM      5  C   UNL     1       0.452  13.495  18.617  0.00  0.00    +0.000 A 
ATOM      6  C   UNL     1       0.963  14.723  19.035  0.00  0.00    +0.000 A 
ATOM      7  C   UNL     1       1.183  14.961  20.382  0.00  0.00    +0.000 A 
ATOM      8  C   UNL     1       0.894  13.975  21.321  0.00  0.00    +0.000 A 
ATOM      9  C   UNL     1       0.376  12.723  20.932  0.00  0.00    +0.000 A 
ATOM     10  C   UNL     1       0.090  11.777  22.086  0.00  0.00    +0.000 C 
ATOM     11  C   UNL     1      -0.575  10.438  21.786  0.00  0.00    +0.000 C 
ATOM     12  C   UNL     1       0.259   9.631  20.846  0.00  0.00    +0.000 A 
ATOM     13  C   UNL     1       0.915   8.480  21.290  0.00  0.00    +0.000 A 
ATOM     14  C   UNL     1       1.700   7.732  20.417  0.00  0.00    +0.000 A 
ATOM     15  C   UNL     1       1.847   8.112  19.064  0.00  0.00    +0.000 A 
ATOM     16  C   UNL     1       1.177   9.269  18.632  0.00  0.00    +0.000 A 
ATOM     17  C   UNL     1       0.371  10.024  19.511  0.00  0.00    +0.000 A 
ENDROOT
BRANCH  15  18
ATOM     18  N   UNL     1       2.672   7.404  18.120  0.00  0.00    +0.000 N 
ATOM     19  C   UNL     1       3.520   6.368  18.414  0.00  0.00    +0.000 C 
ATOM     20  O   UNL     1       3.580   5.903  19.539  0.00  0.00    +0.000 OA
ATOM     21  H   UNL     1       2.621   7.691  17.128  0.00  0.00    +0.000 HD
BRANCH  19  22
ATOM     22  O   UNL     1       4.316   5.842  17.441  0.00  0.00    +0.000 OA
BRANCH  22  23
ATOM     23  C   UNL     1       5.109   6.621  16.610  0.00  0.00    +0.000 C 
ATOM     24  C   UNL     1       6.410   7.003  17.325  0.00  0.00    +0.000 C 
ATOM     25  C   UNL     1       5.402   5.878  15.313  0.00  0.00    +0.000 C 
ENDBRANCH  22  23
ENDBRANCH  19  22
ENDBRANCH  15  18
BRANCH   1  26
ATOM     26  C   UNL     1      -1.703   9.759  17.468  0.00  0.00    +0.000 C 
BRANCH  26  27
ATOM     27  N   UNL     1      -2.935   9.877  16.669  0.00  0.00    +0.000 NA
ATOM     28  H   UNL     1      -3.557   9.080  16.948  0.00  0.00    +0.000 HD
BRANCH  27  30
ATOM     29  C   UNL     1      -3.841  10.181  14.388  0.00  0.00    +0.000 C 
ATOM     30  C   UNL     1      -2.649   9.739  15.230  0.00  0.00    +0.000 C 
ENDBRANCH  27  30
ENDBRANCH  26  27
ENDBRANCH   1  26
TORSDOF 6
ENDMDL
MODEL 6
REMARK VINA RESULT:      -6.4      3.789      8.305
REMARK  Name = 
REMARK  9 active torsions:
REMARK  status: ('A' for Active; 'I' for Inactive)
REMARK    1  A    between atoms: C_1  and  C_2
REMARK    2  A    between atoms: C_2  and  N_3
REMARK    3  A    between atoms: N_3  and  C_4
REMARK    4  A    between atoms: C_4  and  C_5
REMARK    5  A    between atoms: C_19  and  N_20
REMARK    6  A    between atoms: C_21  and  O_23
REMARK    7  A    between atoms: O_23  and  C_24
REMARK    8  A    between atoms: C_24  and  C_25
REMARK    9  A    between atoms: C_24  and  C_26
REMARK                            x       y       z     vdW  Elec       q    Type
REMARK                         _______ _______ _______ _____ _____    ______ ____
ROOT
ATOM      1  C   UNL     1      -1.117  11.415  18.222  0.00  0.00    +0.000 C 
ATOM      2  O   UNL     1      -1.462  12.396  17.578  0.00  0.00    +0.000 OA
ATOM      3  N   UNL     1      -0.344  11.574  19.358  0.00  0.00    +0.000 N 
ATOM      4  C   UNL     1       0.157  12.864  19.756  0.00  0.00    +0.000 A 
ATOM      5  C   UNL     1       0.694  13.716  18.762  0.00  0.00    +0.000 A 
ATOM      6  C   UNL     1       1.271  14.943  19.088  0.00  0.00    +0.000 A 
ATOM      7  C   UNL     1       1.326  15.356  20.409  0.00  0.00    +0.000 A 
ATOM      8  C   UNL     1       0.805  14.547  21.414  0.00  0.00    +0.000 A 
ATOM      9  C   UNL     1       0.216  13.300  21.120  0.00  0.00    +0.000 A 
ATOM     10  C   UNL     1      -0.327  12.562  22.331  0.00  0.00    +0.000 C 
ATOM     11  C   UNL     1      -1.084  11.256  22.112  0.00  0.00    +0.000 C 
ATOM     12  C   UNL     1      -0.219  10.251  21.425  0.00  0.00    +0.000 A 
ATOM     13  C   UNL     1       0.242   9.125  22.112  0.00  0.00    +0.000 A 
ATOM     14  C   UNL     1       1.056   8.192  21.476  0.00  0.00    +0.000 A 
ATOM     15  C   UNL     1       1.430   8.356  20.123  0.00  0.00    +0.000 A 
ATOM     16  C   UNL     1       0.954   9.491  19.445  0.00  0.00    +0.000 A 
ATOM     17  C   UNL     1       0.118  10.433  20.083  0.00  0.00    +0.000 A 
ENDROOT
BRANCH  15  18
ATOM     18  N   UNL     1       2.297   7.449  19.418  0.00  0.00    +0.000 N 
ATOM     19  C   UNL     1       2.358   6.092  19.599  0.00  0.00    +0.000 C 
ATOM     20  O   UNL     1       1.588   5.523  20.354  0.00  0.00    +0.000 OA
ATOM     21  H   UNL     1       2.929   7.847  18.703  0.00  0.00    +0.000 HD
BRANCH  19  22
ATOM     22  O   UNL     1       3.289   5.356  18.931  0.00  0.00    +0.000 OA
BRANCH  22  23
ATOM     23  C   UNL     1       4.488   5.888  18.475  0.00  0.00    +0.000 C 
ATOM     24  C   UNL     1       5.666   5.255  19.222  0.00  0.00    +0.000 C 
ATOM     25  C   UNL     1       4.622   5.674  16.973  0.00  0.00    +0.000 C 
ENDBRANCH  22  23
ENDBRANCH  19  22
ENDBRANCH  15  18
BRANCH   1  26
ATOM     26  C   UNL     1      -1.668  10.053  17.800  0.00  0.00    +0.000 C 
BRANCH  26  27
ATOM     27  N   UNL     1      -3.102  10.097  17.466  0.00  0.00    +0.000 NA
ATOM     28  H   UNL     1      -3.590   9.450  18.132  0.00  0.00    +0.000 HD
BRANCH  27  30
ATOM     29  C   UNL     1      -3.188  10.714  15.073  0.00  0.00    +0.000 C 
ATOM     30  C   UNL     1      -3.343   9.598  16.101  0.00  0.00    +0.000 C 
ENDBRANCH  27  30
ENDBRANCH  26  27
ENDBRANCH   1  26
TORSDOF 6
ENDMDL
MODEL 7
REMARK VINA RESULT:      -6.4      6.236     10.680
REMARK  Name = 
REMARK  9 active torsions:
REMARK  status: ('A' for Active; 'I' for Inactive)
REMARK    1  A    between atoms: C_1  and  C_2
REMARK    2  A    between atoms: C_2  and  N_3
REMARK    3  A    between atoms: N_3  and  C_4
REMARK    4  A    between atoms: C_4  and  C_5
REMARK    5  A    between atoms: C_19  and  N_20
REMARK    6  A    between atoms: C_21  and  O_23
REMARK    7  A    between atoms: O_23  and  C_24
REMARK    8  A    between atoms: C_24  and  C_25
REMARK    9  A    between atoms: C_24  and  C_26
REMARK                            x       y       z     vdW  Elec       q    Type
REMARK                         _______ _______ _______ _____ _____    ______ ____
ROOT
ATOM      1  C   UNL     1      -0.486  10.882  22.436  0.00  0.00    +0.000 C 
ATOM      2  O   UNL     1      -0.772  10.329  23.489  0.00  0.00    +0.000 OA
ATOM      3  N   UNL     1      -0.919  12.173  22.195  0.00  0.00    +0.000 N 
ATOM      4  C   UNL     1      -1.791  12.860  23.113  0.00  0.00    +0.000 A 
ATOM      5  C   UNL     1      -2.881  12.150  23.669  0.00  0.00    +0.000 A 
ATOM      6  C   UNL     1      -3.812  12.775  24.497  0.00  0.00    +0.000 A 
ATOM      7  C   UNL     1      -3.680  14.120  24.798  0.00  0.00    +0.000 A 
ATOM      8  C   UNL     1      -2.620  14.852  24.273  0.00  0.00    +0.000 A 
ATOM      9  C   UNL     1      -1.662  14.251  23.431  0.00  0.00    +0.000 A 
ATOM     10  C   UNL     1      -0.556  15.186  22.972  0.00  0.00    +0.000 C 
ATOM     11  C   UNL     1       0.593  14.612  22.149  0.00  0.00    +0.000 C 
ATOM     12  C   UNL     1       0.083  13.996  20.887  0.00  0.00    +0.000 A 
ATOM     13  C   UNL     1       0.343  14.594  19.651  0.00  0.00    +0.000 A 
ATOM     14  C   UNL     1      -0.139  14.026  18.476  0.00  0.00    +0.000 A 
ATOM     15  C   UNL     1      -0.893  12.831  18.501  0.00  0.00    +0.000 A 
ATOM     16  C   UNL     1      -1.141  12.239  19.751  0.00  0.00    +0.000 A 
ATOM     17  C   UNL     1      -0.644  12.806  20.945  0.00  0.00    +0.000 A 
ENDROOT
BRANCH  15  18
ATOM     18  N   UNL     1      -1.450  12.212  17.326  0.00  0.00    +0.000 N 
ATOM     19  C   UNL     1      -1.777  10.888  17.194  0.00  0.00    +0.000 C 
ATOM     20  O   UNL     1      -1.685  10.120  18.137  0.00  0.00    +0.000 OA
ATOM     21  H   UNL     1      -1.630  12.816  16.505  0.00  0.00    +0.000 HD
BRANCH  19  22
ATOM     22  O   UNL     1      -2.212  10.409  15.996  0.00  0.00    +0.000 OA
BRANCH  22  23
ATOM     23  C   UNL     1      -3.317  10.926  15.332  0.00  0.00    +0.000 C 
ATOM     24  C   UNL     1      -3.713  10.010  14.169  0.00  0.00    +0.000 C 
ATOM     25  C   UNL     1      -4.479  11.103  16.301  0.00  0.00    +0.000 C 
ENDBRANCH  22  23
ENDBRANCH  19  22
ENDBRANCH  15  18
BRANCH   1  26
ATOM     26  C   UNL     1       0.454  10.150  21.478  0.00  0.00    +0.000 C 
BRANCH  26  27
ATOM     27  N   UNL     1       0.938   8.869  22.021  0.00  0.00    +0.000 NA
ATOM     28  H   UNL     1       1.751   9.090  22.645  0.00  0.00    +0.000 HD
BRANCH  27  30
ATOM     29  C   UNL     1       1.450   8.717  19.606  0.00  0.00    +0.000 C 
ATOM     30  C   UNL     1       1.426   7.988  20.946  0.00  0.00    +0.000 C 
ENDBRANCH  27  30
ENDBRANCH  26  27
ENDBRANCH   1  26
TORSDOF 6
ENDMDL
MODEL 8
REMARK VINA RESULT:      -6.3      7.030     11.144
REMARK  Name = 
REMARK  9 active torsions:
REMARK  status: ('A' for Active; 'I' for Inactive)
REMARK    1  A    between atoms: C_1  and  C_2
REMARK    2  A    between atoms: C_2  and  N_3
REMARK    3  A    between atoms: N_3  and  C_4
REMARK    4  A    between atoms: C_4  and  C_5
REMARK    5  A    between atoms: C_19  and  N_20
REMARK    6  A    between atoms: C_21  and  O_23
REMARK    7  A    between atoms: O_23  and  C_24
REMARK    8  A    between atoms: C_24  and  C_25
REMARK    9  A    between atoms: C_24  and  C_26
REMARK                            x       y       z     vdW  Elec       q    Type
REMARK                         _______ _______ _______ _____ _____    ______ ____
ROOT
ATOM      1  C   UNL     1      -0.813  12.486  21.318  0.00  0.00    +0.000 C 
ATOM      2  O   UNL     1      -0.148  13.137  22.112  0.00  0.00    +0.000 OA
ATOM      3  N   UNL     1      -0.350  12.289  20.030  0.00  0.00    +0.000 N 
ATOM      4  C   UNL     1       0.857  12.917  19.557  0.00  0.00    +0.000 A 
ATOM      5  C   UNL     1       1.082  14.276  19.879  0.00  0.00    +0.000 A 
ATOM      6  C   UNL     1       2.187  14.969  19.386  0.00  0.00    +0.000 A 
ATOM      7  C   UNL     1       3.098  14.328  18.563  0.00  0.00    +0.000 A 
ATOM      8  C   UNL     1       2.913  12.990  18.227  0.00  0.00    +0.000 A 
ATOM      9  C   UNL     1       1.807  12.261  18.707  0.00  0.00    +0.000 A 
ATOM     10  C   UNL     1       1.775  10.807  18.267  0.00  0.00    +0.000 C 
ATOM     11  C   UNL     1       0.681   9.899  18.821  0.00  0.00    +0.000 C 
ATOM     12  C   UNL     1      -0.671  10.422  18.465  0.00  0.00    +0.000 A 
ATOM     13  C   UNL     1      -1.470   9.748  17.537  0.00  0.00    +0.000 A 
ATOM     14  C   UNL     1      -2.727  10.238  17.198  0.00  0.00    +0.000 A 
ATOM     15  C   UNL     1      -3.229  11.422  17.784  0.00  0.00    +0.000 A 
ATOM     16  C   UNL     1      -2.416  12.085  18.719  0.00  0.00    +0.000 A 
ATOM     17  C   UNL     1      -1.145  11.584  19.075  0.00  0.00    +0.000 A 
ENDROOT
BRANCH  15  18
ATOM     18  N   UNL     1      -4.504  12.001  17.451  0.00  0.00    +0.000 N 
ATOM     19  C   UNL     1      -5.712  11.653  17.996  0.00  0.00    +0.000 C 
ATOM     20  O   UNL     1      -5.783  10.840  18.902  0.00  0.00    +0.000 OA
ATOM     21  H   UNL     1      -4.518  12.754  16.742  0.00  0.00    +0.000 HD
BRANCH  19  22
ATOM     22  O   UNL     1      -6.860  12.216  17.526  0.00  0.00    +0.000 OA
BRANCH  22  23
ATOM     23  C   UNL     1      -7.271  13.496  17.874  0.00  0.00    +0.000 C 
ATOM     24  C   UNL     1      -6.547  13.958  19.142  0.00  0.00    +0.000 C 
ATOM     25  C   UNL     1      -7.019  14.461  16.724  0.00  0.00    +0.000 C 
ENDBRANCH  22  23
ENDBRANCH  19  22
ENDBRANCH  15  18
BRANCH   1  26
ATOM     26  C   UNL     1      -2.083  11.811  21.835  0.00  0.00    +0.000 C 
BRANCH  26  27
ATOM     27  N   UNL     1      -2.403  12.184  23.223  0.00  0.00    +0.000 NA
ATOM     28  H   UNL     1      -2.385  11.302  23.788  0.00  0.00    +0.000 HD
BRANCH  27  30
ATOM     29  C   UNL     1      -4.397  12.423  24.666  0.00  0.00    +0.000 C 
ATOM     30  C   UNL     1      -3.760  12.750  23.320  0.00  0.00    +0.000 C 
ENDBRANCH  27  30
ENDBRANCH  26  27
ENDBRANCH   1  26
TORSDOF 6
ENDMDL
MODEL 9
REMARK VINA RESULT:      -6.3      4.056      8.689
REMARK  Name = 
REMARK  9 active torsions:
REMARK  status: ('A' for Active; 'I' for Inactive)
REMARK    1  A    between atoms: C_1  and  C_2
REMARK    2  A    between atoms: C_2  and  N_3
REMARK    3  A    between atoms: N_3  and  C_4
REMARK    4  A    between atoms: C_4  and  C_5
REMARK    5  A    between atoms: C_19  and  N_20
REMARK    6  A    between atoms: C_21  and  O_23
REMARK    7  A    between atoms: O_23  and  C_24
REMARK    8  A    between atoms: C_24  and  C_25
REMARK    9  A    between atoms: C_24  and  C_26
REMARK                            x       y       z     vdW  Elec       q    Type
REMARK                         _______ _______ _______ _____ _____    ______ ____
ROOT
ATOM      1  C   UNL     1      -1.052  11.618  18.438  0.00  0.00    +0.000 C 
ATOM      2  O   UNL     1      -1.302  12.578  17.721  0.00  0.00    +0.000 OA
ATOM      3  N   UNL     1      -0.383  11.807  19.634  0.00  0.00    +0.000 N 
ATOM      4  C   UNL     1       0.122  13.100  20.020  0.00  0.00    +0.000 A 
ATOM      5  C   UNL     1       0.778  13.888  19.045  0.00  0.00    +0.000 A 
ATOM      6  C   UNL     1       1.364  15.111  19.369  0.00  0.00    +0.000 A 
ATOM      7  C   UNL     1       1.309  15.583  20.670  0.00  0.00    +0.000 A 
ATOM      8  C   UNL     1       0.670  14.838  21.656  0.00  0.00    +0.000 A 
ATOM      9  C   UNL     1       0.068  13.598  21.363  0.00  0.00    +0.000 A 
ATOM     10  C   UNL     1      -0.610  12.934  22.548  0.00  0.00    +0.000 C 
ATOM     11  C   UNL     1      -1.388  11.642  22.317  0.00  0.00    +0.000 C 
ATOM     12  C   UNL     1      -0.497  10.581  21.760  0.00  0.00    +0.000 A 
ATOM     13  C   UNL     1      -0.140   9.475  22.536  0.00  0.00    +0.000 A 
ATOM     14  C   UNL     1       0.697   8.489  22.022  0.00  0.00    +0.000 A 
ATOM     15  C   UNL     1       1.201   8.578  20.704  0.00  0.00    +0.000 A 
ATOM     16  C   UNL     1       0.829   9.694  19.935  0.00  0.00    +0.000 A 
ATOM     17  C   UNL     1      -0.030  10.689  20.449  0.00  0.00    +0.000 A 
ENDROOT
BRANCH  15  18
ATOM     18  N   UNL     1       2.099   7.613  20.125  0.00  0.00    +0.000 N 
ATOM     19  C   UNL     1       2.411   7.504  18.796  0.00  0.00    +0.000 C 
ATOM     20  O   UNL     1       1.987   8.306  17.981  0.00  0.00    +0.000 OA
ATOM     21  H   UNL     1       2.560   6.943  20.764  0.00  0.00    +0.000 HD
BRANCH  19  22
ATOM     22  O   UNL     1       3.206   6.486  18.363  0.00  0.00    +0.000 OA
BRANCH  22  23
ATOM     23  C   UNL     1       2.946   5.151  18.644  0.00  0.00    +0.000 C 
ATOM     24  C   UNL     1       1.770   4.652  17.798  0.00  0.00    +0.000 C 
ATOM     25  C   UNL     1       4.189   4.308  18.395  0.00  0.00    +0.000 C 
ENDBRANCH  22  23
ENDBRANCH  19  22
ENDBRANCH  15  18
BRANCH   1  26
ATOM     26  C   UNL     1      -1.607  10.255  18.026  0.00  0.00    +0.000 C 
BRANCH  26  27
ATOM     27  N   UNL     1      -2.587  10.346  16.930  0.00  0.00    +0.000 NA
ATOM     28  H   UNL     1      -2.413  11.256  16.441  0.00  0.00    +0.000 HD
BRANCH  27  30
ATOM     29  C   UNL     1      -4.657  11.688  17.106  0.00  0.00    +0.000 C 
ATOM     30  C   UNL     1      -3.964  10.374  17.452  0.00  0.00    +0.000 C 
ENDBRANCH  27  30
ENDBRANCH  26  27
ENDBRANCH   1  26
TORSDOF 6
ENDMDL
