MODEL 1
REMARK VINA RESULT:      -7.7      0.000      0.000
REMARK  Name = 
REMARK  10 active torsions:
REMARK  status: ('A' for Active; 'I' for Inactive)
REMARK    1  A    between atoms: C_1  and  C_2
REMARK    2  A    between atoms: C_2  and  N_3
REMARK    3  A    between atoms: C_7  and  N_8
REMARK    4  A    between atoms: C_9  and  C_11
REMARK    5  A    between atoms: C_16  and  C_17
REMARK    6  A    between atoms: C_19  and  C_20
REMARK    7  A    between atoms: C_20  and  O_21
REMARK    8  A    between atoms: C_22  and  O_23
REMARK    9  A    between atoms: C_24  and  O_25
REMARK   10  A    between atoms: C_26  and  O_27
REMARK                            x       y       z     vdW  Elec       q    Type
REMARK                         _______ _______ _______ _____ _____    ______ ____
ROOT
ATOM      1  C   UNL     1       0.535   9.776  20.782  0.00  0.00    +0.000 A 
ATOM      2  C   UNL     1       0.752  10.443  19.573  0.00  0.00    +0.000 A 
ATOM      3  C   UNL     1       1.356   9.791  18.493  0.00  0.00    +0.000 A 
ATOM      4  C   UNL     1       1.926   8.525  18.701  0.00  0.00    +0.000 A 
ATOM      5  S   UNL     1       2.881   7.608  17.607  0.00  0.00    +0.000 S 
ATOM      6  C   UNL     1       3.239   6.459  18.849  0.00  0.00    +0.000 A 
ATOM      7  N   UNL     1       2.534   6.634  19.962  0.00  0.00    +0.000 NA
ATOM      8  C   UNL     1       1.803   7.839  19.909  0.00  0.00    +0.000 A 
ATOM      9  C   UNL     1       1.013   8.449  20.932  0.00  0.00    +0.000 A 
ENDROOT
BRANCH   6  10
ATOM     10  C   UNL     1       4.360   5.440  18.563  0.00  0.00    +0.000 C 
ATOM     11  O   UNL     1       5.642   6.035  18.869  0.00  0.00    +0.000 OA
ATOM     12  C   UNL     1       6.729   5.099  18.664  0.00  0.00    +0.000 C 
ATOM     13  C   UNL     1       6.829   4.821  17.162  0.00  0.00    +0.000 C 
ATOM     14  C   UNL     1       5.549   4.118  16.719  0.00  0.00    +0.000 C 
ATOM     15  C   UNL     1       4.275   4.895  17.118  0.00  0.00    +0.000 C 
BRANCH  13  16
ATOM     16  O   UNL     1       6.962   6.047  16.425  0.00  0.00    +0.000 OA
ATOM     17  H   UNL     1       6.902   5.824  15.473  0.00  0.00    +0.000 HD
ENDBRANCH  13  16
BRANCH  14  18
ATOM     18  O   UNL     1       5.570   3.925  15.298  0.00  0.00    +0.000 OA
ATOM     19  H   UNL     1       4.790   4.405  14.947  0.00  0.00    +0.000 HD
ENDBRANCH  14  18
BRANCH  15  20
ATOM     20  O   UNL     1       3.134   4.017  17.018  0.00  0.00    +0.000 OA
ATOM     21  H   UNL     1       3.042   3.532  17.860  0.00  0.00    +0.000 HD
ENDBRANCH  15  20
BRANCH  12  22
ATOM     22  C   UNL     1       8.046   5.665  19.208  0.00  0.00    +0.000 C 
BRANCH  22  23
ATOM     23  O   UNL     1       8.151   5.445  20.613  0.00  0.00    +0.000 OA
ATOM     24  H   UNL     1       9.068   5.648  20.876  0.00  0.00    +0.000 HD
ENDBRANCH  22  23
ENDBRANCH  12  22
ENDBRANCH   6  10
BRANCH   1  26
ATOM     25  N   UNL     1      -1.228  11.429  21.620  0.00  0.00    +0.000 N 
ATOM     26  C   UNL     1      -0.144  10.492  21.927  0.00  0.00    +0.000 C 
ATOM     27  O   UNL     1       0.200  10.299  23.080  0.00  0.00    +0.000 OA
ATOM     28  H   UNL     1      -1.622  11.451  20.692  0.00  0.00    +0.000 HD
BRANCH  25  33
ATOM     29  N   UNL     1      -1.285  13.590  22.910  0.00  0.00    +0.000 N 
ATOM     30  N   UNL     1      -2.018  14.189  23.871  0.00  0.00    +0.000 NA
ATOM     31  C   UNL     1      -3.012  13.338  24.100  0.00  0.00    +0.000 A 
ATOM     32  C   UNL     1      -2.912  12.184  23.304  0.00  0.00    +0.000 A 
ATOM     33  C   UNL     1      -1.772  12.342  22.541  0.00  0.00    +0.000 A 
BRANCH  29  35
ATOM     34  C   UNL     1      -0.434  14.935  21.034  0.00  0.00    +0.000 C 
ATOM     35  C   UNL     1      -0.148  14.335  22.400  0.00  0.00    +0.000 C 
ENDBRANCH  29  35
ENDBRANCH  25  33
ENDBRANCH   1  26
TORSDOF 9
ENDMDL
MODEL 2
REMARK VINA RESULT:      -7.7      1.240      1.659
REMARK  Name = 
REMARK  10 active torsions:
REMARK  status: ('A' for Active; 'I' for Inactive)
REMARK    1  A    between atoms: C_1  and  C_2
REMARK    2  A    between atoms: C_2  and  N_3
REMARK    3  A    between atoms: C_7  and  N_8
REMARK    4  A    between atoms: C_9  and  C_11
REMARK    5  A    between atoms: C_16  and  C_17
REMARK    6  A    between atoms: C_19  and  C_20
REMARK    7  A    between atoms: C_20  and  O_21
REMARK    8  A    between atoms: C_22  and  O_23
REMARK    9  A    between atoms: C_24  and  O_25
REMARK   10  A    between atoms: C_26  and  O_27
REMARK                            x       y       z     vdW  Elec       q    Type
REMARK                         _______ _______ _______ _____ _____    ______ ____
ROOT
ATOM      1  C   UNL     1       0.114  10.024  21.201  0.00  0.00    +0.000 A 
ATOM      2  C   UNL     1       0.385  10.709  20.013  0.00  0.00    +0.000 A 
ATOM      3  C   UNL     1       1.032  10.072  18.950  0.00  0.00    +0.000 A 
ATOM      4  C   UNL     1       1.590   8.800  19.162  0.00  0.00    +0.000 A 
ATOM      5  S   UNL     1       2.589   7.898  18.097  0.00  0.00    +0.000 S 
ATOM      6  C   UNL     1       2.889   6.729  19.335  0.00  0.00    +0.000 A 
ATOM      7  N   UNL     1       2.137   6.888  20.420  0.00  0.00    +0.000 NA
ATOM      8  C   UNL     1       1.414   8.097  20.353  0.00  0.00    +0.000 A 
ATOM      9  C   UNL     1       0.582   8.694  21.351  0.00  0.00    +0.000 A 
ENDROOT
BRANCH   6  10
ATOM     10  C   UNL     1       4.019   5.710  19.083  0.00  0.00    +0.000 C 
ATOM     11  O   UNL     1       4.863   6.183  18.008  0.00  0.00    +0.000 OA
ATOM     12  C   UNL     1       5.971   5.283  17.763  0.00  0.00    +0.000 C 
ATOM     13  C   UNL     1       5.400   3.978  17.202  0.00  0.00    +0.000 C 
ATOM     14  C   UNL     1       4.534   3.333  18.279  0.00  0.00    +0.000 C 
ATOM     15  C   UNL     1       3.456   4.291  18.831  0.00  0.00    +0.000 C 
BRANCH  13  16
ATOM     16  O   UNL     1       4.584   4.235  16.047  0.00  0.00    +0.000 OA
ATOM     17  H   UNL     1       5.178   4.252  15.267  0.00  0.00    +0.000 HD
ENDBRANCH  13  16
BRANCH  14  18
ATOM     18  O   UNL     1       3.908   2.153  17.756  0.00  0.00    +0.000 OA
ATOM     19  H   UNL     1       3.396   2.443  16.971  0.00  0.00    +0.000 HD
ENDBRANCH  14  18
BRANCH  15  20
ATOM     20  O   UNL     1       2.945   3.765  20.074  0.00  0.00    +0.000 OA
ATOM     21  H   UNL     1       2.872   2.795  19.993  0.00  0.00    +0.000 HD
ENDBRANCH  15  20
BRANCH  12  22
ATOM     22  C   UNL     1       6.976   5.908  16.787  0.00  0.00    +0.000 C 
BRANCH  22  23
ATOM     23  O   UNL     1       7.492   4.926  15.892  0.00  0.00    +0.000 OA
ATOM     24  H   UNL     1       6.769   4.660  15.294  0.00  0.00    +0.000 HD
ENDBRANCH  22  23
ENDBRANCH  12  22
ENDBRANCH   6  10
BRANCH   1  26
ATOM     25  N   UNL     1      -1.656  11.696  21.987  0.00  0.00    +0.000 N 
ATOM     26  C   UNL     1      -0.611  10.725  22.327  0.00  0.00    +0.000 C 
ATOM     27  O   UNL     1      -0.336  10.494  23.491  0.00  0.00    +0.000 OA
ATOM     28  H   UNL     1      -1.996  11.752  21.040  0.00  0.00    +0.000 HD
BRANCH  25  33
ATOM     29  N   UNL     1      -1.741  13.826  23.326  0.00  0.00    +0.000 N 
ATOM     30  N   UNL     1      -2.510  14.415  24.263  0.00  0.00    +0.000 NA
ATOM     31  C   UNL     1      -3.529  13.578  24.421  0.00  0.00    +0.000 A 
ATOM     32  C   UNL     1      -3.410  12.441  23.602  0.00  0.00    +0.000 A 
ATOM     33  C   UNL     1      -2.230  12.596  22.902  0.00  0.00    +0.000 A 
BRANCH  29  35
ATOM     34  C   UNL     1      -0.743  15.133  21.496  0.00  0.00    +0.000 C 
ATOM     35  C   UNL     1      -0.566  14.561  22.893  0.00  0.00    +0.000 C 
ENDBRANCH  29  35
ENDBRANCH  25  33
ENDBRANCH   1  26
TORSDOF 9
ENDMDL
MODEL 3
REMARK VINA RESULT:      -7.6      1.559      2.567
REMARK  Name = 
REMARK  10 active torsions:
REMARK  status: ('A' for Active; 'I' for Inactive)
REMARK    1  A    between atoms: C_1  and  C_2
REMARK    2  A    between atoms: C_2  and  N_3
REMARK    3  A    between atoms: C_7  and  N_8
REMARK    4  A    between atoms: C_9  and  C_11
REMARK    5  A    between atoms: C_16  and  C_17
REMARK    6  A    between atoms: C_19  and  C_20
REMARK    7  A    between atoms: C_20  and  O_21
REMARK    8  A    between atoms: C_22  and  O_23
REMARK    9  A    between atoms: C_24  and  O_25
REMARK   10  A    between atoms: C_26  and  O_27
REMARK                            x       y       z     vdW  Elec       q    Type
REMARK                         _______ _______ _______ _____ _____    ______ ____
ROOT
ATOM      1  C   UNL     1      -0.008  10.425  21.198  0.00  0.00    +0.000 A 
ATOM      2  C   UNL     1       0.266  11.049  19.978  0.00  0.00    +0.000 A 
ATOM      3  C   UNL     1       0.877  10.346  18.935  0.00  0.00    +0.000 A 
ATOM      4  C   UNL     1       1.398   9.068  19.194  0.00  0.00    +0.000 A 
ATOM      5  S   UNL     1       2.352   8.089  18.156  0.00  0.00    +0.000 S 
ATOM      6  C   UNL     1       2.635   6.965  19.439  0.00  0.00    +0.000 A 
ATOM      7  N   UNL     1       1.904   7.195  20.526  0.00  0.00    +0.000 NA
ATOM      8  C   UNL     1       1.218   8.422  20.417  0.00  0.00    +0.000 A 
ATOM      9  C   UNL     1       0.420   9.088  21.399  0.00  0.00    +0.000 A 
ENDROOT
BRANCH   6  10
ATOM     10  C   UNL     1       3.728   5.901  19.215  0.00  0.00    +0.000 C 
ATOM     11  O   UNL     1       4.446   6.197  17.995  0.00  0.00    +0.000 OA
ATOM     12  C   UNL     1       5.519   5.252  17.764  0.00  0.00    +0.000 C 
ATOM     13  C   UNL     1       4.887   3.889  17.468  0.00  0.00    +0.000 C 
ATOM     14  C   UNL     1       4.148   3.423  18.719  0.00  0.00    +0.000 C 
ATOM     15  C   UNL     1       3.139   4.470  19.240  0.00  0.00    +0.000 C 
BRANCH  13  16
ATOM     16  O   UNL     1       3.946   3.987  16.386  0.00  0.00    +0.000 OA
ATOM     17  H   UNL     1       4.421   4.371  15.620  0.00  0.00    +0.000 HD
ENDBRANCH  13  16
BRANCH  14  18
ATOM     18  O   UNL     1       3.466   2.191  18.448  0.00  0.00    +0.000 OA
ATOM     19  H   UNL     1       2.726   2.143  19.090  0.00  0.00    +0.000 HD
ENDBRANCH  14  18
BRANCH  15  20
ATOM     20  O   UNL     1       2.771   4.142  20.596  0.00  0.00    +0.000 OA
ATOM     21  H   UNL     1       1.797   4.119  20.655  0.00  0.00    +0.000 HD
ENDBRANCH  15  20
BRANCH  12  22
ATOM     22  C   UNL     1       6.407   5.709  16.601  0.00  0.00    +0.000 C 
BRANCH  22  23
ATOM     23  O   UNL     1       5.634   6.369  15.601  0.00  0.00    +0.000 OA
ATOM     24  H   UNL     1       6.217   7.008  15.149  0.00  0.00    +0.000 HD
ENDBRANCH  22  23
ENDBRANCH  12  22
ENDBRANCH   6  10
BRANCH   1  26
ATOM     25  N   UNL     1      -1.191  12.543  22.008  0.00  0.00    +0.000 N 
ATOM     26  C   UNL     1      -0.694  11.196  22.302  0.00  0.00    +0.000 C 
ATOM     27  O   UNL     1      -0.831  10.714  23.413  0.00  0.00    +0.000 OA
ATOM     28  H   UNL     1      -1.232  12.863  21.053  0.00  0.00    +0.000 HD
BRANCH  25  33
ATOM     29  N   UNL     1      -2.854  13.552  23.606  0.00  0.00    +0.000 N 
ATOM     30  N   UNL     1      -2.953  14.593  24.458  0.00  0.00    +0.000 NA
ATOM     31  C   UNL     1      -1.753  15.161  24.418  0.00  0.00    +0.000 A 
ATOM     32  C   UNL     1      -0.887  14.502  23.529  0.00  0.00    +0.000 A 
ATOM     33  C   UNL     1      -1.615  13.463  22.984  0.00  0.00    +0.000 A 
BRANCH  29  35
ATOM     34  C   UNL     1      -4.591  12.340  24.858  0.00  0.00    +0.000 C 
ATOM     35  C   UNL     1      -4.017  12.690  23.495  0.00  0.00    +0.000 C 
ENDBRANCH  29  35
ENDBRANCH  25  33
ENDBRANCH   1  26
TORSDOF 9
ENDMDL
MODEL 4
REMARK VINA RESULT:      -7.6      3.355     10.445
REMARK  Name = 
REMARK  10 active torsions:
REMARK  status: ('A' for Active; 'I' for Inactive)
REMARK    1  A    between atoms: C_1  and  C_2
REMARK    2  A    between atoms: C_2  and  N_3
REMARK    3  A    between atoms: C_7  and  N_8
REMARK    4  A    between atoms: C_9  and  C_11
REMARK    5  A    between atoms: C_16  and  C_17
REMARK    6  A    between atoms: C_19  and  C_20
REMARK    7  A    between atoms: C_20  and  O_21
REMARK    8  A    between atoms: C_22  and  O_23
REMARK    9  A    between atoms: C_24  and  O_25
REMARK   10  A    between atoms: C_26  and  O_27
REMARK                            x       y       z     vdW  Elec       q    Type
REMARK                         _______ _______ _______ _____ _____    ______ ____
ROOT
ATOM      1  C   UNL     1       2.225   7.678  19.078  0.00  0.00    +0.000 A 
ATOM      2  C   UNL     1       2.252   8.458  17.919  0.00  0.00    +0.000 A 
ATOM      3  C   UNL     1       1.756   9.766  17.923  0.00  0.00    +0.000 A 
ATOM      4  C   UNL     1       1.046  10.215  19.048  0.00  0.00    +0.000 A 
ATOM      5  S   UNL     1       0.180  11.688  19.227  0.00  0.00    +0.000 S 
ATOM      6  C   UNL     1      -0.462  11.151  20.741  0.00  0.00    +0.000 A 
ATOM      7  N   UNL     1       0.085  10.025  21.188  0.00  0.00    +0.000 NA
ATOM      8  C   UNL     1       0.924   9.453  20.209  0.00  0.00    +0.000 A 
ATOM      9  C   UNL     1       1.608   8.198  20.244  0.00  0.00    +0.000 A 
ENDROOT
BRANCH   6  10
ATOM     10  C   UNL     1      -1.619  11.971  21.345  0.00  0.00    +0.000 C 
ATOM     11  O   UNL     1      -2.616  12.221  20.328  0.00  0.00    +0.000 OA
ATOM     12  C   UNL     1      -3.751  12.949  20.859  0.00  0.00    +0.000 C 
ATOM     13  C   UNL     1      -3.274  14.357  21.225  0.00  0.00    +0.000 C 
ATOM     14  C   UNL     1      -2.255  14.238  22.354  0.00  0.00    +0.000 C 
ATOM     15  C   UNL     1      -1.104  13.266  22.019  0.00  0.00    +0.000 C 
BRANCH  13  16
ATOM     16  O   UNL     1      -2.644  14.990  20.099  0.00  0.00    +0.000 OA
ATOM     17  H   UNL     1      -1.784  15.344  20.407  0.00  0.00    +0.000 HD
ENDBRANCH  13  16
BRANCH  14  18
ATOM     18  O   UNL     1      -1.719  15.533  22.660  0.00  0.00    +0.000 OA
ATOM     19  H   UNL     1      -0.743  15.432  22.650  0.00  0.00    +0.000 HD
ENDBRANCH  14  18
BRANCH  15  20
ATOM     20  O   UNL     1      -0.410  12.914  23.234  0.00  0.00    +0.000 OA
ATOM     21  H   UNL     1       0.461  12.542  22.997  0.00  0.00    +0.000 HD
ENDBRANCH  15  20
BRANCH  12  22
ATOM     22  C   UNL     1      -4.891  13.003  19.835  0.00  0.00    +0.000 C 
BRANCH  22  23
ATOM     23  O   UNL     1      -5.366  14.338  19.674  0.00  0.00    +0.000 OA
ATOM     24  H   UNL     1      -6.337  14.299  19.592  0.00  0.00    +0.000 HD
ENDBRANCH  22  23
ENDBRANCH  12  22
ENDBRANCH   6  10
BRANCH   1  26
ATOM     25  N   UNL     1       2.183   5.291  18.159  0.00  0.00    +0.000 N 
ATOM     26  C   UNL     1       2.791   6.277  19.057  0.00  0.00    +0.000 C 
ATOM     27  O   UNL     1       3.731   5.968  19.769  0.00  0.00    +0.000 OA
ATOM     28  H   UNL     1       1.531   5.595  17.453  0.00  0.00    +0.000 HD
BRANCH  25  33
ATOM     29  N   UNL     1       1.977   2.985  19.148  0.00  0.00    +0.000 N 
ATOM     30  N   UNL     1       2.451   1.739  18.945  0.00  0.00    +0.000 NA
ATOM     31  C   UNL     1       3.189   1.847  17.846  0.00  0.00    +0.000 A 
ATOM     32  C   UNL     1       3.208   3.162  17.349  0.00  0.00    +0.000 A 
ATOM     33  C   UNL     1       2.431   3.908  18.213  0.00  0.00    +0.000 A 
BRANCH  29  35
ATOM     34  C   UNL     1       1.805   3.233  21.589  0.00  0.00    +0.000 C 
ATOM     35  C   UNL     1       1.065   3.161  20.264  0.00  0.00    +0.000 C 
ENDBRANCH  29  35
ENDBRANCH  25  33
ENDBRANCH   1  26
TORSDOF 9
ENDMDL
MODEL 5
REMARK VINA RESULT:      -7.6      1.523      2.305
REMARK  Name = 
REMARK  10 active torsions:
REMARK  status: ('A' for Active; 'I' for Inactive)
REMARK    1  A    between atoms: C_1  and  C_2
REMARK    2  A    between atoms: C_2  and  N_3
REMARK    3  A    between atoms: C_7  and  N_8
REMARK    4  A    between atoms: C_9  and  C_11
REMARK    5  A    between atoms: C_16  and  C_17
REMARK    6  A    between atoms: C_19  and  C_20
REMARK    7  A    between atoms: C_20  and  O_21
REMARK    8  A    between atoms: C_22  and  O_23
REMARK    9  A    between atoms: C_24  and  O_25
REMARK   10  A    between atoms: C_26  and  O_27
REMARK                            x       y       z     vdW  Elec       q    Type
REMARK                         _______ _______ _______ _____ _____    ______ ____
ROOT
ATOM      1  C   UNL     1       0.218  10.256  21.261  0.00  0.00    +0.000 A 
ATOM      2  C   UNL     1       0.666  10.840  20.073  0.00  0.00    +0.000 A 
ATOM      3  C   UNL     1       1.245  10.062  19.066  0.00  0.00    +0.000 A 
ATOM      4  C   UNL     1       1.558   8.721  19.343  0.00  0.00    +0.000 A 
ATOM      5  S   UNL     1       2.435   7.620  18.360  0.00  0.00    +0.000 S 
ATOM      6  C   UNL     1       2.462   6.462  19.644  0.00  0.00    +0.000 A 
ATOM      7  N   UNL     1       1.695   6.789  20.680  0.00  0.00    +0.000 NA
ATOM      8  C   UNL     1       1.200   8.103  20.540  0.00  0.00    +0.000 A 
ATOM      9  C   UNL     1       0.436   8.872  21.473  0.00  0.00    +0.000 A 
ENDROOT
BRANCH   6  10
ATOM     10  C   UNL     1       3.406   5.253  19.483  0.00  0.00    +0.000 C 
ATOM     11  O   UNL     1       4.471   5.593  18.566  0.00  0.00    +0.000 OA
ATOM     12  C   UNL     1       5.415   4.504  18.417  0.00  0.00    +0.000 C 
ATOM     13  C   UNL     1       4.698   3.357  17.701  0.00  0.00    +0.000 C 
ATOM     14  C   UNL     1       3.579   2.852  18.607  0.00  0.00    +0.000 C 
ATOM     15  C   UNL     1       2.630   3.981  19.067  0.00  0.00    +0.000 C 
BRANCH  13  16
ATOM     16  O   UNL     1       4.123   3.809  16.465  0.00  0.00    +0.000 OA
ATOM     17  H   UNL     1       4.807   3.713  15.771  0.00  0.00    +0.000 HD
ENDBRANCH  13  16
BRANCH  14  18
ATOM     18  O   UNL     1       2.827   1.837  17.929  0.00  0.00    +0.000 OA
ATOM     19  H   UNL     1       2.424   1.283  18.631  0.00  0.00    +0.000 HD
ENDBRANCH  14  18
BRANCH  15  20
ATOM     20  O   UNL     1       1.854   3.519  20.193  0.00  0.00    +0.000 OA
ATOM     21  H   UNL     1       2.469   3.215  20.888  0.00  0.00    +0.000 HD
ENDBRANCH  15  20
BRANCH  12  22
ATOM     22  C   UNL     1       6.650   4.958  17.630  0.00  0.00    +0.000 C 
BRANCH  22  23
ATOM     23  O   UNL     1       7.799   4.202  18.007  0.00  0.00    +0.000 OA
ATOM     24  H   UNL     1       8.172   4.611  18.811  0.00  0.00    +0.000 HD
ENDBRANCH  22  23
ENDBRANCH  12  22
ENDBRANCH   6  10
BRANCH   1  26
ATOM     25  N   UNL     1      -0.994  12.407  21.931  0.00  0.00    +0.000 N 
ATOM     26  C   UNL     1      -0.429  11.113  22.325  0.00  0.00    +0.000 C 
ATOM     27  O   UNL     1      -0.480  10.743  23.485  0.00  0.00    +0.000 OA
ATOM     28  H   UNL     1      -1.105  12.627  20.954  0.00  0.00    +0.000 HD
BRANCH  25  33
ATOM     29  N   UNL     1      -2.576  13.494  23.560  0.00  0.00    +0.000 N 
ATOM     30  N   UNL     1      -2.672  14.619  24.298  0.00  0.00    +0.000 NA
ATOM     31  C   UNL     1      -1.522  15.248  24.081  0.00  0.00    +0.000 A 
ATOM     32  C   UNL     1      -0.694  14.543  23.192  0.00  0.00    +0.000 A 
ATOM     33  C   UNL     1      -1.393  13.407  22.836  0.00  0.00    +0.000 A 
BRANCH  29  35
ATOM     34  C   UNL     1      -4.801  12.909  22.688  0.00  0.00    +0.000 C 
ATOM     35  C   UNL     1      -3.682  12.558  23.655  0.00  0.00    +0.000 C 
ENDBRANCH  29  35
ENDBRANCH  25  33
ENDBRANCH   1  26
TORSDOF 9
ENDMDL
MODEL 6
REMARK VINA RESULT:      -7.6      3.136     10.208
REMARK  Name = 
REMARK  10 active torsions:
REMARK  status: ('A' for Active; 'I' for Inactive)
REMARK    1  A    between atoms: C_1  and  C_2
REMARK    2  A    between atoms: C_2  and  N_3
REMARK    3  A    between atoms: C_7  and  N_8
REMARK    4  A    between atoms: C_9  and  C_11
REMARK    5  A    between atoms: C_16  and  C_17
REMARK    6  A    between atoms: C_19  and  C_20
REMARK    7  A    between atoms: C_20  and  O_21
REMARK    8  A    between atoms: C_22  and  O_23
REMARK    9  A    between atoms: C_24  and  O_25
REMARK   10  A    between atoms: C_26  and  O_27
REMARK                            x       y       z     vdW  Elec       q    Type
REMARK                         _______ _______ _______ _____ _____    ______ ____
ROOT
ATOM      1  C   UNL     1       2.729   6.617  18.833  0.00  0.00    +0.000 A 
ATOM      2  C   UNL     1       2.325   6.178  20.097  0.00  0.00    +0.000 A 
ATOM      3  C   UNL     1       1.484   6.962  20.893  0.00  0.00    +0.000 A 
ATOM      4  C   UNL     1       1.213   8.281  20.496  0.00  0.00    +0.000 A 
ATOM      5  S   UNL     1       0.381   9.496  21.378  0.00  0.00    +0.000 S 
ATOM      6  C   UNL     1       0.812  10.681  20.195  0.00  0.00    +0.000 A 
ATOM      7  N   UNL     1       1.375  10.172  19.104  0.00  0.00    +0.000 NA
ATOM      8  C   UNL     1       1.649   8.799  19.277  0.00  0.00    +0.000 A 
ATOM      9  C   UNL     1       2.343   7.910  18.398  0.00  0.00    +0.000 A 
ENDROOT
BRANCH   6  10
ATOM     10  C   UNL     1       0.574  12.160  20.560  0.00  0.00    +0.000 C 
ATOM     11  O   UNL     1      -0.521  12.254  21.501  0.00  0.00    +0.000 OA
ATOM     12  C   UNL     1      -0.754  13.623  21.915  0.00  0.00    +0.000 C 
ATOM     13  C   UNL     1      -1.276  14.397  20.702  0.00  0.00    +0.000 C 
ATOM     14  C   UNL     1      -0.173  14.434  19.647  0.00  0.00    +0.000 C 
ATOM     15  C   UNL     1       0.364  13.029  19.297  0.00  0.00    +0.000 C 
BRANCH  13  16
ATOM     16  O   UNL     1      -2.429  13.748  20.141  0.00  0.00    +0.000 OA
ATOM     17  H   UNL     1      -2.282  13.673  19.175  0.00  0.00    +0.000 HD
ENDBRANCH  13  16
BRANCH  14  18
ATOM     18  O   UNL     1      -0.661  15.073  18.459  0.00  0.00    +0.000 OA
ATOM     19  H   UNL     1       0.106  15.136  17.851  0.00  0.00    +0.000 HD
ENDBRANCH  14  18
BRANCH  15  20
ATOM     20  O   UNL     1       1.625  13.161  18.609  0.00  0.00    +0.000 OA
ATOM     21  H   UNL     1       1.536  12.764  17.721  0.00  0.00    +0.000 HD
ENDBRANCH  15  20
BRANCH  12  22
ATOM     22  C   UNL     1      -1.755  13.678  23.075  0.00  0.00    +0.000 C 
BRANCH  22  23
ATOM     23  O   UNL     1      -2.730  12.645  22.954  0.00  0.00    +0.000 OA
ATOM     24  H   UNL     1      -2.585  12.201  22.097  0.00  0.00    +0.000 HD
ENDBRANCH  22  23
ENDBRANCH  12  22
ENDBRANCH   6  10
BRANCH   1  26
ATOM     25  N   UNL     1       4.898   6.286  17.518  0.00  0.00    +0.000 N 
ATOM     26  C   UNL     1       3.617   5.742  17.979  0.00  0.00    +0.000 C 
ATOM     27  O   UNL     1       3.281   4.610  17.677  0.00  0.00    +0.000 OA
ATOM     28  H   UNL     1       5.246   7.146  17.913  0.00  0.00    +0.000 HD
BRANCH  25  33
ATOM     29  N   UNL     1       6.906   5.020  16.679  0.00  0.00    +0.000 N 
ATOM     30  N   UNL     1       7.451   4.625  15.510  0.00  0.00    +0.000 NA
ATOM     31  C   UNL     1       6.570   5.012  14.593  0.00  0.00    +0.000 A 
ATOM     32  C   UNL     1       5.469   5.672  15.165  0.00  0.00    +0.000 A 
ATOM     33  C   UNL     1       5.700   5.694  16.526  0.00  0.00    +0.000 A 
BRANCH  29  35
ATOM     34  C   UNL     1       7.849   5.869  18.786  0.00  0.00    +0.000 C 
ATOM     35  C   UNL     1       7.629   4.664  17.887  0.00  0.00    +0.000 C 
ENDBRANCH  29  35
ENDBRANCH  25  33
ENDBRANCH   1  26
TORSDOF 9
ENDMDL
MODEL 7
REMARK VINA RESULT:      -7.5      3.154     10.419
REMARK  Name = 
REMARK  10 active torsions:
REMARK  status: ('A' for Active; 'I' for Inactive)
REMARK    1  A    between atoms: C_1  and  C_2
REMARK    2  A    between atoms: C_2  and  N_3
REMARK    3  A    between atoms: C_7  and  N_8
REMARK    4  A    between atoms: C_9  and  C_11
REMARK    5  A    between atoms: C_16  and  C_17
REMARK    6  A    between atoms: C_19  and  C_20
REMARK    7  A    between atoms: C_20  and  O_21
REMARK    8  A    between atoms: C_22  and  O_23
REMARK    9  A    between atoms: C_24  and  O_25
REMARK   10  A    between atoms: C_26  and  O_27
REMARK                            x       y       z     vdW  Elec       q    Type
REMARK                         _______ _______ _______ _____ _____    ______ ____
ROOT
ATOM      1  C   UNL     1       2.702   7.554  18.437  0.00  0.00    +0.000 A 
ATOM      2  C   UNL     1       2.530   6.897  19.659  0.00  0.00    +0.000 A 
ATOM      3  C   UNL     1       1.631   7.381  20.614  0.00  0.00    +0.000 A 
ATOM      4  C   UNL     1       1.054   8.646  20.419  0.00  0.00    +0.000 A 
ATOM      5  S   UNL     1       0.083   9.541  21.517  0.00  0.00    +0.000 S 
ATOM      6  C   UNL     1       0.135  10.919  20.473  0.00  0.00    +0.000 A 
ATOM      7  N   UNL     1       0.676  10.672  19.284  0.00  0.00    +0.000 NA
ATOM      8  C   UNL     1       1.245   9.382  19.250  0.00  0.00    +0.000 A 
ATOM      9  C   UNL     1       2.014   8.773  18.210  0.00  0.00    +0.000 A 
ENDROOT
BRANCH   6  10
ATOM     10  C   UNL     1      -0.365  12.258  21.050  0.00  0.00    +0.000 C 
ATOM     11  O   UNL     1      -1.675  12.072  21.634  0.00  0.00    +0.000 OA
ATOM     12  C   UNL     1      -2.170  13.293  22.235  0.00  0.00    +0.000 C 
ATOM     13  C   UNL     1      -2.436  14.296  21.109  0.00  0.00    +0.000 C 
ATOM     14  C   UNL     1      -1.104  14.636  20.447  0.00  0.00    +0.000 C 
ATOM     15  C   UNL     1      -0.330  13.381  19.986  0.00  0.00    +0.000 C 
BRANCH  13  16
ATOM     16  O   UNL     1      -3.312  13.730  20.120  0.00  0.00    +0.000 OA
ATOM     17  H   UNL     1      -2.796  13.636  19.292  0.00  0.00    +0.000 HD
ENDBRANCH  13  16
BRANCH  14  18
ATOM     18  O   UNL     1      -1.327  15.503  19.327  0.00  0.00    +0.000 OA
ATOM     19  H   UNL     1      -2.038  15.084  18.797  0.00  0.00    +0.000 HD
ENDBRANCH  14  18
BRANCH  15  20
ATOM     20  O   UNL     1       1.045  13.739  19.731  0.00  0.00    +0.000 OA
ATOM     21  H   UNL     1       1.610  13.263  20.369  0.00  0.00    +0.000 HD
ENDBRANCH  15  20
BRANCH  12  22
ATOM     22  C   UNL     1      -3.445  13.025  23.045  0.00  0.00    +0.000 C 
BRANCH  22  23
ATOM     23  O   UNL     1      -4.396  12.301  22.267  0.00  0.00    +0.000 OA
ATOM     24  H   UNL     1      -4.652  11.509  22.775  0.00  0.00    +0.000 HD
ENDBRANCH  22  23
ENDBRANCH  12  22
ENDBRANCH   6  10
BRANCH   1  26
ATOM     25  N   UNL     1       4.241   5.673  17.642  0.00  0.00    +0.000 N 
ATOM     26  C   UNL     1       3.659   6.998  17.409  0.00  0.00    +0.000 C 
ATOM     27  O   UNL     1       3.945   7.633  16.409  0.00  0.00    +0.000 OA
ATOM     28  H   UNL     1       3.870   5.086  18.372  0.00  0.00    +0.000 HD
BRANCH  25  33
ATOM     29  N   UNL     1       6.679   5.399  17.075  0.00  0.00    +0.000 N 
ATOM     30  N   UNL     1       7.454   4.770  16.169  0.00  0.00    +0.000 NA
ATOM     31  C   UNL     1       6.595   4.067  15.438  0.00  0.00    +0.000 A 
ATOM     32  C   UNL     1       5.267   4.257  15.858  0.00  0.00    +0.000 A 
ATOM     33  C   UNL     1       5.322   5.143  16.915  0.00  0.00    +0.000 A 
BRANCH  29  35
ATOM     34  C   UNL     1       7.607   7.621  17.580  0.00  0.00    +0.000 C 
ATOM     35  C   UNL     1       7.365   6.203  18.071  0.00  0.00    +0.000 C 
ENDBRANCH  29  35
ENDBRANCH  25  33
ENDBRANCH   1  26
TORSDOF 9
ENDMDL
MODEL 8
REMARK VINA RESULT:      -7.4      3.188     10.116
REMARK  Name = 
REMARK  10 active torsions:
REMARK  status: ('A' for Active; 'I' for Inactive)
REMARK    1  A    between atoms: C_1  and  C_2
REMARK    2  A    between atoms: C_2  and  N_3
REMARK    3  A    between atoms: C_7  and  N_8
REMARK    4  A    between atoms: C_9  and  C_11
REMARK    5  A    between atoms: C_16  and  C_17
REMARK    6  A    between atoms: C_19  and  C_20
REMARK    7  A    between atoms: C_20  and  O_21
REMARK    8  A    between atoms: C_22  and  O_23
REMARK    9  A    between atoms: C_24  and  O_25
REMARK   10  A    between atoms: C_26  and  O_27
REMARK                            x       y       z     vdW  Elec       q    Type
REMARK                         _______ _______ _______ _____ _____    ______ ____
ROOT
ATOM      1  C   UNL     1       2.105   7.976  19.027  0.00  0.00    +0.000 A 
ATOM      2  C   UNL     1       2.308   8.717  17.859  0.00  0.00    +0.000 A 
ATOM      3  C   UNL     1       1.954  10.068  17.797  0.00  0.00    +0.000 A 
ATOM      4  C   UNL     1       1.207  10.620  18.850  0.00  0.00    +0.000 A 
ATOM      5  S   UNL     1       0.491  12.179  18.928  0.00  0.00    +0.000 S 
ATOM      6  C   UNL     1      -0.325  11.754  20.392  0.00  0.00    +0.000 A 
ATOM      7  N   UNL     1       0.061  10.590  20.905  0.00  0.00    +0.000 NA
ATOM      8  C   UNL     1       0.912   9.907  20.011  0.00  0.00    +0.000 A 
ATOM      9  C   UNL     1       1.454   8.590  20.127  0.00  0.00    +0.000 A 
ENDROOT
BRANCH   6  10
ATOM     10  C   UNL     1      -1.434  12.707  20.883  0.00  0.00    +0.000 C 
ATOM     11  O   UNL     1      -1.240  12.990  22.288  0.00  0.00    +0.000 OA
ATOM     12  C   UNL     1      -2.230  13.922  22.787  0.00  0.00    +0.000 C 
ATOM     13  C   UNL     1      -3.590  13.219  22.762  0.00  0.00    +0.000 C 
ATOM     14  C   UNL     1      -3.950  12.926  21.309  0.00  0.00    +0.000 C 
ATOM     15  C   UNL     1      -2.842  12.149  20.566  0.00  0.00    +0.000 C 
BRANCH  13  16
ATOM     16  O   UNL     1      -3.534  11.978  23.484  0.00  0.00    +0.000 OA
ATOM     17  H   UNL     1      -3.369  12.194  24.425  0.00  0.00    +0.000 HD
ENDBRANCH  13  16
BRANCH  14  18
ATOM     18  O   UNL     1      -5.177  12.184  21.255  0.00  0.00    +0.000 OA
ATOM     19  H   UNL     1      -5.113  11.613  20.461  0.00  0.00    +0.000 HD
ENDBRANCH  14  18
BRANCH  15  20
ATOM     20  O   UNL     1      -3.070  12.242  19.143  0.00  0.00    +0.000 OA
ATOM     21  H   UNL     1      -3.657  13.002  18.974  0.00  0.00    +0.000 HD
ENDBRANCH  15  20
BRANCH  12  22
ATOM     22  C   UNL     1      -1.876  14.386  24.205  0.00  0.00    +0.000 C 
BRANCH  22  23
ATOM     23  O   UNL     1      -0.573  14.964  24.239  0.00  0.00    +0.000 OA
ATOM     24  H   UNL     1       0.051  14.309  23.875  0.00  0.00    +0.000 HD
ENDBRANCH  22  23
ENDBRANCH  12  22
ENDBRANCH   6  10
BRANCH   1  26
ATOM     25  N   UNL     1       1.999   5.611  18.057  0.00  0.00    +0.000 N 
ATOM     26  C   UNL     1       2.519   6.523  19.080  0.00  0.00    +0.000 C 
ATOM     27  O   UNL     1       3.267   6.115  19.951  0.00  0.00    +0.000 OA
ATOM     28  H   UNL     1       1.530   5.985  17.247  0.00  0.00    +0.000 HD
BRANCH  25  33
ATOM     29  N   UNL     1       1.636   3.361  19.127  0.00  0.00    +0.000 N 
ATOM     30  N   UNL     1       1.938   2.065  18.910  0.00  0.00    +0.000 NA
ATOM     31  C   UNL     1       2.560   2.068  17.736  0.00  0.00    +0.000 A 
ATOM     32  C   UNL     1       2.677   3.363  17.204  0.00  0.00    +0.000 A 
ATOM     33  C   UNL     1       2.090   4.210  18.124  0.00  0.00    +0.000 A 
BRANCH  29  35
ATOM     34  C   UNL     1       1.352   2.838  21.514  0.00  0.00    +0.000 C 
ATOM     35  C   UNL     1       0.876   3.660  20.327  0.00  0.00    +0.000 C 
ENDBRANCH  29  35
ENDBRANCH  25  33
ENDBRANCH   1  26
TORSDOF 9
ENDMDL
MODEL 9
REMARK VINA RESULT:      -7.4      1.889      2.793
REMARK  Name = 
REMARK  10 active torsions:
REMARK  status: ('A' for Active; 'I' for Inactive)
REMARK    1  A    between atoms: C_1  and  C_2
REMARK    2  A    between atoms: C_2  and  N_3
REMARK    3  A    between atoms: C_7  and  N_8
REMARK    4  A    between atoms: C_9  and  C_11
REMARK    5  A    between atoms: C_16  and  C_17
REMARK    6  A    between atoms: C_19  and  C_20
REMARK    7  A    between atoms: C_20  and  O_21
REMARK    8  A    between atoms: C_22  and  O_23
REMARK    9  A    between atoms: C_24  and  O_25
REMARK   10  A    between atoms: C_26  and  O_27
REMARK                            x       y       z     vdW  Elec       q    Type
REMARK                         _______ _______ _______ _____ _____    ______ ____
ROOT
ATOM      1  C   UNL     1       0.327  11.043  20.318  0.00  0.00    +0.000 A 
ATOM      2  C   UNL     1       0.886  11.398  19.087  0.00  0.00    +0.000 A 
ATOM      3  C   UNL     1       1.489  10.438  18.269  0.00  0.00    +0.000 A 
ATOM      4  C   UNL     1       1.710   9.151  18.788  0.00  0.00    +0.000 A 
ATOM      5  S   UNL     1       2.592   7.865  18.070  0.00  0.00    +0.000 S 
ATOM      6  C   UNL     1       2.468   6.940  19.526  0.00  0.00    +0.000 A 
ATOM      7  N   UNL     1       1.652   7.469  20.432  0.00  0.00    +0.000 NA
ATOM      8  C   UNL     1       1.238   8.759  20.040  0.00  0.00    +0.000 A 
ATOM      9  C   UNL     1       0.456   9.705  20.771  0.00  0.00    +0.000 A 
ENDROOT
BRANCH   6  10
ATOM     10  C   UNL     1       3.355   5.683  19.639  0.00  0.00    +0.000 C 
ATOM     11  O   UNL     1       4.253   5.624  18.508  0.00  0.00    +0.000 OA
ATOM     12  C   UNL     1       5.144   4.484  18.591  0.00  0.00    +0.000 C 
ATOM     13  C   UNL     1       4.300   3.218  18.426  0.00  0.00    +0.000 C 
ATOM     14  C   UNL     1       3.344   3.121  19.611  0.00  0.00    +0.000 C 
ATOM     15  C   UNL     1       2.502   4.402  19.803  0.00  0.00    +0.000 C 
BRANCH  13  16
ATOM     16  O   UNL     1       3.530   3.274  17.215  0.00  0.00    +0.000 OA
ATOM     17  H   UNL     1       2.810   3.924  17.355  0.00  0.00    +0.000 HD
ENDBRANCH  13  16
BRANCH  14  18
ATOM     18  O   UNL     1       2.474   1.994  19.442  0.00  0.00    +0.000 OA
ATOM     19  H   UNL     1       1.958   2.170  18.626  0.00  0.00    +0.000 HD
ENDBRANCH  14  18
BRANCH  15  20
ATOM     20  O   UNL     1       1.922   4.395  21.125  0.00  0.00    +0.000 OA
ATOM     21  H   UNL     1       2.423   5.018  21.685  0.00  0.00    +0.000 HD
ENDBRANCH  15  20
BRANCH  12  22
ATOM     22  C   UNL     1       6.234   4.564  17.515  0.00  0.00    +0.000 C 
BRANCH  22  23
ATOM     23  O   UNL     1       7.511   4.245  18.063  0.00  0.00    +0.000 OA
ATOM     24  H   UNL     1       8.124   4.100  17.318  0.00  0.00    +0.000 HD
ENDBRANCH  22  23
ENDBRANCH  12  22
ENDBRANCH   6  10
BRANCH   1  26
ATOM     25  N   UNL     1      -1.804  12.207  21.122  0.00  0.00    +0.000 N 
ATOM     26  C   UNL     1      -0.343  12.093  21.173  0.00  0.00    +0.000 C 
ATOM     27  O   UNL     1       0.310  12.831  21.889  0.00  0.00    +0.000 OA
ATOM     28  H   UNL     1      -2.345  11.486  20.670  0.00  0.00    +0.000 HD
BRANCH  25  33
ATOM     29  N   UNL     1      -3.283  13.321  22.828  0.00  0.00    +0.000 N 
ATOM     30  N   UNL     1      -3.913  14.497  23.022  0.00  0.00    +0.000 NA
ATOM     31  C   UNL     1      -3.539  15.242  21.988  0.00  0.00    +0.000 A 
ATOM     32  C   UNL     1      -2.685  14.544  21.117  0.00  0.00    +0.000 A 
ATOM     33  C   UNL     1      -2.535  13.282  21.657  0.00  0.00    +0.000 A 
BRANCH  29  35
ATOM     34  C   UNL     1      -4.730  12.533  24.655  0.00  0.00    +0.000 C 
ATOM     35  C   UNL     1      -3.454  12.313  23.858  0.00  0.00    +0.000 C 
ENDBRANCH  29  35
ENDBRANCH  25  33
ENDBRANCH   1  26
TORSDOF 9
ENDMDL
