MODEL 1
REMARK VINA RESULT:      -7.2      0.000      0.000
REMARK  Name = 
REMARK  5 active torsions:
REMARK  status: ('A' for Active; 'I' for Inactive)
REMARK    1  A    between atoms: C_1  and  O_2
REMARK    2  A    between atoms: O_2  and  C_3
REMARK    3  A    between atoms: C_6  and  C_7
REMARK    4  A    between atoms: C_8  and  C_9
REMARK    5  A    between atoms: C_9  and  C_11
REMARK                            x       y       z     vdW  Elec       q    Type
REMARK                         _______ _______ _______ _____ _____    ______ ____
ROOT
ATOM      1  C   UNL     1       3.459   6.293  18.376  0.00  0.00    +0.000 C 
ATOM      2  C   UNL     1       3.890   5.385  19.268  0.00  0.00    +0.000 C 
ENDROOT
BRANCH   1   6
ATOM      3  C   UNL     1       0.915   9.607  19.366  0.00  0.00    +0.000 A 
ATOM      4  C   UNL     1       1.469   9.487  18.091  0.00  0.00    +0.000 A 
ATOM      5  C   UNL     1       2.292   8.399  17.773  0.00  0.00    +0.000 A 
ATOM      6  C   UNL     1       2.593   7.428  18.736  0.00  0.00    +0.000 A 
ATOM      7  C   UNL     1       2.029   7.555  20.010  0.00  0.00    +0.000 A 
ATOM      8  C   UNL     1       1.204   8.640  20.327  0.00  0.00    +0.000 A 
BRANCH   3  10
ATOM      9  C   UNL     1      -1.054  10.778  18.796  0.00  0.00    +0.000 C 
ATOM     10  O   UNL     1       0.136  10.712  19.576  0.00  0.00    +0.000 OA
ENDBRANCH   3  10
ENDBRANCH   1   6
BRANCH   2  11
ATOM     11  C   UNL     1       4.839   4.305  18.849  0.00  0.00    +0.000 C 
ATOM     12  O   UNL     1       5.015   3.310  19.542  0.00  0.00    +0.000 OA
BRANCH  11  13
ATOM     13  C   UNL     1       5.518   4.494  17.529  0.00  0.00    +0.000 A 
ATOM     14  C   UNL     1       4.915   3.925  16.388  0.00  0.00    +0.000 A 
ATOM     15  C   UNL     1       5.497   4.047  15.126  0.00  0.00    +0.000 A 
ATOM     16  C   UNL     1       6.696   4.730  14.980  0.00  0.00    +0.000 A 
ATOM     17  C   UNL     1       7.320   5.280  16.100  0.00  0.00    +0.000 A 
ATOM     18  C   UNL     1       6.744   5.160  17.376  0.00  0.00    +0.000 A 
ATOM     19 BR   UNL     1       7.703   5.966  18.802  0.00  0.00    +0.000 Br
ENDBRANCH  11  13
ENDBRANCH   2  11
TORSDOF 4
ENDMDL
MODEL 2
REMARK VINA RESULT:      -7.2      0.160      1.115
REMARK  Name = 
REMARK  5 active torsions:
REMARK  status: ('A' for Active; 'I' for Inactive)
REMARK    1  A    between atoms: C_1  and  O_2
REMARK    2  A    between atoms: O_2  and  C_3
REMARK    3  A    between atoms: C_6  and  C_7
REMARK    4  A    between atoms: C_8  and  C_9
REMARK    5  A    between atoms: C_9  and  C_11
REMARK                            x       y       z     vdW  Elec       q    Type
REMARK                         _______ _______ _______ _____ _____    ______ ____
ROOT
ATOM      1  C   UNL     1       3.422   6.197  18.400  0.00  0.00    +0.000 C 
ATOM      2  C   UNL     1       3.907   5.342  19.316  0.00  0.00    +0.000 C 
ENDROOT
BRANCH   1   6
ATOM      3  C   UNL     1       0.959   9.550  19.461  0.00  0.00    +0.000 A 
ATOM      4  C   UNL     1       1.249   8.553  20.393  0.00  0.00    +0.000 A 
ATOM      5  C   UNL     1       2.061   7.466  20.042  0.00  0.00    +0.000 A 
ATOM      6  C   UNL     1       2.570   7.348  18.743  0.00  0.00    +0.000 A 
ATOM      7  C   UNL     1       2.276   8.355  17.817  0.00  0.00    +0.000 A 
ATOM      8  C   UNL     1       1.469   9.442  18.169  0.00  0.00    +0.000 A 
BRANCH   3  10
ATOM      9  C   UNL     1      -1.066  10.730  19.180  0.00  0.00    +0.000 C 
ATOM     10  O   UNL     1       0.149  10.560  19.903  0.00  0.00    +0.000 OA
ENDBRANCH   3  10
ENDBRANCH   1   6
BRANCH   2  11
ATOM     11  C   UNL     1       4.838   4.243  18.907  0.00  0.00    +0.000 C 
ATOM     12  O   UNL     1       4.978   3.240  19.596  0.00  0.00    +0.000 OA
BRANCH  11  13
ATOM     13  C   UNL     1       5.545   4.424  17.601  0.00  0.00    +0.000 A 
ATOM     14  C   UNL     1       4.961   3.857  16.449  0.00  0.00    +0.000 A 
ATOM     15  C   UNL     1       5.569   3.972  15.199  0.00  0.00    +0.000 A 
ATOM     16  C   UNL     1       6.776   4.648  15.076  0.00  0.00    +0.000 A 
ATOM     17  C   UNL     1       7.381   5.196  16.207  0.00  0.00    +0.000 A 
ATOM     18  C   UNL     1       6.778   5.083  17.471  0.00  0.00    +0.000 A 
ATOM     19 BR   UNL     1       7.714   5.886  18.914  0.00  0.00    +0.000 Br
ENDBRANCH  11  13
ENDBRANCH   2  11
TORSDOF 4
ENDMDL
MODEL 3
REMARK VINA RESULT:      -6.7      2.554      3.642
REMARK  Name = 
REMARK  5 active torsions:
REMARK  status: ('A' for Active; 'I' for Inactive)
REMARK    1  A    between atoms: C_1  and  O_2
REMARK    2  A    between atoms: O_2  and  C_3
REMARK    3  A    between atoms: C_6  and  C_7
REMARK    4  A    between atoms: C_8  and  C_9
REMARK    5  A    between atoms: C_9  and  C_11
REMARK                            x       y       z     vdW  Elec       q    Type
REMARK                         _______ _______ _______ _____ _____    ______ ____
ROOT
ATOM      1  C   UNL     1       1.662   8.489  19.303  0.00  0.00    +0.000 C 
ATOM      2  C   UNL     1       2.316   7.327  19.466  0.00  0.00    +0.000 C 
ENDROOT
BRANCH   1   6
ATOM      3  C   UNL     1      -0.376  10.554  22.468  0.00  0.00    +0.000 A 
ATOM      4  C   UNL     1      -0.376  11.061  21.169  0.00  0.00    +0.000 A 
ATOM      5  C   UNL     1       0.285  10.378  20.139  0.00  0.00    +0.000 A 
ATOM      6  C   UNL     1       0.977   9.189  20.403  0.00  0.00    +0.000 A 
ATOM      7  C   UNL     1       0.967   8.688  21.709  0.00  0.00    +0.000 A 
ATOM      8  C   UNL     1       0.305   9.368  22.736  0.00  0.00    +0.000 A 
BRANCH   3  10
ATOM      9  C   UNL     1      -1.349  12.637  23.003  0.00  0.00    +0.000 C 
ATOM     10  O   UNL     1      -1.040  11.304  23.400  0.00  0.00    +0.000 OA
ENDBRANCH   3  10
ENDBRANCH   1   6
BRANCH   2  11
ATOM     11  C   UNL     1       3.063   6.712  18.323  0.00  0.00    +0.000 C 
ATOM     12  O   UNL     1       3.674   7.405  17.519  0.00  0.00    +0.000 OA
BRANCH  11  13
ATOM     13  C   UNL     1       3.053   5.218  18.251  0.00  0.00    +0.000 A 
ATOM     14  C   UNL     1       1.841   4.581  17.911  0.00  0.00    +0.000 A 
ATOM     15  C   UNL     1       1.750   3.191  17.838  0.00  0.00    +0.000 A 
ATOM     16  C   UNL     1       2.865   2.410  18.111  0.00  0.00    +0.000 A 
ATOM     17  C   UNL     1       4.067   3.019  18.471  0.00  0.00    +0.000 A 
ATOM     18  C   UNL     1       4.167   4.418  18.551  0.00  0.00    +0.000 A 
ATOM     19 BR   UNL     1       5.867   5.104  19.044  0.00  0.00    +0.000 Br
ENDBRANCH  11  13
ENDBRANCH   2  11
TORSDOF 4
ENDMDL
MODEL 4
REMARK VINA RESULT:      -6.7      1.668      2.442
REMARK  Name = 
REMARK  5 active torsions:
REMARK  status: ('A' for Active; 'I' for Inactive)
REMARK    1  A    between atoms: C_1  and  O_2
REMARK    2  A    between atoms: O_2  and  C_3
REMARK    3  A    between atoms: C_6  and  C_7
REMARK    4  A    between atoms: C_8  and  C_9
REMARK    5  A    between atoms: C_9  and  C_11
REMARK                            x       y       z     vdW  Elec       q    Type
REMARK                         _______ _______ _______ _____ _____    ______ ____
ROOT
ATOM      1  C   UNL     1       2.976   6.887  18.069  0.00  0.00    +0.000 C 
ATOM      2  C   UNL     1       2.655   5.587  18.183  0.00  0.00    +0.000 C 
ENDROOT
BRANCH   1   6
ATOM      3  C   UNL     1       0.586  10.044  19.728  0.00  0.00    +0.000 A 
ATOM      4  C   UNL     1       1.019   8.982  20.523  0.00  0.00    +0.000 A 
ATOM      5  C   UNL     1       1.805   7.960  19.977  0.00  0.00    +0.000 A 
ATOM      6  C   UNL     1       2.147   7.973  18.619  0.00  0.00    +0.000 A 
ATOM      7  C   UNL     1       1.711   9.044  17.832  0.00  0.00    +0.000 A 
ATOM      8  C   UNL     1       0.929  10.067  18.378  0.00  0.00    +0.000 A 
BRANCH   3  10
ATOM      9  C   UNL     1      -0.505  12.132  19.579  0.00  0.00    +0.000 C 
ATOM     10  O   UNL     1      -0.185  10.982  20.357  0.00  0.00    +0.000 OA
ENDBRANCH   3  10
ENDBRANCH   1   6
BRANCH   2  11
ATOM     11  C   UNL     1       3.587   4.530  17.676  0.00  0.00    +0.000 C 
ATOM     12  O   UNL     1       3.165   3.529  17.112  0.00  0.00    +0.000 OA
BRANCH  11  13
ATOM     13  C   UNL     1       5.049   4.790  17.863  0.00  0.00    +0.000 A 
ATOM     14  C   UNL     1       5.502   5.115  19.158  0.00  0.00    +0.000 A 
ATOM     15  C   UNL     1       6.848   5.385  19.407  0.00  0.00    +0.000 A 
ATOM     16  C   UNL     1       7.766   5.344  18.366  0.00  0.00    +0.000 A 
ATOM     17  C   UNL     1       7.333   5.047  17.073  0.00  0.00    +0.000 A 
ATOM     18  C   UNL     1       5.979   4.777  16.812  0.00  0.00    +0.000 A 
ATOM     19 BR   UNL     1       5.542   4.380  15.008  0.00  0.00    +0.000 Br
ENDBRANCH  11  13
ENDBRANCH   2  11
TORSDOF 4
ENDMDL
MODEL 5
REMARK VINA RESULT:      -6.6      2.511      3.687
REMARK  Name = 
REMARK  5 active torsions:
REMARK  status: ('A' for Active; 'I' for Inactive)
REMARK    1  A    between atoms: C_1  and  O_2
REMARK    2  A    between atoms: O_2  and  C_3
REMARK    3  A    between atoms: C_6  and  C_7
REMARK    4  A    between atoms: C_8  and  C_9
REMARK    5  A    between atoms: C_9  and  C_11
REMARK                            x       y       z     vdW  Elec       q    Type
REMARK                         _______ _______ _______ _____ _____    ______ ____
ROOT
ATOM      1  C   UNL     1       1.797   8.495  19.188  0.00  0.00    +0.000 C 
ATOM      2  C   UNL     1       2.203   7.217  19.285  0.00  0.00    +0.000 C 
ENDROOT
BRANCH   1   6
ATOM      3  C   UNL     1      -0.395  10.476  22.303  0.00  0.00    +0.000 A 
ATOM      4  C   UNL     1       0.493   9.443  22.601  0.00  0.00    +0.000 A 
ATOM      5  C   UNL     1       1.211   8.806  21.580  0.00  0.00    +0.000 A 
ATOM      6  C   UNL     1       1.029   9.178  20.242  0.00  0.00    +0.000 A 
ATOM      7  C   UNL     1       0.138  10.219  19.955  0.00  0.00    +0.000 A 
ATOM      8  C   UNL     1      -0.576  10.857  20.974  0.00  0.00    +0.000 A 
BRANCH   3  10
ATOM      9  C   UNL     1      -1.629  12.304  23.144  0.00  0.00    +0.000 C 
ATOM     10  O   UNL     1      -1.053  11.021  23.371  0.00  0.00    +0.000 OA
ENDBRANCH   3  10
ENDBRANCH   1   6
BRANCH   2  11
ATOM     11  C   UNL     1       3.054   6.611  18.213  0.00  0.00    +0.000 C 
ATOM     12  O   UNL     1       3.685   7.311  17.431  0.00  0.00    +0.000 OA
BRANCH  11  13
ATOM     13  C   UNL     1       3.119   5.116  18.184  0.00  0.00    +0.000 A 
ATOM     14  C   UNL     1       1.959   4.411  17.804  0.00  0.00    +0.000 A 
ATOM     15  C   UNL     1       1.939   3.017  17.767  0.00  0.00    +0.000 A 
ATOM     16  C   UNL     1       3.074   2.299  18.118  0.00  0.00    +0.000 A 
ATOM     17  C   UNL     1       4.226   2.977  18.519  0.00  0.00    +0.000 A 
ATOM     18  C   UNL     1       4.255   4.382  18.563  0.00  0.00    +0.000 A 
ATOM     19 BR   UNL     1       5.892   5.164  19.119  0.00  0.00    +0.000 Br
ENDBRANCH  11  13
ENDBRANCH   2  11
TORSDOF 4
ENDMDL
MODEL 6
REMARK VINA RESULT:      -6.5      4.908      6.403
REMARK  Name = 
REMARK  5 active torsions:
REMARK  status: ('A' for Active; 'I' for Inactive)
REMARK    1  A    between atoms: C_1  and  O_2
REMARK    2  A    between atoms: O_2  and  C_3
REMARK    3  A    between atoms: C_6  and  C_7
REMARK    4  A    between atoms: C_8  and  C_9
REMARK    5  A    between atoms: C_9  and  C_11
REMARK                            x       y       z     vdW  Elec       q    Type
REMARK                         _______ _______ _______ _____ _____    ______ ____
ROOT
ATOM      1  C   UNL     1       7.691   7.935  17.744  0.00  0.00    +0.000 C 
ATOM      2  C   UNL     1       7.970   6.776  18.365  0.00  0.00    +0.000 C 
ENDROOT
BRANCH   1   6
ATOM      3  C   UNL     1       9.448  11.666  18.941  0.00  0.00    +0.000 A 
ATOM      4  C   UNL     1       9.656  10.505  19.688  0.00  0.00    +0.000 A 
ATOM      5  C   UNL     1       9.086   9.290  19.286  0.00  0.00    +0.000 A 
ATOM      6  C   UNL     1       8.277   9.225  18.145  0.00  0.00    +0.000 A 
ATOM      7  C   UNL     1       8.078  10.394  17.402  0.00  0.00    +0.000 A 
ATOM      8  C   UNL     1       8.649  11.606  17.800  0.00  0.00    +0.000 A 
BRANCH   3  10
ATOM      9  C   UNL     1      11.443  12.711  19.646  0.00  0.00    +0.000 C 
ATOM     10  O   UNL     1      10.039  12.799  19.426  0.00  0.00    +0.000 OA
ENDBRANCH   3  10
ENDBRANCH   1   6
BRANCH   2  11
ATOM     11  C   UNL     1       7.407   5.488  17.851  0.00  0.00    +0.000 C 
ATOM     12  O   UNL     1       8.130   4.627  17.365  0.00  0.00    +0.000 OA
BRANCH  11  13
ATOM     13  C   UNL     1       5.929   5.302  18.004  0.00  0.00    +0.000 A 
ATOM     14  C   UNL     1       5.399   5.273  19.310  0.00  0.00    +0.000 A 
ATOM     15  C   UNL     1       4.034   5.089  19.532  0.00  0.00    +0.000 A 
ATOM     16  C   UNL     1       3.174   4.921  18.456  0.00  0.00    +0.000 A 
ATOM     17  C   UNL     1       3.682   4.923  17.156  0.00  0.00    +0.000 A 
ATOM     18  C   UNL     1       5.056   5.105  16.922  0.00  0.00    +0.000 A 
ATOM     19 BR   UNL     1       5.599   5.093  15.103  0.00  0.00    +0.000 Br
ENDBRANCH  11  13
ENDBRANCH   2  11
TORSDOF 4
ENDMDL
MODEL 7
REMARK VINA RESULT:      -6.5      1.596      2.130
REMARK  Name = 
REMARK  5 active torsions:
REMARK  status: ('A' for Active; 'I' for Inactive)
REMARK    1  A    between atoms: C_1  and  O_2
REMARK    2  A    between atoms: O_2  and  C_3
REMARK    3  A    between atoms: C_6  and  C_7
REMARK    4  A    between atoms: C_8  and  C_9
REMARK    5  A    between atoms: C_9  and  C_11
REMARK                            x       y       z     vdW  Elec       q    Type
REMARK                         _______ _______ _______ _____ _____    ______ ____
ROOT
ATOM      1  C   UNL     1       3.049   6.700  18.651  0.00  0.00    +0.000 C 
ATOM      2  C   UNL     1       2.666   5.631  17.932  0.00  0.00    +0.000 C 
ENDROOT
BRANCH   1   6
ATOM      3  C   UNL     1       0.424  10.002  19.452  0.00  0.00    +0.000 A 
ATOM      4  C   UNL     1       0.900   9.764  18.162  0.00  0.00    +0.000 A 
ATOM      5  C   UNL     1       1.749   8.679  17.907  0.00  0.00    +0.000 A 
ATOM      6  C   UNL     1       2.157   7.834  18.946  0.00  0.00    +0.000 A 
ATOM      7  C   UNL     1       1.671   8.079  20.235  0.00  0.00    +0.000 A 
ATOM      8  C   UNL     1       0.820   9.159  20.490  0.00  0.00    +0.000 A 
BRANCH   3  10
ATOM      9  C   UNL     1      -1.496  11.151  18.700  0.00  0.00    +0.000 C 
ATOM     10  O   UNL     1      -0.389  11.092  19.595  0.00  0.00    +0.000 OA
ENDBRANCH   3  10
ENDBRANCH   1   6
BRANCH   2  11
ATOM     11  C   UNL     1       3.597   4.473  17.742  0.00  0.00    +0.000 C 
ATOM     12  O   UNL     1       3.178   3.364  17.437  0.00  0.00    +0.000 OA
BRANCH  11  13
ATOM     13  C   UNL     1       5.056   4.763  17.905  0.00  0.00    +0.000 A 
ATOM     14  C   UNL     1       5.531   5.060  19.200  0.00  0.00    +0.000 A 
ATOM     15  C   UNL     1       6.875   5.354  19.427  0.00  0.00    +0.000 A 
ATOM     16  C   UNL     1       7.770   5.366  18.366  0.00  0.00    +0.000 A 
ATOM     17  C   UNL     1       7.316   5.097  17.075  0.00  0.00    +0.000 A 
ATOM     18  C   UNL     1       5.964   4.803  16.835  0.00  0.00    +0.000 A 
ATOM     19 BR   UNL     1       5.496   4.450  15.029  0.00  0.00    +0.000 Br
ENDBRANCH  11  13
ENDBRANCH   2  11
TORSDOF 4
ENDMDL
MODEL 8
REMARK VINA RESULT:      -6.4      5.323      6.273
REMARK  Name = 
REMARK  5 active torsions:
REMARK  status: ('A' for Active; 'I' for Inactive)
REMARK    1  A    between atoms: C_1  and  O_2
REMARK    2  A    between atoms: O_2  and  C_3
REMARK    3  A    between atoms: C_6  and  C_7
REMARK    4  A    between atoms: C_8  and  C_9
REMARK    5  A    between atoms: C_9  and  C_11
REMARK                            x       y       z     vdW  Elec       q    Type
REMARK                         _______ _______ _______ _____ _____    ______ ____
ROOT
ATOM      1  C   UNL     1       8.669   8.556  18.689  0.00  0.00    +0.000 C 
ATOM      2  C   UNL     1       7.812   7.850  17.933  0.00  0.00    +0.000 C 
ENDROOT
BRANCH   1   6
ATOM      3  C   UNL     1       9.198  12.792  18.227  0.00  0.00    +0.000 A 
ATOM      4  C   UNL     1       8.257  12.102  17.463  0.00  0.00    +0.000 A 
ATOM      5  C   UNL     1       8.084  10.721  17.625  0.00  0.00    +0.000 A 
ATOM      6  C   UNL     1       8.872  10.006  18.536  0.00  0.00    +0.000 A 
ATOM      7  C   UNL     1       9.810  10.709  19.300  0.00  0.00    +0.000 A 
ATOM      8  C   UNL     1       9.980  12.088  19.141  0.00  0.00    +0.000 A 
BRANCH   3  10
ATOM      9  C   UNL     1      10.602  14.685  18.107  0.00  0.00    +0.000 C 
ATOM     10  O   UNL     1       9.295  14.134  17.982  0.00  0.00    +0.000 OA
ENDBRANCH   3  10
ENDBRANCH   1   6
BRANCH   2  11
ATOM     11  C   UNL     1       7.591   6.393  18.199  0.00  0.00    +0.000 C 
ATOM     12  O   UNL     1       8.019   5.861  19.216  0.00  0.00    +0.000 OA
BRANCH  11  13
ATOM     13  C   UNL     1       6.790   5.646  17.180  0.00  0.00    +0.000 A 
ATOM     14  C   UNL     1       7.370   5.429  15.912  0.00  0.00    +0.000 A 
ATOM     15  C   UNL     1       6.678   4.754  14.907  0.00  0.00    +0.000 A 
ATOM     16  C   UNL     1       5.392   4.290  15.143  0.00  0.00    +0.000 A 
ATOM     17  C   UNL     1       4.791   4.514  16.383  0.00  0.00    +0.000 A 
ATOM     18  C   UNL     1       5.478   5.196  17.401  0.00  0.00    +0.000 A 
ATOM     19 BR   UNL     1       4.538   5.418  19.035  0.00  0.00    +0.000 Br
ENDBRANCH  11  13
ENDBRANCH   2  11
TORSDOF 4
ENDMDL
MODEL 9
REMARK VINA RESULT:      -6.4      1.902      2.850
REMARK  Name = 
REMARK  5 active torsions:
REMARK  status: ('A' for Active; 'I' for Inactive)
REMARK    1  A    between atoms: C_1  and  O_2
REMARK    2  A    between atoms: O_2  and  C_3
REMARK    3  A    between atoms: C_6  and  C_7
REMARK    4  A    between atoms: C_8  and  C_9
REMARK    5  A    between atoms: C_9  and  C_11
REMARK                            x       y       z     vdW  Elec       q    Type
REMARK                         _______ _______ _______ _____ _____    ______ ____
ROOT
ATOM      1  C   UNL     1       2.926   6.918  18.267  0.00  0.00    +0.000 C 
ATOM      2  C   UNL     1       3.798   7.001  17.248  0.00  0.00    +0.000 C 
ENDROOT
BRANCH   1   6
ATOM      3  C   UNL     1       0.679  10.261  19.753  0.00  0.00    +0.000 A 
ATOM      4  C   UNL     1       0.979   9.178  20.579  0.00  0.00    +0.000 A 
ATOM      5  C   UNL     1       1.719   8.094  20.090  0.00  0.00    +0.000 A 
ATOM      6  C   UNL     1       2.147   8.068  18.757  0.00  0.00    +0.000 A 
ATOM      7  C   UNL     1       1.844   9.161  17.938  0.00  0.00    +0.000 A 
ATOM      8  C   UNL     1       1.108  10.245  18.427  0.00  0.00    +0.000 A 
BRANCH   3  10
ATOM      9  C   UNL     1      -0.399  11.061  21.695  0.00  0.00    +0.000 C 
ATOM     10  O   UNL     1      -0.059  11.260  20.326  0.00  0.00    +0.000 OA
ENDBRANCH   3  10
ENDBRANCH   1   6
BRANCH   2  11
ATOM     11  C   UNL     1       4.493   5.774  16.744  0.00  0.00    +0.000 C 
ATOM     12  O   UNL     1       5.229   5.816  15.767  0.00  0.00    +0.000 OA
BRANCH  11  13
ATOM     13  C   UNL     1       4.268   4.517  17.525  0.00  0.00    +0.000 A 
ATOM     14  C   UNL     1       3.215   3.669  17.124  0.00  0.00    +0.000 A 
ATOM     15  C   UNL     1       2.936   2.488  17.812  0.00  0.00    +0.000 A 
ATOM     16  C   UNL     1       3.696   2.135  18.918  0.00  0.00    +0.000 A 
ATOM     17  C   UNL     1       4.727   2.972  19.345  0.00  0.00    +0.000 A 
ATOM     18  C   UNL     1       5.014   4.166  18.662  0.00  0.00    +0.000 A 
ATOM     19 BR   UNL     1       6.450   5.197  19.353  0.00  0.00    +0.000 Br
ENDBRANCH  11  13
ENDBRANCH   2  11
TORSDOF 4
ENDMDL
