MODEL 1
REMARK VINA RESULT:      -7.3      0.000      0.000
REMARK  Name = 
REMARK  6 active torsions:
REMARK  status: ('A' for Active; 'I' for Inactive)
REMARK    1  A    between atoms: C_1  and  C_2
REMARK    2  A    between atoms: N_11  and  C_12
REMARK    3  A    between atoms: C_21  and  C_22
REMARK    4  A    between atoms: N_27  and  C_28
REMARK    5  A    between atoms: C_28  and  C_29
REMARK    6  A    between atoms: C_29  and  C_30
REMARK                            x       y       z     vdW  Elec       q    Type
REMARK                         _______ _______ _______ _____ _____    ______ ____
ROOT
ATOM      1  C   UNL     1       1.489  13.169  20.887  0.00  0.00    +0.000 C 
ATOM      2  C   UNL     1       0.054  12.977  21.252  0.00  0.00    +0.000 A 
ATOM      3  C   UNL     1      -0.338  13.666  22.409  0.00  0.00    +0.000 A 
ATOM      4  C   UNL     1      -1.674  13.776  22.756  0.00  0.00    +0.000 A 
ATOM      5  N   UNL     1      -1.986  14.580  23.873  0.00  0.00    +0.000 N 
ATOM      6  C   UNL     1      -3.264  14.880  24.289  0.00  0.00    +0.000 A 
ATOM      7  O   UNL     1      -3.469  15.596  25.260  0.00  0.00    +0.000 OA
ATOM      8  C   UNL     1      -4.310  14.291  23.494  0.00  0.00    +0.000 A 
ATOM      9  C   UNL     1      -5.699  14.406  23.586  0.00  0.00    +0.000 A 
ATOM     10  N   UNL     1      -6.312  13.698  22.632  0.00  0.00    +0.000 NA
ATOM     11  N   UNL     1      -5.301  13.159  21.914  0.00  0.00    +0.000 N 
ATOM     12  C   UNL     1      -4.053  13.466  22.407  0.00  0.00    +0.000 A 
ATOM     13  C   UNL     1      -2.675  13.151  21.985  0.00  0.00    +0.000 A 
ATOM     14  C   UNL     1      -2.266  12.352  20.904  0.00  0.00    +0.000 A 
ATOM     15  C   UNL     1      -0.899  12.236  20.525  0.00  0.00    +0.000 A 
ATOM     16  H   UNL     1      -1.248  15.018  24.406  0.00  0.00    +0.000 HD
ENDROOT
BRANCH  15  17
ATOM     17  C   UNL     1      -0.641  11.479  19.243  0.00  0.00    +0.000 C 
ATOM     18  O   UNL     1      -0.991  12.048  18.205  0.00  0.00    +0.000 OA
ATOM     19  N   UNL     1      -0.053  10.214  19.196  0.00  0.00    +0.000 N 
ATOM     20  C   UNL     1       0.388   9.675  17.903  0.00  0.00    +0.000 C 
ATOM     21  C   UNL     1       1.870   9.245  17.983  0.00  0.00    +0.000 C 
ATOM     22  N   UNL     1       2.207   8.316  19.092  0.00  0.00    +0.000 NA
ATOM     23  C   UNL     1       1.638   8.830  20.359  0.00  0.00    +0.000 C 
ATOM     24  C   UNL     1       0.146   9.260  20.284  0.00  0.00    +0.000 C 
BRANCH  22  25
ATOM     25  C   UNL     1       1.787   6.926  18.889  0.00  0.00    +0.000 C 
BRANCH  25  26
ATOM     26  C   UNL     1       2.818   6.093  18.140  0.00  0.00    +0.000 C 
BRANCH  26  27
ATOM     27  C   UNL     1       2.299   4.692  17.902  0.00  0.00    +0.000 C 
ATOM     28  F   UNL     1       2.179   3.978  19.042  0.00  0.00    +0.000 F 
ATOM     29  F   UNL     1       1.079   4.732  17.321  0.00  0.00    +0.000 F 
ATOM     30  F   UNL     1       3.122   4.007  17.078  0.00  0.00    +0.000 F 
ENDBRANCH  26  27
ENDBRANCH  25  26
ENDBRANCH  22  25
ENDBRANCH  15  17
BRANCH  11  31
ATOM     31  C   UNL     1      -5.626  12.311  20.778  0.00  0.00    +0.000 C 
ATOM     32  C   UNL     1      -5.597  12.993  19.405  0.00  0.00    +0.000 C 
ATOM     33  C   UNL     1      -5.907  11.945  18.343  0.00  0.00    +0.000 C 
ATOM     34  O   UNL     1      -7.173  11.330  18.591  0.00  0.00    +0.000 OA
ATOM     35  C   UNL     1      -7.232  10.664  19.850  0.00  0.00    +0.000 C 
ATOM     36  C   UNL     1      -6.988  11.644  20.982  0.00  0.00    +0.000 C 
ENDBRANCH  11  31
TORSDOF 5
ENDMDL
MODEL 2
REMARK VINA RESULT:      -7.2      1.231      1.467
REMARK  Name = 
REMARK  6 active torsions:
REMARK  status: ('A' for Active; 'I' for Inactive)
REMARK    1  A    between atoms: C_1  and  C_2
REMARK    2  A    between atoms: N_11  and  C_12
REMARK    3  A    between atoms: C_21  and  C_22
REMARK    4  A    between atoms: N_27  and  C_28
REMARK    5  A    between atoms: C_28  and  C_29
REMARK    6  A    between atoms: C_29  and  C_30
REMARK                            x       y       z     vdW  Elec       q    Type
REMARK                         _______ _______ _______ _____ _____    ______ ____
ROOT
ATOM      1  C   UNL     1       1.117  13.729  21.246  0.00  0.00    +0.000 C 
ATOM      2  C   UNL     1      -0.324  13.495  21.561  0.00  0.00    +0.000 A 
ATOM      3  C   UNL     1      -0.848  14.371  22.523  0.00  0.00    +0.000 A 
ATOM      4  C   UNL     1      -2.210  14.436  22.761  0.00  0.00    +0.000 A 
ATOM      5  N   UNL     1      -2.660  15.423  23.666  0.00  0.00    +0.000 N 
ATOM      6  C   UNL     1      -3.983  15.692  23.935  0.00  0.00    +0.000 A 
ATOM      7  O   UNL     1      -4.308  16.573  24.721  0.00  0.00    +0.000 OA
ATOM      8  C   UNL     1      -4.923  14.867  23.223  0.00  0.00    +0.000 A 
ATOM      9  C   UNL     1      -6.319  14.881  23.209  0.00  0.00    +0.000 A 
ATOM     10  N   UNL     1      -6.809  13.944  22.391  0.00  0.00    +0.000 NA
ATOM     11  N   UNL     1      -5.713  13.357  21.861  0.00  0.00    +0.000 N 
ATOM     12  C   UNL     1      -4.529  13.862  22.349  0.00  0.00    +0.000 A 
ATOM     13  C   UNL     1      -3.105  13.584  22.083  0.00  0.00    +0.000 A 
ATOM     14  C   UNL     1      -2.562  12.619  21.219  0.00  0.00    +0.000 A 
ATOM     15  C   UNL     1      -1.166  12.543  20.952  0.00  0.00    +0.000 A 
ATOM     16  H   UNL     1      -1.996  16.021  24.136  0.00  0.00    +0.000 HD
ENDROOT
BRANCH  15  17
ATOM     17  C   UNL     1      -0.762  11.564  19.875  0.00  0.00    +0.000 C 
ATOM     18  O   UNL     1      -0.886  11.964  18.713  0.00  0.00    +0.000 OA
ATOM     19  N   UNL     1      -0.279  10.281  20.136  0.00  0.00    +0.000 N 
ATOM     20  C   UNL     1       0.325   9.505  19.045  0.00  0.00    +0.000 C 
ATOM     21  C   UNL     1       1.733   9.018  19.455  0.00  0.00    +0.000 C 
ATOM     22  N   UNL     1       1.805   8.278  20.741  0.00  0.00    +0.000 NA
ATOM     23  C   UNL     1       1.077   9.031  21.787  0.00  0.00    +0.000 C 
ATOM     24  C   UNL     1      -0.342   9.519  21.381  0.00  0.00    +0.000 C 
BRANCH  22  25
ATOM     25  C   UNL     1       1.312   6.897  20.692  0.00  0.00    +0.000 C 
BRANCH  25  26
ATOM     26  C   UNL     1       2.261   5.949  19.974  0.00  0.00    +0.000 C 
BRANCH  26  27
ATOM     27  C   UNL     1       2.108   4.540  20.502  0.00  0.00    +0.000 C 
ATOM     28  F   UNL     1       0.851   4.064  20.366  0.00  0.00    +0.000 F 
ATOM     29  F   UNL     1       2.931   3.695  19.843  0.00  0.00    +0.000 F 
ATOM     30  F   UNL     1       2.425   4.479  21.814  0.00  0.00    +0.000 F 
ENDBRANCH  26  27
ENDBRANCH  25  26
ENDBRANCH  22  25
ENDBRANCH  15  17
BRANCH  11  31
ATOM     31  C   UNL     1      -5.893  12.269  20.912  0.00  0.00    +0.000 C 
ATOM     32  C   UNL     1      -5.729  12.640  19.433  0.00  0.00    +0.000 C 
ATOM     33  C   UNL     1      -5.897  11.374  18.601  0.00  0.00    +0.000 C 
ATOM     34  O   UNL     1      -7.168  10.770  18.847  0.00  0.00    +0.000 OA
ATOM     35  C   UNL     1      -7.350  10.390  20.209  0.00  0.00    +0.000 C 
ATOM     36  C   UNL     1      -7.253  11.600  21.118  0.00  0.00    +0.000 C 
ENDBRANCH  11  31
TORSDOF 5
ENDMDL
MODEL 3
REMARK VINA RESULT:      -6.9      4.572      6.336
REMARK  Name = 
REMARK  6 active torsions:
REMARK  status: ('A' for Active; 'I' for Inactive)
REMARK    1  A    between atoms: C_1  and  C_2
REMARK    2  A    between atoms: N_11  and  C_12
REMARK    3  A    between atoms: C_21  and  C_22
REMARK    4  A    between atoms: N_27  and  C_28
REMARK    5  A    between atoms: C_28  and  C_29
REMARK    6  A    between atoms: C_29  and  C_30
REMARK                            x       y       z     vdW  Elec       q    Type
REMARK                         _______ _______ _______ _____ _____    ______ ____
ROOT
ATOM      1  C   UNL     1      -1.292  14.398  23.985  0.00  0.00    +0.000 C 
ATOM      2  C   UNL     1      -2.081  13.632  22.976  0.00  0.00    +0.000 A 
ATOM      3  C   UNL     1      -3.461  13.616  23.221  0.00  0.00    +0.000 A 
ATOM      4  C   UNL     1      -4.349  13.147  22.268  0.00  0.00    +0.000 A 
ATOM      5  N   UNL     1      -5.726  13.271  22.554  0.00  0.00    +0.000 N 
ATOM      6  C   UNL     1      -6.739  12.953  21.677  0.00  0.00    +0.000 A 
ATOM      7  O   UNL     1      -7.916  13.097  21.981  0.00  0.00    +0.000 OA
ATOM      8  C   UNL     1      -6.298  12.452  20.402  0.00  0.00    +0.000 A 
ATOM      9  C   UNL     1      -7.023  12.077  19.269  0.00  0.00    +0.000 A 
ATOM     10  N   UNL     1      -6.216  11.676  18.282  0.00  0.00    +0.000 NA
ATOM     11  N   UNL     1      -4.971  11.832  18.785  0.00  0.00    +0.000 N 
ATOM     12  C   UNL     1      -4.956  12.281  20.087  0.00  0.00    +0.000 A 
ATOM     13  C   UNL     1      -3.887  12.619  21.045  0.00  0.00    +0.000 A 
ATOM     14  C   UNL     1      -2.498  12.515  20.860  0.00  0.00    +0.000 A 
ATOM     15  C   UNL     1      -1.570  13.002  21.823  0.00  0.00    +0.000 A 
ATOM     16  H   UNL     1      -6.029  13.655  23.437  0.00  0.00    +0.000 HD
ENDROOT
BRANCH  15  17
ATOM     17  C   UNL     1      -0.119  12.969  21.401  0.00  0.00    +0.000 C 
ATOM     18  O   UNL     1       0.495  11.933  21.675  0.00  0.00    +0.000 OA
ATOM     19  N   UNL     1       0.521  14.021  20.746  0.00  0.00    +0.000 N 
ATOM     20  C   UNL     1       1.846  13.799  20.152  0.00  0.00    +0.000 C 
ATOM     21  C   UNL     1       1.840  14.218  18.664  0.00  0.00    +0.000 C 
ATOM     22  N   UNL     1       1.356  15.596  18.391  0.00  0.00    +0.000 NA
ATOM     23  C   UNL     1       0.081  15.825  19.109  0.00  0.00    +0.000 C 
ATOM     24  C   UNL     1       0.085  15.409  20.606  0.00  0.00    +0.000 C 
BRANCH  22  25
ATOM     25  C   UNL     1       2.306  16.664  18.716  0.00  0.00    +0.000 C 
BRANCH  25  26
ATOM     26  C   UNL     1       3.583  16.601  17.891  0.00  0.00    +0.000 C 
BRANCH  26  27
ATOM     27  C   UNL     1       4.780  16.345  18.781  0.00  0.00    +0.000 C 
ATOM     28  F   UNL     1       5.489  15.260  18.403  0.00  0.00    +0.000 F 
ATOM     29  F   UNL     1       5.621  17.403  18.757  0.00  0.00    +0.000 F 
ATOM     30  F   UNL     1       4.397  16.155  20.062  0.00  0.00    +0.000 F 
ENDBRANCH  26  27
ENDBRANCH  25  26
ENDBRANCH  22  25
ENDBRANCH  15  17
BRANCH  11  31
ATOM     31  C   UNL     1      -3.831  11.477  17.952  0.00  0.00    +0.000 C 
ATOM     32  C   UNL     1      -4.093  11.444  16.442  0.00  0.00    +0.000 C 
ATOM     33  C   UNL     1      -2.784  11.112  15.736  0.00  0.00    +0.000 C 
ATOM     34  O   UNL     1      -2.261   9.865  16.200  0.00  0.00    +0.000 OA
ATOM     35  C   UNL     1      -1.982   9.863  17.599  0.00  0.00    +0.000 C 
ATOM     36  C   UNL     1      -3.245  10.134  18.393  0.00  0.00    +0.000 C 
ENDBRANCH  11  31
TORSDOF 5
ENDMDL
MODEL 4
REMARK VINA RESULT:      -6.6      0.936      1.169
REMARK  Name = 
REMARK  6 active torsions:
REMARK  status: ('A' for Active; 'I' for Inactive)
REMARK    1  A    between atoms: C_1  and  C_2
REMARK    2  A    between atoms: N_11  and  C_12
REMARK    3  A    between atoms: C_21  and  C_22
REMARK    4  A    between atoms: N_27  and  C_28
REMARK    5  A    between atoms: C_28  and  C_29
REMARK    6  A    between atoms: C_29  and  C_30
REMARK                            x       y       z     vdW  Elec       q    Type
REMARK                         _______ _______ _______ _____ _____    ______ ____
ROOT
ATOM      1  C   UNL     1       0.815  14.027  20.495  0.00  0.00    +0.000 C 
ATOM      2  C   UNL     1      -0.565  13.617  20.890  0.00  0.00    +0.000 A 
ATOM      3  C   UNL     1      -1.099  14.360  21.952  0.00  0.00    +0.000 A 
ATOM      4  C   UNL     1      -2.438  14.261  22.290  0.00  0.00    +0.000 A 
ATOM      5  N   UNL     1      -2.915  15.126  23.298  0.00  0.00    +0.000 N 
ATOM      6  C   UNL     1      -4.234  15.232  23.679  0.00  0.00    +0.000 A 
ATOM      7  O   UNL     1      -4.586  16.014  24.554  0.00  0.00    +0.000 OA
ATOM      8  C   UNL     1      -5.137  14.362  22.973  0.00  0.00    +0.000 A 
ATOM      9  C   UNL     1      -6.524  14.226  23.057  0.00  0.00    +0.000 A 
ATOM     10  N   UNL     1      -6.977  13.302  22.205  0.00  0.00    +0.000 NA
ATOM     11  N   UNL     1      -5.871  12.876  21.555  0.00  0.00    +0.000 N 
ATOM     12  C   UNL     1      -4.711  13.470  21.997  0.00  0.00    +0.000 A 
ATOM     13  C   UNL     1      -3.291  13.368  21.610  0.00  0.00    +0.000 A 
ATOM     14  C   UNL     1      -2.721  12.530  20.637  0.00  0.00    +0.000 A 
ATOM     15  C   UNL     1      -1.349  12.625  20.269  0.00  0.00    +0.000 A 
ATOM     16  H   UNL     1      -2.281  15.758  23.766  0.00  0.00    +0.000 HD
ENDROOT
BRANCH  15  17
ATOM     17  C   UNL     1      -0.932  11.774  19.091  0.00  0.00    +0.000 C 
ATOM     18  O   UNL     1      -1.192  12.238  17.977  0.00  0.00    +0.000 OA
ATOM     19  N   UNL     1      -0.296  10.539  19.216  0.00  0.00    +0.000 N 
ATOM     20  C   UNL     1       0.296   9.912  18.027  0.00  0.00    +0.000 C 
ATOM     21  C   UNL     1       1.777   9.558  18.294  0.00  0.00    +0.000 C 
ATOM     22  N   UNL     1       2.030   8.743  19.510  0.00  0.00    +0.000 NA
ATOM     23  C   UNL     1       1.313   9.336  20.663  0.00  0.00    +0.000 C 
ATOM     24  C   UNL     1      -0.177   9.690  20.399  0.00  0.00    +0.000 C 
BRANCH  22  25
ATOM     25  C   UNL     1       1.685   7.324  19.390  0.00  0.00    +0.000 C 
BRANCH  25  26
ATOM     26  C   UNL     1       2.450   6.613  18.284  0.00  0.00    +0.000 C 
BRANCH  26  27
ATOM     27  C   UNL     1       2.972   5.278  18.769  0.00  0.00    +0.000 C 
ATOM     28  F   UNL     1       2.770   4.283  17.878  0.00  0.00    +0.000 F 
ATOM     29  F   UNL     1       4.302   5.347  19.000  0.00  0.00    +0.000 F 
ATOM     30  F   UNL     1       2.374   4.917  19.924  0.00  0.00    +0.000 F 
ENDBRANCH  26  27
ENDBRANCH  25  26
ENDBRANCH  22  25
ENDBRANCH  15  17
BRANCH  11  31
ATOM     31  C   UNL     1      -6.012  11.845  20.537  0.00  0.00    +0.000 C 
ATOM     32  C   UNL     1      -6.043  12.339  19.086  0.00  0.00    +0.000 C 
ATOM     33  C   UNL     1      -6.139  11.126  18.169  0.00  0.00    +0.000 C 
ATOM     34  O   UNL     1      -7.296  10.347  18.478  0.00  0.00    +0.000 OA
ATOM     35  C   UNL     1      -7.293   9.849  19.814  0.00  0.00    +0.000 C 
ATOM     36  C   UNL     1      -7.254  10.993  20.809  0.00  0.00    +0.000 C 
ENDBRANCH  11  31
TORSDOF 5
ENDMDL
MODEL 5
REMARK VINA RESULT:      -6.5      4.347     10.190
REMARK  Name = 
REMARK  6 active torsions:
REMARK  status: ('A' for Active; 'I' for Inactive)
REMARK    1  A    between atoms: C_1  and  C_2
REMARK    2  A    between atoms: N_11  and  C_12
REMARK    3  A    between atoms: C_21  and  C_22
REMARK    4  A    between atoms: N_27  and  C_28
REMARK    5  A    between atoms: C_28  and  C_29
REMARK    6  A    between atoms: C_29  and  C_30
REMARK                            x       y       z     vdW  Elec       q    Type
REMARK                         _______ _______ _______ _____ _____    ______ ____
ROOT
ATOM      1  C   UNL     1       2.361  10.915  18.170  0.00  0.00    +0.000 C 
ATOM      2  C   UNL     1       2.475   9.427  18.110  0.00  0.00    +0.000 A 
ATOM      3  C   UNL     1       3.314   8.959  17.088  0.00  0.00    +0.000 A 
ATOM      4  C   UNL     1       3.702   7.631  17.038  0.00  0.00    +0.000 A 
ATOM      5  N   UNL     1       4.636   7.270  16.042  0.00  0.00    +0.000 N 
ATOM      6  C   UNL     1       5.205   6.022  15.918  0.00  0.00    +0.000 A 
ATOM      7  O   UNL     1       6.021   5.777  15.039  0.00  0.00    +0.000 OA
ATOM      8  C   UNL     1       4.765   5.060  16.894  0.00  0.00    +0.000 A 
ATOM      9  C   UNL     1       5.148   3.734  17.103  0.00  0.00    +0.000 A 
ATOM     10  N   UNL     1       4.498   3.194  18.138  0.00  0.00    +0.000 NA
ATOM     11  N   UNL     1       3.722   4.198  18.605  0.00  0.00    +0.000 N 
ATOM     12  C   UNL     1       3.824   5.358  17.871  0.00  0.00    +0.000 A 
ATOM     13  C   UNL     1       3.220   6.699  17.979  0.00  0.00    +0.000 A 
ATOM     14  C   UNL     1       2.276   7.147  18.919  0.00  0.00    +0.000 A 
ATOM     15  C   UNL     1       1.873   8.510  18.994  0.00  0.00    +0.000 A 
ATOM     16  H   UNL     1       4.966   7.959  15.382  0.00  0.00    +0.000 HD
ENDROOT
BRANCH  15  17
ATOM     17  C   UNL     1       0.982   8.860  20.164  0.00  0.00    +0.000 C 
ATOM     18  O   UNL     1       1.344   8.425  21.261  0.00  0.00    +0.000 OA
ATOM     19  N   UNL     1      -0.182   9.620  20.049  0.00  0.00    +0.000 N 
ATOM     20  C   UNL     1      -0.835  10.122  21.266  0.00  0.00    +0.000 C 
ATOM     21  C   UNL     1      -1.040  11.650  21.168  0.00  0.00    +0.000 C 
ATOM     22  N   UNL     1      -1.744  12.125  19.949  0.00  0.00    +0.000 NA
ATOM     23  C   UNL     1      -1.138  11.500  18.752  0.00  0.00    +0.000 C 
ATOM     24  C   UNL     1      -0.934   9.961  18.844  0.00  0.00    +0.000 C 
BRANCH  22  25
ATOM     25  C   UNL     1      -3.193  11.903  19.943  0.00  0.00    +0.000 C 
BRANCH  25  26
ATOM     26  C   UNL     1      -3.837  12.194  18.595  0.00  0.00    +0.000 C 
BRANCH  26  27
ATOM     27  C   UNL     1      -4.776  11.076  18.200  0.00  0.00    +0.000 C 
ATOM     28  F   UNL     1      -4.144   9.893  18.044  0.00  0.00    +0.000 F 
ATOM     29  F   UNL     1      -5.729  10.902  19.143  0.00  0.00    +0.000 F 
ATOM     30  F   UNL     1      -5.400  11.359  17.036  0.00  0.00    +0.000 F 
ENDBRANCH  26  27
ENDBRANCH  25  26
ENDBRANCH  22  25
ENDBRANCH  15  17
BRANCH  11  31
ATOM     31  C   UNL     1       2.864   3.942  19.752  0.00  0.00    +0.000 C 
ATOM     32  C   UNL     1       3.336   2.838  20.706  0.00  0.00    +0.000 C 
ATOM     33  C   UNL     1       2.350   2.752  21.864  0.00  0.00    +0.000 C 
ATOM     34  O   UNL     1       1.027   2.496  21.386  0.00  0.00    +0.000 OA
ATOM     35  C   UNL     1       0.543   3.513  20.513  0.00  0.00    +0.000 C 
ATOM     36  C   UNL     1       1.436   3.638  19.294  0.00  0.00    +0.000 C 
ENDBRANCH  11  31
TORSDOF 5
ENDMDL
MODEL 6
REMARK VINA RESULT:      -6.5      1.248      1.640
REMARK  Name = 
REMARK  6 active torsions:
REMARK  status: ('A' for Active; 'I' for Inactive)
REMARK    1  A    between atoms: C_1  and  C_2
REMARK    2  A    between atoms: N_11  and  C_12
REMARK    3  A    between atoms: C_21  and  C_22
REMARK    4  A    between atoms: N_27  and  C_28
REMARK    5  A    between atoms: C_28  and  C_29
REMARK    6  A    between atoms: C_29  and  C_30
REMARK                            x       y       z     vdW  Elec       q    Type
REMARK                         _______ _______ _______ _____ _____    ______ ____
ROOT
ATOM      1  C   UNL     1       0.201  13.317  21.150  0.00  0.00    +0.000 C 
ATOM      2  C   UNL     1      -1.279  13.193  21.292  0.00  0.00    +0.000 A 
ATOM      3  C   UNL     1      -1.819  13.952  22.340  0.00  0.00    +0.000 A 
ATOM      4  C   UNL     1      -3.186  14.125  22.466  0.00  0.00    +0.000 A 
ATOM      5  N   UNL     1      -3.636  14.995  23.483  0.00  0.00    +0.000 N 
ATOM      6  C   UNL     1      -4.950  15.359  23.677  0.00  0.00    +0.000 A 
ATOM      7  O   UNL     1      -5.273  16.130  24.571  0.00  0.00    +0.000 OA
ATOM      8  C   UNL     1      -5.882  14.767  22.755  0.00  0.00    +0.000 A 
ATOM      9  C   UNL     1      -7.262  14.934  22.620  0.00  0.00    +0.000 A 
ATOM     10  N   UNL     1      -7.747  14.200  21.614  0.00  0.00    +0.000 NA
ATOM     11  N   UNL     1      -6.660  13.591  21.090  0.00  0.00    +0.000 N 
ATOM     12  C   UNL     1      -5.492  13.880  21.759  0.00  0.00    +0.000 A 
ATOM     13  C   UNL     1      -4.080  13.497  21.575  0.00  0.00    +0.000 A 
ATOM     14  C   UNL     1      -3.541  12.631  20.609  0.00  0.00    +0.000 A 
ATOM     15  C   UNL     1      -2.137  12.449  20.457  0.00  0.00    +0.000 A 
ATOM     16  H   UNL     1      -2.973  15.433  24.106  0.00  0.00    +0.000 HD
ENDROOT
BRANCH  15  17
ATOM     17  C   UNL     1      -1.714  11.619  19.267  0.00  0.00    +0.000 C 
ATOM     18  O   UNL     1      -2.195  11.957  18.181  0.00  0.00    +0.000 OA
ATOM     19  N   UNL     1      -0.842  10.533  19.351  0.00  0.00    +0.000 N 
ATOM     20  C   UNL     1      -0.293   9.956  18.117  0.00  0.00    +0.000 C 
ATOM     21  C   UNL     1       1.249   9.900  18.196  0.00  0.00    +0.000 C 
ATOM     22  N   UNL     1       1.804   9.222  19.396  0.00  0.00    +0.000 NA
ATOM     23  C   UNL     1       1.136   9.742  20.612  0.00  0.00    +0.000 C 
ATOM     24  C   UNL     1      -0.416   9.796  20.538  0.00  0.00    +0.000 C 
BRANCH  22  25
ATOM     25  C   UNL     1       1.725   7.758  19.376  0.00  0.00    +0.000 C 
BRANCH  25  26
ATOM     26  C   UNL     1       2.599   7.127  18.302  0.00  0.00    +0.000 C 
BRANCH  26  27
ATOM     27  C   UNL     1       2.973   5.711  18.683  0.00  0.00    +0.000 C 
ATOM     28  F   UNL     1       4.061   5.656  19.482  0.00  0.00    +0.000 F 
ATOM     29  F   UNL     1       1.957   5.115  19.345  0.00  0.00    +0.000 F 
ATOM     30  F   UNL     1       3.237   4.970  17.585  0.00  0.00    +0.000 F 
ENDBRANCH  26  27
ENDBRANCH  25  26
ENDBRANCH  22  25
ENDBRANCH  15  17
BRANCH  11  31
ATOM     31  C   UNL     1      -6.839  12.698  19.955  0.00  0.00    +0.000 C 
ATOM     32  C   UNL     1      -6.492  11.225  20.204  0.00  0.00    +0.000 C 
ATOM     33  C   UNL     1      -6.791  10.441  18.932  0.00  0.00    +0.000 C 
ATOM     34  O   UNL     1      -6.055  10.969  17.826  0.00  0.00    +0.000 OA
ATOM     35  C   UNL     1      -6.367  12.332  17.548  0.00  0.00    +0.000 C 
ATOM     36  C   UNL     1      -6.050  13.206  18.746  0.00  0.00    +0.000 C 
ENDBRANCH  11  31
TORSDOF 5
ENDMDL
MODEL 7
REMARK VINA RESULT:      -6.5      4.783     10.501
REMARK  Name = 
REMARK  6 active torsions:
REMARK  status: ('A' for Active; 'I' for Inactive)
REMARK    1  A    between atoms: C_1  and  C_2
REMARK    2  A    between atoms: N_11  and  C_12
REMARK    3  A    between atoms: C_21  and  C_22
REMARK    4  A    between atoms: N_27  and  C_28
REMARK    5  A    between atoms: C_28  and  C_29
REMARK    6  A    between atoms: C_29  and  C_30
REMARK                            x       y       z     vdW  Elec       q    Type
REMARK                         _______ _______ _______ _____ _____    ______ ____
ROOT
ATOM      1  C   UNL     1       2.337  10.884  18.298  0.00  0.00    +0.000 C 
ATOM      2  C   UNL     1       2.452   9.399  18.209  0.00  0.00    +0.000 A 
ATOM      3  C   UNL     1       3.251   8.949  17.149  0.00  0.00    +0.000 A 
ATOM      4  C   UNL     1       3.641   7.624  17.061  0.00  0.00    +0.000 A 
ATOM      5  N   UNL     1       4.537   7.283  16.024  0.00  0.00    +0.000 N 
ATOM      6  C   UNL     1       5.104   6.039  15.858  0.00  0.00    +0.000 A 
ATOM      7  O   UNL     1       5.885   5.810  14.943  0.00  0.00    +0.000 OA
ATOM      8  C   UNL     1       4.705   5.060  16.834  0.00  0.00    +0.000 A 
ATOM      9  C   UNL     1       5.100   3.731  17.006  0.00  0.00    +0.000 A 
ATOM     10  N   UNL     1       4.492   3.172  18.056  0.00  0.00    +0.000 NA
ATOM     11  N   UNL     1       3.732   4.166  18.570  0.00  0.00    +0.000 N 
ATOM     12  C   UNL     1       3.802   5.338  17.851  0.00  0.00    +0.000 A 
ATOM     13  C   UNL     1       3.200   6.675  18.005  0.00  0.00    +0.000 A 
ATOM     14  C   UNL     1       2.292   7.104  18.988  0.00  0.00    +0.000 A 
ATOM     15  C   UNL     1       1.888   8.465  19.102  0.00  0.00    +0.000 A 
ATOM     16  H   UNL     1       4.838   7.983  15.363  0.00  0.00    +0.000 HD
ENDROOT
BRANCH  15  17
ATOM     17  C   UNL     1       1.043   8.793  20.311  0.00  0.00    +0.000 C 
ATOM     18  O   UNL     1       1.369   8.231  21.361  0.00  0.00    +0.000 OA
ATOM     19  N   UNL     1      -0.045   9.666  20.281  0.00  0.00    +0.000 N 
ATOM     20  C   UNL     1      -0.639  10.118  21.546  0.00  0.00    +0.000 C 
ATOM     21  C   UNL     1      -0.699  11.662  21.585  0.00  0.00    +0.000 C 
ATOM     22  N   UNL     1      -1.363  12.305  20.423  0.00  0.00    +0.000 NA
ATOM     23  C   UNL     1      -0.827  11.734  19.166  0.00  0.00    +0.000 C 
ATOM     24  C   UNL     1      -0.769  10.181  19.121  0.00  0.00    +0.000 C 
BRANCH  22  25
ATOM     25  C   UNL     1      -2.827  12.222  20.419  0.00  0.00    +0.000 C 
BRANCH  25  26
ATOM     26  C   UNL     1      -3.496  13.426  21.065  0.00  0.00    +0.000 C 
BRANCH  26  27
ATOM     27  C   UNL     1      -4.660  12.991  21.928  0.00  0.00    +0.000 C 
ATOM     28  F   UNL     1      -4.265  12.425  23.090  0.00  0.00    +0.000 F 
ATOM     29  F   UNL     1      -5.439  14.050  22.241  0.00  0.00    +0.000 F 
ATOM     30  F   UNL     1      -5.432  12.092  21.280  0.00  0.00    +0.000 F 
ENDBRANCH  26  27
ENDBRANCH  25  26
ENDBRANCH  22  25
ENDBRANCH  15  17
BRANCH  11  31
ATOM     31  C   UNL     1       2.921   3.889  19.745  0.00  0.00    +0.000 C 
ATOM     32  C   UNL     1       3.395   2.725  20.625  0.00  0.00    +0.000 C 
ATOM     33  C   UNL     1       2.462   2.622  21.825  0.00  0.00    +0.000 C 
ATOM     34  O   UNL     1       1.110   2.436  21.402  0.00  0.00    +0.000 OA
ATOM     35  C   UNL     1       0.624   3.510  20.600  0.00  0.00    +0.000 C 
ATOM     36  C   UNL     1       1.462   3.658  19.345  0.00  0.00    +0.000 C 
ENDBRANCH  11  31
TORSDOF 5
ENDMDL
MODEL 8
REMARK VINA RESULT:      -6.5      6.410     10.665
REMARK  Name = 
REMARK  6 active torsions:
REMARK  status: ('A' for Active; 'I' for Inactive)
REMARK    1  A    between atoms: C_1  and  C_2
REMARK    2  A    between atoms: N_11  and  C_12
REMARK    3  A    between atoms: C_21  and  C_22
REMARK    4  A    between atoms: N_27  and  C_28
REMARK    5  A    between atoms: C_28  and  C_29
REMARK    6  A    between atoms: C_29  and  C_30
REMARK                            x       y       z     vdW  Elec       q    Type
REMARK                         _______ _______ _______ _____ _____    ______ ____
ROOT
ATOM      1  C   UNL     1       3.372  16.128  17.738  0.00  0.00    +0.000 C 
ATOM      2  C   UNL     1       4.503  15.468  18.454  0.00  0.00    +0.000 A 
ATOM      3  C   UNL     1       5.722  15.512  17.761  0.00  0.00    +0.000 A 
ATOM      4  C   UNL     1       6.907  15.150  18.379  0.00  0.00    +0.000 A 
ATOM      5  N   UNL     1       8.098  15.331  17.644  0.00  0.00    +0.000 N 
ATOM      6  C   UNL     1       9.365  15.122  18.142  0.00  0.00    +0.000 A 
ATOM      7  O   UNL     1      10.361  15.311  17.456  0.00  0.00    +0.000 OA
ATOM      8  C   UNL     1       9.408  14.675  19.509  0.00  0.00    +0.000 A 
ATOM      9  C   UNL     1      10.492  14.408  20.347  0.00  0.00    +0.000 A 
ATOM     10  N   UNL     1      10.089  14.024  21.562  0.00  0.00    +0.000 NA
ATOM     11  N   UNL     1       8.740  14.081  21.500  0.00  0.00    +0.000 N 
ATOM     12  C   UNL     1       8.262  14.450  20.262  0.00  0.00    +0.000 A 
ATOM     13  C   UNL     1       6.915  14.672  19.705  0.00  0.00    +0.000 A 
ATOM     14  C   UNL     1       5.677  14.504  20.348  0.00  0.00    +0.000 A 
ATOM     15  C   UNL     1       4.450  14.882  19.734  0.00  0.00    +0.000 A 
ATOM     16  H   UNL     1       8.062  15.677  16.696  0.00  0.00    +0.000 HD
ENDROOT
BRANCH  15  17
ATOM     17  C   UNL     1       3.227  14.795  20.619  0.00  0.00    +0.000 C 
ATOM     18  O   UNL     1       3.237  15.521  21.618  0.00  0.00    +0.000 OA
ATOM     19  N   UNL     1       2.141  13.959  20.359  0.00  0.00    +0.000 N 
ATOM     20  C   UNL     1       0.901  14.133  21.126  0.00  0.00    +0.000 C 
ATOM     21  C   UNL     1      -0.299  14.302  20.167  0.00  0.00    +0.000 C 
ATOM     22  N   UNL     1      -0.451  13.240  19.139  0.00  0.00    +0.000 NA
ATOM     23  C   UNL     1       0.851  13.006  18.473  0.00  0.00    +0.000 C 
ATOM     24  C   UNL     1       2.060  12.831  19.434  0.00  0.00    +0.000 C 
BRANCH  22  25
ATOM     25  C   UNL     1      -0.990  11.969  19.633  0.00  0.00    +0.000 C 
BRANCH  25  26
ATOM     26  C   UNL     1      -2.252  11.531  18.904  0.00  0.00    +0.000 C 
BRANCH  26  27
ATOM     27  C   UNL     1      -1.921  10.526  17.822  0.00  0.00    +0.000 C 
ATOM     28  F   UNL     1      -1.933  11.068  16.585  0.00  0.00    +0.000 F 
ATOM     29  F   UNL     1      -0.690  10.005  18.021  0.00  0.00    +0.000 F 
ATOM     30  F   UNL     1      -2.805   9.504  17.827  0.00  0.00    +0.000 F 
ENDBRANCH  26  27
ENDBRANCH  25  26
ENDBRANCH  22  25
ENDBRANCH  15  17
BRANCH  11  31
ATOM     31  C   UNL     1       7.970  13.716  22.679  0.00  0.00    +0.000 C 
ATOM     32  C   UNL     1       8.554  14.166  24.024  0.00  0.00    +0.000 C 
ATOM     33  C   UNL     1       7.592  13.746  25.128  0.00  0.00    +0.000 C 
ATOM     34  O   UNL     1       7.375  12.333  25.102  0.00  0.00    +0.000 OA
ATOM     35  C   UNL     1       6.810  11.878  23.874  0.00  0.00    +0.000 C 
ATOM     36  C   UNL     1       7.728  12.205  22.712  0.00  0.00    +0.000 C 
ENDBRANCH  11  31
TORSDOF 5
ENDMDL
MODEL 9
REMARK VINA RESULT:      -6.5      6.126     10.095
REMARK  Name = 
REMARK  6 active torsions:
REMARK  status: ('A' for Active; 'I' for Inactive)
REMARK    1  A    between atoms: C_1  and  C_2
REMARK    2  A    between atoms: N_11  and  C_12
REMARK    3  A    between atoms: C_21  and  C_22
REMARK    4  A    between atoms: N_27  and  C_28
REMARK    5  A    between atoms: C_28  and  C_29
REMARK    6  A    between atoms: C_29  and  C_30
REMARK                            x       y       z     vdW  Elec       q    Type
REMARK                         _______ _______ _______ _____ _____    ______ ____
ROOT
ATOM      1  C   UNL     1       1.810  16.594  19.063  0.00  0.00    +0.000 C 
ATOM      2  C   UNL     1       3.143  16.009  19.390  0.00  0.00    +0.000 A 
ATOM      3  C   UNL     1       4.216  16.630  18.734  0.00  0.00    +0.000 A 
ATOM      4  C   UNL     1       5.525  16.360  19.095  0.00  0.00    +0.000 A 
ATOM      5  N   UNL     1       6.537  17.112  18.460  0.00  0.00    +0.000 N 
ATOM      6  C   UNL     1       7.876  17.046  18.775  0.00  0.00    +0.000 A 
ATOM      7  O   UNL     1       8.704  17.736  18.194  0.00  0.00    +0.000 OA
ATOM      8  C   UNL     1       8.203  16.117  19.824  0.00  0.00    +0.000 A 
ATOM      9  C   UNL     1       9.426  15.818  20.429  0.00  0.00    +0.000 A 
ATOM     10  N   UNL     1       9.286  14.893  21.383  0.00  0.00    +0.000 NA
ATOM     11  N   UNL     1       7.960  14.631  21.403  0.00  0.00    +0.000 N 
ATOM     12  C   UNL     1       7.248  15.331  20.455  0.00  0.00    +0.000 A 
ATOM     13  C   UNL     1       5.820  15.412  20.095  0.00  0.00    +0.000 A 
ATOM     14  C   UNL     1       4.747  14.696  20.655  0.00  0.00    +0.000 A 
ATOM     15  C   UNL     1       3.394  14.967  20.305  0.00  0.00    +0.000 A 
ATOM     16  H   UNL     1       6.297  17.787  17.748  0.00  0.00    +0.000 HD
ENDROOT
BRANCH  15  17
ATOM     17  C   UNL     1       2.354  14.231  21.117  0.00  0.00    +0.000 C 
ATOM     18  O   UNL     1       2.324  14.502  22.321  0.00  0.00    +0.000 OA
ATOM     19  N   UNL     1       1.469  13.297  20.577  0.00  0.00    +0.000 N 
ATOM     20  C   UNL     1       0.335  12.830  21.386  0.00  0.00    +0.000 C 
ATOM     21  C   UNL     1      -0.987  13.020  20.607  0.00  0.00    +0.000 C 
ATOM     22  N   UNL     1      -1.019  12.423  19.247  0.00  0.00    +0.000 NA
ATOM     23  C   UNL     1       0.203  12.813  18.506  0.00  0.00    +0.000 C 
ATOM     24  C   UNL     1       1.534  12.620  19.284  0.00  0.00    +0.000 C 
BRANCH  22  25
ATOM     25  C   UNL     1      -1.175  10.966  19.211  0.00  0.00    +0.000 C 
BRANCH  25  26
ATOM     26  C   UNL     1      -1.375  10.420  17.805  0.00  0.00    +0.000 C 
BRANCH  26  27
ATOM     27  C   UNL     1      -2.832  10.495  17.406  0.00  0.00    +0.000 C 
ATOM     28  F   UNL     1      -3.013  11.056  16.191  0.00  0.00    +0.000 F 
ATOM     29  F   UNL     1      -3.375   9.258  17.362  0.00  0.00    +0.000 F 
ATOM     30  F   UNL     1      -3.540  11.221  18.298  0.00  0.00    +0.000 F 
ENDBRANCH  26  27
ENDBRANCH  25  26
ENDBRANCH  22  25
ENDBRANCH  15  17
BRANCH  11  31
ATOM     31  C   UNL     1       7.457  13.645  22.347  0.00  0.00    +0.000 C 
ATOM     32  C   UNL     1       6.930  14.200  23.676  0.00  0.00    +0.000 C 
ATOM     33  C   UNL     1       6.400  13.037  24.504  0.00  0.00    +0.000 C 
ATOM     34  O   UNL     1       7.420  12.059  24.718  0.00  0.00    +0.000 OA
ATOM     35  C   UNL     1       7.920  11.501  23.505  0.00  0.00    +0.000 C 
ATOM     36  C   UNL     1       8.522  12.583  22.629  0.00  0.00    +0.000 C 
ENDBRANCH  11  31
TORSDOF 5
ENDMDL
