MODEL 1
REMARK VINA RESULT:      -7.7      0.000      0.000
REMARK  Name = 
REMARK  9 active torsions:
REMARK  status: ('A' for Active; 'I' for Inactive)
REMARK    1  A    between atoms: C_1  and  O_2
REMARK    2  A    between atoms: O_2  and  C_3
REMARK    3  A    between atoms: C_5  and  O_6
REMARK    4  A    between atoms: O_6  and  C_7
REMARK    5  A    between atoms: C_8  and  O_9
REMARK    6  A    between atoms: O_9  and  C_10
REMARK    7  A    between atoms: C_12  and  C_13
REMARK    8  A    between atoms: N_14  and  N_15
REMARK    9  A    between atoms: C_16  and  C_18
REMARK                            x       y       z     vdW  Elec       q    Type
REMARK                         _______ _______ _______ _____ _____    ______ ____
ROOT
ATOM      1  C   UNL     1       3.077   6.098  18.830  0.00  0.00    +0.000 C 
ATOM      2  N   UNL     1       2.765   7.355  18.859  0.00  0.00    +0.000 NA
ENDROOT
BRANCH   1   8
ATOM      3  C   UNL     1       3.921   4.457  17.080  0.00  0.00    +0.000 A 
ATOM      4  C   UNL     1       4.930   4.095  16.176  0.00  0.00    +0.000 A 
ATOM      5  C   UNL     1       6.127   4.814  16.076  0.00  0.00    +0.000 A 
ATOM      6  C   UNL     1       6.304   5.979  16.832  0.00  0.00    +0.000 A 
ATOM      7  C   UNL     1       5.280   6.372  17.703  0.00  0.00    +0.000 A 
ATOM      8  C   UNL     1       4.091   5.623  17.838  0.00  0.00    +0.000 A 
BRANCH   3  10
ATOM      9  C   UNL     1       2.975   2.427  17.819  0.00  0.00    +0.000 C 
ATOM     10  O   UNL     1       2.776   3.717  17.228  0.00  0.00    +0.000 OA
ENDBRANCH   3  10
BRANCH   5  11
ATOM     11  O   UNL     1       7.000   4.279  15.162  0.00  0.00    +0.000 OA
ATOM     12  C   UNL     1       6.483   4.043  13.858  0.00  0.00    +0.000 C 
ENDBRANCH   5  11
BRANCH   6  13
ATOM     13  O   UNL     1       7.461   6.681  16.643  0.00  0.00    +0.000 OA
ATOM     14  C   UNL     1       7.739   7.765  17.518  0.00  0.00    +0.000 C 
ENDBRANCH   6  13
ENDBRANCH   1   8
BRANCH   2  15
ATOM     15  N   UNL     1       1.892   7.833  19.796  0.00  0.00    +0.000 N 
ATOM     16  C   UNL     1       1.231   9.022  19.489  0.00  0.00    +0.000 C 
ATOM     17  O   UNL     1       1.325   9.598  18.400  0.00  0.00    +0.000 OA
ATOM     18  H   UNL     1       1.884   7.426  20.725  0.00  0.00    +0.000 HD
BRANCH  16  19
ATOM     19  C   UNL     1       0.397   9.669  20.544  0.00  0.00    +0.000 A 
ATOM     20  C   UNL     1       0.480   9.129  21.844  0.00  0.00    +0.000 A 
ATOM     21  C   UNL     1      -0.210   9.678  22.930  0.00  0.00    +0.000 A 
ATOM     22  C   UNL     1      -0.978  10.807  22.661  0.00  0.00    +0.000 A 
ATOM     23  N   UNL     1      -1.751  11.609  23.464  0.00  0.00    +0.000 N 
ATOM     24  C   UNL     1      -2.276  12.600  22.684  0.00  0.00    +0.000 A 
ATOM     25  N   UNL     1      -1.902  12.483  21.431  0.00  0.00    +0.000 NA
ATOM     26  C   UNL     1      -1.087  11.373  21.394  0.00  0.00    +0.000 A 
ATOM     27  C   UNL     1      -0.396  10.802  20.309  0.00  0.00    +0.000 A 
ATOM     28  H   UNL     1      -1.893  11.495  24.457  0.00  0.00    +0.000 HD
ENDBRANCH  16  19
ENDBRANCH   2  15
TORSDOF 6
ENDMDL
MODEL 2
REMARK VINA RESULT:      -7.6      2.789      3.647
REMARK  Name = 
REMARK  9 active torsions:
REMARK  status: ('A' for Active; 'I' for Inactive)
REMARK    1  A    between atoms: C_1  and  O_2
REMARK    2  A    between atoms: O_2  and  C_3
REMARK    3  A    between atoms: C_5  and  O_6
REMARK    4  A    between atoms: O_6  and  C_7
REMARK    5  A    between atoms: C_8  and  O_9
REMARK    6  A    between atoms: O_9  and  C_10
REMARK    7  A    between atoms: C_12  and  C_13
REMARK    8  A    between atoms: N_14  and  N_15
REMARK    9  A    between atoms: C_16  and  C_18
REMARK                            x       y       z     vdW  Elec       q    Type
REMARK                         _______ _______ _______ _____ _____    ______ ____
ROOT
ATOM      1  C   UNL     1       2.133   7.622  17.666  0.00  0.00    +0.000 C 
ATOM      2  N   UNL     1       2.066   8.862  18.038  0.00  0.00    +0.000 NA
ENDROOT
BRANCH   1   8
ATOM      3  C   UNL     1       3.502   6.047  19.118  0.00  0.00    +0.000 A 
ATOM      4  C   UNL     1       4.702   5.348  19.314  0.00  0.00    +0.000 A 
ATOM      5  C   UNL     1       5.790   5.489  18.445  0.00  0.00    +0.000 A 
ATOM      6  C   UNL     1       5.665   6.279  17.296  0.00  0.00    +0.000 A 
ATOM      7  C   UNL     1       4.453   6.943  17.070  0.00  0.00    +0.000 A 
ATOM      8  C   UNL     1       3.370   6.838  17.969  0.00  0.00    +0.000 A 
BRANCH   3  10
ATOM      9  C   UNL     1       2.440   4.765  20.789  0.00  0.00    +0.000 C 
ATOM     10  O   UNL     1       2.457   5.963  20.003  0.00  0.00    +0.000 OA
ENDBRANCH   3  10
BRANCH   5  11
ATOM     11  O   UNL     1       6.883   4.753  18.829  0.00  0.00    +0.000 OA
ATOM     12  C   UNL     1       7.952   5.476  19.428  0.00  0.00    +0.000 C 
ENDBRANCH   5  11
BRANCH   6  13
ATOM     13  O   UNL     1       6.734   6.324  16.446  0.00  0.00    +0.000 OA
ATOM     14  C   UNL     1       6.912   5.250  15.533  0.00  0.00    +0.000 C 
ENDBRANCH   6  13
ENDBRANCH   1   8
BRANCH   2  15
ATOM     15  N   UNL     1       0.925   9.587  17.835  0.00  0.00    +0.000 N 
ATOM     16  C   UNL     1       0.179   9.912  18.969  0.00  0.00    +0.000 C 
ATOM     17  O   UNL     1       0.540   9.662  20.124  0.00  0.00    +0.000 OA
ATOM     18  H   UNL     1       0.571   9.708  16.893  0.00  0.00    +0.000 HD
BRANCH  16  19
ATOM     19  C   UNL     1      -1.155  10.556  18.786  0.00  0.00    +0.000 A 
ATOM     20  C   UNL     1      -1.535  11.519  19.744  0.00  0.00    +0.000 A 
ATOM     21  C   UNL     1      -2.736  12.232  19.655  0.00  0.00    +0.000 A 
ATOM     22  C   UNL     1      -3.535  11.951  18.551  0.00  0.00    +0.000 A 
ATOM     23  N   UNL     1      -4.739  12.461  18.131  0.00  0.00    +0.000 N 
ATOM     24  C   UNL     1      -5.072  11.839  16.961  0.00  0.00    +0.000 A 
ATOM     25  N   UNL     1      -4.169  10.955  16.607  0.00  0.00    +0.000 NA
ATOM     26  C   UNL     1      -3.198  11.011  17.582  0.00  0.00    +0.000 A 
ATOM     27  C   UNL     1      -1.992  10.293  17.691  0.00  0.00    +0.000 A 
ATOM     28  H   UNL     1      -5.274  13.179  18.596  0.00  0.00    +0.000 HD
ENDBRANCH  16  19
ENDBRANCH   2  15
TORSDOF 6
ENDMDL
MODEL 3
REMARK VINA RESULT:      -7.4      2.451      3.377
REMARK  Name = 
REMARK  9 active torsions:
REMARK  status: ('A' for Active; 'I' for Inactive)
REMARK    1  A    between atoms: C_1  and  O_2
REMARK    2  A    between atoms: O_2  and  C_3
REMARK    3  A    between atoms: C_5  and  O_6
REMARK    4  A    between atoms: O_6  and  C_7
REMARK    5  A    between atoms: C_8  and  O_9
REMARK    6  A    between atoms: O_9  and  C_10
REMARK    7  A    between atoms: C_12  and  C_13
REMARK    8  A    between atoms: N_14  and  N_15
REMARK    9  A    between atoms: C_16  and  C_18
REMARK                            x       y       z     vdW  Elec       q    Type
REMARK                         _______ _______ _______ _____ _____    ______ ____
ROOT
ATOM      1  C   UNL     1       2.180   7.573  17.727  0.00  0.00    +0.000 C 
ATOM      2  N   UNL     1       2.201   8.862  17.863  0.00  0.00    +0.000 NA
ENDROOT
BRANCH   1   8
ATOM      3  C   UNL     1       3.622   6.045  19.160  0.00  0.00    +0.000 A 
ATOM      4  C   UNL     1       4.829   5.347  19.315  0.00  0.00    +0.000 A 
ATOM      5  C   UNL     1       5.868   5.450  18.383  0.00  0.00    +0.000 A 
ATOM      6  C   UNL     1       5.683   6.199  17.215  0.00  0.00    +0.000 A 
ATOM      7  C   UNL     1       4.462   6.860  17.031  0.00  0.00    +0.000 A 
ATOM      8  C   UNL     1       3.429   6.794  17.992  0.00  0.00    +0.000 A 
BRANCH   3  10
ATOM      9  C   UNL     1       2.224   4.675  20.477  0.00  0.00    +0.000 C 
ATOM     10  O   UNL     1       2.627   5.999  20.103  0.00  0.00    +0.000 OA
ENDBRANCH   3  10
BRANCH   5  11
ATOM     11  O   UNL     1       6.978   4.723  18.734  0.00  0.00    +0.000 OA
ATOM     12  C   UNL     1       8.007   5.431  19.417  0.00  0.00    +0.000 C 
ENDBRANCH   5  11
BRANCH   6  13
ATOM     13  O   UNL     1       6.704   6.208  16.306  0.00  0.00    +0.000 OA
ATOM     14  C   UNL     1       6.765   5.154  15.355  0.00  0.00    +0.000 C 
ENDBRANCH   6  13
ENDBRANCH   1   8
BRANCH   2  15
ATOM     15  N   UNL     1       1.061   9.596  17.694  0.00  0.00    +0.000 N 
ATOM     16  C   UNL     1       0.344   9.915  18.847  0.00  0.00    +0.000 C 
ATOM     17  O   UNL     1       0.730   9.652  19.991  0.00  0.00    +0.000 OA
ATOM     18  H   UNL     1       0.686   9.729  16.762  0.00  0.00    +0.000 HD
BRANCH  16  19
ATOM     19  C   UNL     1      -0.989  10.570  18.702  0.00  0.00    +0.000 A 
ATOM     20  C   UNL     1      -1.762  10.202  17.580  0.00  0.00    +0.000 A 
ATOM     21  C   UNL     1      -3.049  10.704  17.359  0.00  0.00    +0.000 A 
ATOM     22  C   UNL     1      -3.539  11.581  18.323  0.00  0.00    +0.000 A 
ATOM     23  N   UNL     1      -4.741  12.234  18.449  0.00  0.00    +0.000 N 
ATOM     24  C   UNL     1      -4.701  12.963  19.604  0.00  0.00    +0.000 A 
ATOM     25  N   UNL     1      -3.551  12.831  20.223  0.00  0.00    +0.000 NA
ATOM     26  C   UNL     1      -2.812  11.969  19.444  0.00  0.00    +0.000 A 
ATOM     27  C   UNL     1      -1.513  11.464  19.647  0.00  0.00    +0.000 A 
ATOM     28  H   UNL     1      -5.519  12.174  17.809  0.00  0.00    +0.000 HD
ENDBRANCH  16  19
ENDBRANCH   2  15
TORSDOF 6
ENDMDL
MODEL 4
REMARK VINA RESULT:      -7.3      5.034      7.876
REMARK  Name = 
REMARK  9 active torsions:
REMARK  status: ('A' for Active; 'I' for Inactive)
REMARK    1  A    between atoms: C_1  and  O_2
REMARK    2  A    between atoms: O_2  and  C_3
REMARK    3  A    between atoms: C_5  and  O_6
REMARK    4  A    between atoms: O_6  and  C_7
REMARK    5  A    between atoms: C_8  and  O_9
REMARK    6  A    between atoms: O_9  and  C_10
REMARK    7  A    between atoms: C_12  and  C_13
REMARK    8  A    between atoms: N_14  and  N_15
REMARK    9  A    between atoms: C_16  and  C_18
REMARK                            x       y       z     vdW  Elec       q    Type
REMARK                         _______ _______ _______ _____ _____    ______ ____
ROOT
ATOM      1  C   UNL     1       5.527   7.351  17.340  0.00  0.00    +0.000 C 
ATOM      2  N   UNL     1       6.820   7.435  17.302  0.00  0.00    +0.000 NA
ENDROOT
BRANCH   1   8
ATOM      3  C   UNL     1       4.943   5.050  16.430  0.00  0.00    +0.000 A 
ATOM      4  C   UNL     1       4.313   3.813  16.634  0.00  0.00    +0.000 A 
ATOM      5  C   UNL     1       3.567   3.545  17.787  0.00  0.00    +0.000 A 
ATOM      6  C   UNL     1       3.507   4.494  18.814  0.00  0.00    +0.000 A 
ATOM      7  C   UNL     1       4.173   5.714  18.637  0.00  0.00    +0.000 A 
ATOM      8  C   UNL     1       4.889   6.004  17.455  0.00  0.00    +0.000 A 
BRANCH   3  10
ATOM      9  C   UNL     1       6.661   4.413  14.945  0.00  0.00    +0.000 C 
ATOM     10  O   UNL     1       5.620   5.341  15.273  0.00  0.00    +0.000 OA
ENDBRANCH   3  10
BRANCH   5  11
ATOM     11  O   UNL     1       2.999   2.295  17.780  0.00  0.00    +0.000 OA
ATOM     12  C   UNL     1       3.747   1.258  18.402  0.00  0.00    +0.000 C 
ENDBRANCH   5  11
BRANCH   6  13
ATOM     13  O   UNL     1       2.824   4.152  19.947  0.00  0.00    +0.000 OA
ATOM     14  C   UNL     1       2.049   5.153  20.592  0.00  0.00    +0.000 C 
ENDBRANCH   6  13
ENDBRANCH   1   8
BRANCH   2  15
ATOM     15  N   UNL     1       7.436   8.655  17.264  0.00  0.00    +0.000 N 
ATOM     16  C   UNL     1       8.371   8.917  18.266  0.00  0.00    +0.000 C 
ATOM     17  O   UNL     1       8.726   8.085  19.108  0.00  0.00    +0.000 OA
ATOM     18  H   UNL     1       7.081   9.375  16.645  0.00  0.00    +0.000 HD
BRANCH  16  19
ATOM     19  C   UNL     1       8.946  10.290  18.366  0.00  0.00    +0.000 A 
ATOM     20  C   UNL     1       8.338  11.295  17.585  0.00  0.00    +0.000 A 
ATOM     21  C   UNL     1       8.749  12.632  17.629  0.00  0.00    +0.000 A 
ATOM     22  C   UNL     1       9.790  12.924  18.507  0.00  0.00    +0.000 A 
ATOM     23  N   UNL     1      10.422  14.100  18.827  0.00  0.00    +0.000 N 
ATOM     24  C   UNL     1      11.371  13.821  19.770  0.00  0.00    +0.000 A 
ATOM     25  N   UNL     1      11.398  12.543  20.069  0.00  0.00    +0.000 NA
ATOM     26  C   UNL     1      10.416  11.964  19.296  0.00  0.00    +0.000 A 
ATOM     27  C   UNL     1       9.999  10.621  19.231  0.00  0.00    +0.000 A 
ATOM     28  H   UNL     1      10.213  15.010  18.445  0.00  0.00    +0.000 HD
ENDBRANCH  16  19
ENDBRANCH   2  15
TORSDOF 6
ENDMDL
MODEL 5
REMARK VINA RESULT:      -7.3      0.844      1.455
REMARK  Name = 
REMARK  9 active torsions:
REMARK  status: ('A' for Active; 'I' for Inactive)
REMARK    1  A    between atoms: C_1  and  O_2
REMARK    2  A    between atoms: O_2  and  C_3
REMARK    3  A    between atoms: C_5  and  O_6
REMARK    4  A    between atoms: O_6  and  C_7
REMARK    5  A    between atoms: C_8  and  O_9
REMARK    6  A    between atoms: O_9  and  C_10
REMARK    7  A    between atoms: C_12  and  C_13
REMARK    8  A    between atoms: N_14  and  N_15
REMARK    9  A    between atoms: C_16  and  C_18
REMARK                            x       y       z     vdW  Elec       q    Type
REMARK                         _______ _______ _______ _____ _____    ______ ____
ROOT
ATOM      1  C   UNL     1       2.989   6.602  18.614  0.00  0.00    +0.000 C 
ATOM      2  N   UNL     1       2.436   7.699  18.201  0.00  0.00    +0.000 NA
ENDROOT
BRANCH   1   8
ATOM      3  C   UNL     1       3.882   4.693  17.190  0.00  0.00    +0.000 A 
ATOM      4  C   UNL     1       4.930   4.174  16.416  0.00  0.00    +0.000 A 
ATOM      5  C   UNL     1       6.152   4.842  16.283  0.00  0.00    +0.000 A 
ATOM      6  C   UNL     1       6.322   6.104  16.863  0.00  0.00    +0.000 A 
ATOM      7  C   UNL     1       5.262   6.650  17.599  0.00  0.00    +0.000 A 
ATOM      8  C   UNL     1       4.044   5.958  17.771  0.00  0.00    +0.000 A 
BRANCH   3  10
ATOM      9  C   UNL     1       2.869   2.623  17.694  0.00  0.00    +0.000 C 
ATOM     10  O   UNL     1       2.706   4.011  17.377  0.00  0.00    +0.000 OA
ENDBRANCH   3  10
BRANCH   5  11
ATOM     11  O   UNL     1       7.060   4.153  15.518  0.00  0.00    +0.000 OA
ATOM     12  C   UNL     1       7.023   4.402  14.118  0.00  0.00    +0.000 C 
ENDBRANCH   5  11
BRANCH   6  13
ATOM     13  O   UNL     1       7.510   6.742  16.642  0.00  0.00    +0.000 OA
ATOM     14  C   UNL     1       7.873   7.806  17.512  0.00  0.00    +0.000 C 
ENDBRANCH   6  13
ENDBRANCH   1   8
BRANCH   2  15
ATOM     15  N   UNL     1       1.518   8.349  18.978  0.00  0.00    +0.000 N 
ATOM     16  C   UNL     1       1.224   9.667  18.630  0.00  0.00    +0.000 C 
ATOM     17  O   UNL     1       1.672  10.229  17.625  0.00  0.00    +0.000 OA
ATOM     18  H   UNL     1       1.223   7.935  19.854  0.00  0.00    +0.000 HD
BRANCH  16  19
ATOM     19  C   UNL     1       0.356  10.470  19.541  0.00  0.00    +0.000 A 
ATOM     20  C   UNL     1      -0.620  11.289  18.935  0.00  0.00    +0.000 A 
ATOM     21  C   UNL     1      -1.530  12.048  19.680  0.00  0.00    +0.000 A 
ATOM     22  C   UNL     1      -1.430  11.938  21.064  0.00  0.00    +0.000 A 
ATOM     23  N   UNL     1      -2.154  12.502  22.087  0.00  0.00    +0.000 N 
ATOM     24  C   UNL     1      -1.642  12.037  23.265  0.00  0.00    +0.000 A 
ATOM     25  N   UNL     1      -0.631  11.222  23.069  0.00  0.00    +0.000 NA
ATOM     26  C   UNL     1      -0.485  11.142  21.702  0.00  0.00    +0.000 A 
ATOM     27  C   UNL     1       0.431  10.393  20.939  0.00  0.00    +0.000 A 
ATOM     28  H   UNL     1      -2.934  13.134  21.984  0.00  0.00    +0.000 HD
ENDBRANCH  16  19
ENDBRANCH   2  15
TORSDOF 6
ENDMDL
MODEL 6
REMARK VINA RESULT:      -7.1      2.974      9.685
REMARK  Name = 
REMARK  9 active torsions:
REMARK  status: ('A' for Active; 'I' for Inactive)
REMARK    1  A    between atoms: C_1  and  O_2
REMARK    2  A    between atoms: O_2  and  C_3
REMARK    3  A    between atoms: C_5  and  O_6
REMARK    4  A    between atoms: O_6  and  C_7
REMARK    5  A    between atoms: C_8  and  O_9
REMARK    6  A    between atoms: O_9  and  C_10
REMARK    7  A    between atoms: C_12  and  C_13
REMARK    8  A    between atoms: N_14  and  N_15
REMARK    9  A    between atoms: C_16  and  C_18
REMARK                            x       y       z     vdW  Elec       q    Type
REMARK                         _______ _______ _______ _____ _____    ______ ____
ROOT
ATOM      1  C   UNL     1       0.236   9.435  18.018  0.00  0.00    +0.000 C 
ATOM      2  N   UNL     1       1.423   9.134  18.442  0.00  0.00    +0.000 NA
ENDROOT
BRANCH   1   8
ATOM      3  C   UNL     1      -1.582  11.207  18.162  0.00  0.00    +0.000 A 
ATOM      4  C   UNL     1      -2.277  12.140  18.946  0.00  0.00    +0.000 A 
ATOM      5  C   UNL     1      -1.924  12.396  20.276  0.00  0.00    +0.000 A 
ATOM      6  C   UNL     1      -0.907  11.650  20.882  0.00  0.00    +0.000 A 
ATOM      7  C   UNL     1      -0.241  10.684  20.118  0.00  0.00    +0.000 A 
ATOM      8  C   UNL     1      -0.565  10.455  18.764  0.00  0.00    +0.000 A 
BRANCH   3  10
ATOM      9  C   UNL     1      -3.284  10.999  16.542  0.00  0.00    +0.000 C 
ATOM     10  O   UNL     1      -1.882  11.000  16.839  0.00  0.00    +0.000 OA
ENDBRANCH   3  10
BRANCH   5  11
ATOM     11  O   UNL     1      -2.699  13.369  20.859  0.00  0.00    +0.000 OA
ATOM     12  C   UNL     1      -2.207  14.701  20.776  0.00  0.00    +0.000 C 
ENDBRANCH   5  11
BRANCH   6  13
ATOM     13  O   UNL     1      -0.652  11.893  22.203  0.00  0.00    +0.000 OA
ATOM     14  C   UNL     1      -1.161  10.979  23.164  0.00  0.00    +0.000 C 
ENDBRANCH   6  13
ENDBRANCH   1   8
BRANCH   2  15
ATOM     15  N   UNL     1       2.206   8.255  17.746  0.00  0.00    +0.000 N 
ATOM     16  C   UNL     1       2.588   7.091  18.413  0.00  0.00    +0.000 C 
ATOM     17  O   UNL     1       2.186   6.782  19.540  0.00  0.00    +0.000 OA
ATOM     18  H   UNL     1       2.620   8.544  16.867  0.00  0.00    +0.000 HD
BRANCH  16  19
ATOM     19  C   UNL     1       3.575   6.183  17.759  0.00  0.00    +0.000 A 
ATOM     20  C   UNL     1       3.357   4.797  17.899  0.00  0.00    +0.000 A 
ATOM     21  C   UNL     1       4.179   3.843  17.289  0.00  0.00    +0.000 A 
ATOM     22  C   UNL     1       5.224   4.339  16.515  0.00  0.00    +0.000 A 
ATOM     23  N   UNL     1       6.192   3.717  15.766  0.00  0.00    +0.000 N 
ATOM     24  C   UNL     1       6.962   4.687  15.189  0.00  0.00    +0.000 A 
ATOM     25  N   UNL     1       6.561   5.890  15.526  0.00  0.00    +0.000 NA
ATOM     26  C   UNL     1       5.474   5.698  16.349  0.00  0.00    +0.000 A 
ATOM     27  C   UNL     1       4.645   6.646  16.979  0.00  0.00    +0.000 A 
ATOM     28  H   UNL     1       6.305   2.720  15.650  0.00  0.00    +0.000 HD
ENDBRANCH  16  19
ENDBRANCH   2  15
TORSDOF 6
ENDMDL
MODEL 7
REMARK VINA RESULT:      -7.1      3.095      9.605
REMARK  Name = 
REMARK  9 active torsions:
REMARK  status: ('A' for Active; 'I' for Inactive)
REMARK    1  A    between atoms: C_1  and  O_2
REMARK    2  A    between atoms: O_2  and  C_3
REMARK    3  A    between atoms: C_5  and  O_6
REMARK    4  A    between atoms: O_6  and  C_7
REMARK    5  A    between atoms: C_8  and  O_9
REMARK    6  A    between atoms: O_9  and  C_10
REMARK    7  A    between atoms: C_12  and  C_13
REMARK    8  A    between atoms: N_14  and  N_15
REMARK    9  A    between atoms: C_16  and  C_18
REMARK                            x       y       z     vdW  Elec       q    Type
REMARK                         _______ _______ _______ _____ _____    ______ ____
ROOT
ATOM      1  C   UNL     1       0.760   9.826  18.194  0.00  0.00    +0.000 C 
ATOM      2  N   UNL     1       1.569   8.980  18.750  0.00  0.00    +0.000 NA
ENDROOT
BRANCH   1   8
ATOM      3  C   UNL     1      -1.387  10.986  18.910  0.00  0.00    +0.000 A 
ATOM      4  C   UNL     1      -2.020  11.894  19.771  0.00  0.00    +0.000 A 
ATOM      5  C   UNL     1      -1.303  12.647  20.708  0.00  0.00    +0.000 A 
ATOM      6  C   UNL     1       0.073  12.440  20.861  0.00  0.00    +0.000 A 
ATOM      7  C   UNL     1       0.703  11.500  20.036  0.00  0.00    +0.000 A 
ATOM      8  C   UNL     1      -0.011  10.772  19.060  0.00  0.00    +0.000 A 
BRANCH   3  10
ATOM      9  C   UNL     1      -2.644  11.116  16.919  0.00  0.00    +0.000 C 
ATOM     10  O   UNL     1      -2.076  10.294  17.946  0.00  0.00    +0.000 OA
ENDBRANCH   3  10
BRANCH   5  11
ATOM     11  O   UNL     1      -2.097  13.505  21.427  0.00  0.00    +0.000 OA
ATOM     12  C   UNL     1      -2.347  14.777  20.840  0.00  0.00    +0.000 C 
ENDBRANCH   5  11
BRANCH   6  13
ATOM     13  O   UNL     1       0.710  13.151  21.839  0.00  0.00    +0.000 OA
ATOM     14  C   UNL     1       1.390  14.342  21.468  0.00  0.00    +0.000 C 
ENDBRANCH   6  13
ENDBRANCH   1   8
BRANCH   2  15
ATOM     15  N   UNL     1       2.337   8.147  17.985  0.00  0.00    +0.000 N 
ATOM     16  C   UNL     1       2.687   6.921  18.551  0.00  0.00    +0.000 C 
ATOM     17  O   UNL     1       2.269   6.525  19.644  0.00  0.00    +0.000 OA
ATOM     18  H   UNL     1       2.764   8.501  17.137  0.00  0.00    +0.000 HD
BRANCH  16  19
ATOM     19  C   UNL     1       3.657   6.050  17.825  0.00  0.00    +0.000 A 
ATOM     20  C   UNL     1       3.364   4.671  17.774  0.00  0.00    +0.000 A 
ATOM     21  C   UNL     1       4.165   3.758  17.080  0.00  0.00    +0.000 A 
ATOM     22  C   UNL     1       5.270   4.291  16.421  0.00  0.00    +0.000 A 
ATOM     23  N   UNL     1       6.240   3.715  15.637  0.00  0.00    +0.000 N 
ATOM     24  C   UNL     1       7.084   4.707  15.223  0.00  0.00    +0.000 A 
ATOM     25  N   UNL     1       6.728   5.878  15.696  0.00  0.00    +0.000 NA
ATOM     26  C   UNL     1       5.595   5.643  16.442  0.00  0.00    +0.000 A 
ATOM     27  C   UNL     1       4.785   6.548  17.155  0.00  0.00    +0.000 A 
ATOM     28  H   UNL     1       6.308   2.737  15.398  0.00  0.00    +0.000 HD
ENDBRANCH  16  19
ENDBRANCH   2  15
TORSDOF 6
ENDMDL
MODEL 8
REMARK VINA RESULT:      -7.1      2.988      4.691
REMARK  Name = 
REMARK  9 active torsions:
REMARK  status: ('A' for Active; 'I' for Inactive)
REMARK    1  A    between atoms: C_1  and  O_2
REMARK    2  A    between atoms: O_2  and  C_3
REMARK    3  A    between atoms: C_5  and  O_6
REMARK    4  A    between atoms: O_6  and  C_7
REMARK    5  A    between atoms: C_8  and  O_9
REMARK    6  A    between atoms: O_9  and  C_10
REMARK    7  A    between atoms: C_12  and  C_13
REMARK    8  A    between atoms: N_14  and  N_15
REMARK    9  A    between atoms: C_16  and  C_18
REMARK                            x       y       z     vdW  Elec       q    Type
REMARK                         _______ _______ _______ _____ _____    ______ ____
ROOT
ATOM      1  C   UNL     1       2.980   7.689  18.094  0.00  0.00    +0.000 C 
ATOM      2  N   UNL     1       1.921   8.348  17.746  0.00  0.00    +0.000 NA
ENDROOT
BRANCH   1   8
ATOM      3  C   UNL     1       3.865   5.470  17.223  0.00  0.00    +0.000 A 
ATOM      4  C   UNL     1       3.772   4.071  17.214  0.00  0.00    +0.000 A 
ATOM      5  C   UNL     1       2.758   3.394  17.903  0.00  0.00    +0.000 A 
ATOM      6  C   UNL     1       1.855   4.112  18.694  0.00  0.00    +0.000 A 
ATOM      7  C   UNL     1       1.972   5.507  18.744  0.00  0.00    +0.000 A 
ATOM      8  C   UNL     1       2.966   6.195  18.015  0.00  0.00    +0.000 A 
BRANCH   3  10
ATOM      9  C   UNL     1       5.498   5.337  15.525  0.00  0.00    +0.000 C 
ATOM     10  O   UNL     1       4.817   6.141  16.496  0.00  0.00    +0.000 OA
ENDBRANCH   3  10
BRANCH   5  11
ATOM     11  O   UNL     1       2.816   2.032  17.739  0.00  0.00    +0.000 OA
ATOM     12  C   UNL     1       3.745   1.336  18.562  0.00  0.00    +0.000 C 
ENDBRANCH   5  11
BRANCH   6  13
ATOM     13  O   UNL     1       0.930   3.395  19.401  0.00  0.00    +0.000 OA
ATOM     14  C   UNL     1       1.162   3.180  20.786  0.00  0.00    +0.000 C 
ENDBRANCH   6  13
ENDBRANCH   1   8
BRANCH   2  15
ATOM     15  N   UNL     1       1.923   9.716  17.743  0.00  0.00    +0.000 N 
ATOM     16  C   UNL     1       1.250  10.345  18.791  0.00  0.00    +0.000 C 
ATOM     17  O   UNL     1       0.746   9.742  19.744  0.00  0.00    +0.000 OA
ATOM     18  H   UNL     1       2.244  10.213  16.921  0.00  0.00    +0.000 HD
BRANCH  16  19
ATOM     19  C   UNL     1       1.083  11.827  18.744  0.00  0.00    +0.000 A 
ATOM     20  C   UNL     1      -0.216  12.331  18.969  0.00  0.00    +0.000 A 
ATOM     21  C   UNL     1      -0.494  13.701  19.004  0.00  0.00    +0.000 A 
ATOM     22  C   UNL     1       0.593  14.552  18.821  0.00  0.00    +0.000 A 
ATOM     23  N   UNL     1       0.702  15.921  18.818  0.00  0.00    +0.000 N 
ATOM     24  C   UNL     1       2.014  16.235  18.609  0.00  0.00    +0.000 A 
ATOM     25  N   UNL     1       2.755  15.161  18.464  0.00  0.00    +0.000 NA
ATOM     26  C   UNL     1       1.890  14.098  18.598  0.00  0.00    +0.000 A 
ATOM     27  C   UNL     1       2.151  12.716  18.554  0.00  0.00    +0.000 A 
ATOM     28  H   UNL     1      -0.052  16.576  18.961  0.00  0.00    +0.000 HD
ENDBRANCH  16  19
ENDBRANCH   2  15
TORSDOF 6
ENDMDL
MODEL 9
REMARK VINA RESULT:      -7.0      2.296      4.077
REMARK  Name = 
REMARK  9 active torsions:
REMARK  status: ('A' for Active; 'I' for Inactive)
REMARK    1  A    between atoms: C_1  and  O_2
REMARK    2  A    between atoms: O_2  and  C_3
REMARK    3  A    between atoms: C_5  and  O_6
REMARK    4  A    between atoms: O_6  and  C_7
REMARK    5  A    between atoms: C_8  and  O_9
REMARK    6  A    between atoms: O_9  and  C_10
REMARK    7  A    between atoms: C_12  and  C_13
REMARK    8  A    between atoms: N_14  and  N_15
REMARK    9  A    between atoms: C_16  and  C_18
REMARK                            x       y       z     vdW  Elec       q    Type
REMARK                         _______ _______ _______ _____ _____    ______ ____
ROOT
ATOM      1  C   UNL     1       1.875   7.706  19.589  0.00  0.00    +0.000 C 
ATOM      2  N   UNL     1       1.366   8.064  20.726  0.00  0.00    +0.000 NA
ENDROOT
BRANCH   1   8
ATOM      3  C   UNL     1       3.495   6.098  18.468  0.00  0.00    +0.000 A 
ATOM      4  C   UNL     1       4.111   4.838  18.464  0.00  0.00    +0.000 A 
ATOM      5  C   UNL     1       3.779   3.850  19.397  0.00  0.00    +0.000 A 
ATOM      6  C   UNL     1       2.870   4.137  20.422  0.00  0.00    +0.000 A 
ATOM      7  C   UNL     1       2.285   5.410  20.459  0.00  0.00    +0.000 A 
ATOM      8  C   UNL     1       2.586   6.394  19.492  0.00  0.00    +0.000 A 
BRANCH   3  10
ATOM      9  C   UNL     1       4.825   6.693  16.613  0.00  0.00    +0.000 C 
ATOM     10  O   UNL     1       3.769   7.047  17.516  0.00  0.00    +0.000 OA
ENDBRANCH   3  10
BRANCH   5  11
ATOM     11  O   UNL     1       4.463   2.676  19.203  0.00  0.00    +0.000 OA
ATOM     12  C   UNL     1       3.778   1.657  18.484  0.00  0.00    +0.000 C 
ENDBRANCH   5  11
BRANCH   6  13
ATOM     13  O   UNL     1       2.636   3.159  21.347  0.00  0.00    +0.000 OA
ATOM     14  C   UNL     1       1.302   2.698  21.514  0.00  0.00    +0.000 C 
ENDBRANCH   6  13
ENDBRANCH   1   8
BRANCH   2  15
ATOM     15  N   UNL     1       0.653   9.226  20.832  0.00  0.00    +0.000 N 
ATOM     16  C   UNL     1       0.547   9.782  22.107  0.00  0.00    +0.000 C 
ATOM     17  O   UNL     1       1.130   9.337  23.101  0.00  0.00    +0.000 OA
ATOM     18  H   UNL     1       0.092   9.541  20.048  0.00  0.00    +0.000 HD
BRANCH  16  19
ATOM     19  C   UNL     1      -0.356  10.955  22.302  0.00  0.00    +0.000 A 
ATOM     20  C   UNL     1      -0.035  12.132  21.595  0.00  0.00    +0.000 A 
ATOM     21  C   UNL     1      -0.831  13.282  21.651  0.00  0.00    +0.000 A 
ATOM     22  C   UNL     1      -1.977  13.195  22.437  0.00  0.00    +0.000 A 
ATOM     23  N   UNL     1      -2.983  14.093  22.701  0.00  0.00    +0.000 N 
ATOM     24  C   UNL     1      -3.881  13.481  23.529  0.00  0.00    +0.000 A 
ATOM     25  N   UNL     1      -3.515  12.256  23.824  0.00  0.00    +0.000 NA
ATOM     26  C   UNL     1      -2.331  12.054  23.149  0.00  0.00    +0.000 A 
ATOM     27  C   UNL     1      -1.514  10.909  23.092  0.00  0.00    +0.000 A 
ATOM     28  H   UNL     1      -3.053  15.031  22.335  0.00  0.00    +0.000 HD
ENDBRANCH  16  19
ENDBRANCH   2  15
TORSDOF 6
ENDMDL
