MODEL 1
REMARK VINA RESULT:      -6.6      0.000      0.000
REMARK  Name = 
REMARK  0 active torsions:
REMARK  status: ('A' for Active; 'I' for Inactive)
REMARK                            x       y       z     vdW  Elec       q    Type
REMARK                         _______ _______ _______ _____ _____    ______ ____
ROOT
ATOM      1 CL   UNL     1       2.599   7.070  18.908  0.00  0.00    +0.000 Cl
ATOM      2  C   UNL     1       3.143   5.528  18.318  0.00  0.00    +0.000 A 
ATOM      3  C   UNL     1       2.597   4.346  18.852  0.00  0.00    +0.000 A 
ATOM      4 BR   UNL     1       1.270   4.337  20.217  0.00  0.00    +0.000 Br
ATOM      5  C   UNL     1       3.027   3.098  18.394  0.00  0.00    +0.000 A 
ATOM      6  C   UNL     1       4.004   3.020  17.408  0.00  0.00    +0.000 A 
ATOM      7  C   UNL     1       4.570   4.186  16.868  0.00  0.00    +0.000 A 
ATOM      8  C   UNL     1       4.144   5.456  17.319  0.00  0.00    +0.000 A 
ATOM      9  C   UNL     1       4.805   6.690  16.732  0.00  0.00    +0.000 C 
ATOM     10  C   UNL     1       6.291   6.792  17.103  0.00  0.00    +0.000 C 
ATOM     11  N   UNL     1       7.194   6.012  16.249  0.00  0.00    +0.000 NA
ATOM     12  C   UNL     1       7.016   4.562  16.369  0.00  0.00    +0.000 C 
ATOM     13  C   UNL     1       5.671   4.052  15.838  0.00  0.00    +0.000 C 
ATOM     14  H   UNL     1       8.154   6.237  16.513  0.00  0.00    +0.000 HD
ENDROOT
TORSDOF 0
ENDMDL
MODEL 2
REMARK VINA RESULT:      -6.0      3.328      4.806
REMARK  Name = 
REMARK  0 active torsions:
REMARK  status: ('A' for Active; 'I' for Inactive)
REMARK                            x       y       z     vdW  Elec       q    Type
REMARK                         _______ _______ _______ _____ _____    ______ ____
ROOT
ATOM      1 CL   UNL     1       6.168   3.925  16.442  0.00  0.00    +0.000 Cl
ATOM      2  C   UNL     1       4.769   4.718  17.103  0.00  0.00    +0.000 A 
ATOM      3  C   UNL     1       4.828   6.089  17.414  0.00  0.00    +0.000 A 
ATOM      4 BR   UNL     1       6.387   7.149  17.152  0.00  0.00    +0.000 Br
ATOM      5  C   UNL     1       3.716   6.741  17.952  0.00  0.00    +0.000 A 
ATOM      6  C   UNL     1       2.543   6.032  18.187  0.00  0.00    +0.000 A 
ATOM      7  C   UNL     1       2.464   4.661  17.894  0.00  0.00    +0.000 A 
ATOM      8  C   UNL     1       3.581   3.988  17.346  0.00  0.00    +0.000 A 
ATOM      9  C   UNL     1       3.463   2.500  17.074  0.00  0.00    +0.000 C 
ATOM     10  C   UNL     1       3.298   1.679  18.361  0.00  0.00    +0.000 C 
ATOM     11  N   UNL     1       1.924   1.602  18.871  0.00  0.00    +0.000 NA
ATOM     12  C   UNL     1       1.393   2.887  19.335  0.00  0.00    +0.000 C 
ATOM     13  C   UNL     1       1.187   3.918  18.219  0.00  0.00    +0.000 C 
ATOM     14  H   UNL     1       1.912   0.950  19.656  0.00  0.00    +0.000 HD
ENDROOT
TORSDOF 0
ENDMDL
MODEL 3
REMARK VINA RESULT:      -6.0      1.824      2.778
REMARK  Name = 
REMARK  0 active torsions:
REMARK  status: ('A' for Active; 'I' for Inactive)
REMARK                            x       y       z     vdW  Elec       q    Type
REMARK                         _______ _______ _______ _____ _____    ______ ____
ROOT
ATOM      1 CL   UNL     1       3.434   1.830  17.924  0.00  0.00    +0.000 Cl
ATOM      2  C   UNL     1       3.367   3.546  18.189  0.00  0.00    +0.000 A 
ATOM      3  C   UNL     1       2.330   4.090  18.969  0.00  0.00    +0.000 A 
ATOM      4 BR   UNL     1       0.963   3.032  19.766  0.00  0.00    +0.000 Br
ATOM      5  C   UNL     1       2.257   5.468  19.187  0.00  0.00    +0.000 A 
ATOM      6  C   UNL     1       3.210   6.311  18.626  0.00  0.00    +0.000 A 
ATOM      7  C   UNL     1       4.248   5.791  17.836  0.00  0.00    +0.000 A 
ATOM      8  C   UNL     1       4.338   4.398  17.609  0.00  0.00    +0.000 A 
ATOM      9  C   UNL     1       5.456   3.883  16.723  0.00  0.00    +0.000 C 
ATOM     10  C   UNL     1       5.316   4.352  15.268  0.00  0.00    +0.000 C 
ATOM     11  N   UNL     1       5.846   5.695  15.001  0.00  0.00    +0.000 NA
ATOM     12  C   UNL     1       5.105   6.767  15.672  0.00  0.00    +0.000 C 
ATOM     13  C   UNL     1       5.230   6.751  17.200  0.00  0.00    +0.000 C 
ATOM     14  H   UNL     1       5.802   5.860  13.994  0.00  0.00    +0.000 HD
ENDROOT
TORSDOF 0
ENDMDL
MODEL 4
REMARK VINA RESULT:      -5.9      1.872      2.640
REMARK  Name = 
REMARK  0 active torsions:
REMARK  status: ('A' for Active; 'I' for Inactive)
REMARK                            x       y       z     vdW  Elec       q    Type
REMARK                         _______ _______ _______ _____ _____    ______ ____
ROOT
ATOM      1 CL   UNL     1       4.661   2.463  19.918  0.00  0.00    +0.000 Cl
ATOM      2  C   UNL     1       3.884   3.867  19.250  0.00  0.00    +0.000 A 
ATOM      3  C   UNL     1       2.500   4.045  19.426  0.00  0.00    +0.000 A 
ATOM      4 BR   UNL     1       1.402   2.810  20.370  0.00  0.00    +0.000 Br
ATOM      5  C   UNL     1       1.857   5.165  18.891  0.00  0.00    +0.000 A 
ATOM      6  C   UNL     1       2.587   6.107  18.175  0.00  0.00    +0.000 A 
ATOM      7  C   UNL     1       3.968   5.945  17.978  0.00  0.00    +0.000 A 
ATOM      8  C   UNL     1       4.633   4.818  18.516  0.00  0.00    +0.000 A 
ATOM      9  C   UNL     1       6.119   4.665  18.253  0.00  0.00    +0.000 C 
ATOM     10  C   UNL     1       6.432   4.438  16.767  0.00  0.00    +0.000 C 
ATOM     11  N   UNL     1       6.507   5.662  15.959  0.00  0.00    +0.000 NA
ATOM     12  C   UNL     1       5.227   6.366  15.832  0.00  0.00    +0.000 C 
ATOM     13  C   UNL     1       4.711   6.966  17.145  0.00  0.00    +0.000 C 
ATOM     14  H   UNL     1       6.824   5.406  15.024  0.00  0.00    +0.000 HD
ENDROOT
TORSDOF 0
ENDMDL
MODEL 5
REMARK VINA RESULT:      -5.9      3.240      4.551
REMARK  Name = 
REMARK  0 active torsions:
REMARK  status: ('A' for Active; 'I' for Inactive)
REMARK                            x       y       z     vdW  Elec       q    Type
REMARK                         _______ _______ _______ _____ _____    ______ ____
ROOT
ATOM      1 CL   UNL     1       1.290   7.596  20.860  0.00  0.00    +0.000 Cl
ATOM      2  C   UNL     1       2.230   6.751  19.666  0.00  0.00    +0.000 A 
ATOM      3  C   UNL     1       2.596   7.406  18.476  0.00  0.00    +0.000 A 
ATOM      4 BR   UNL     1       2.107   9.204  18.085  0.00  0.00    +0.000 Br
ATOM      5  C   UNL     1       3.345   6.740  17.504  0.00  0.00    +0.000 A 
ATOM      6  C   UNL     1       3.729   5.419  17.708  0.00  0.00    +0.000 A 
ATOM      7  C   UNL     1       3.367   4.742  18.883  0.00  0.00    +0.000 A 
ATOM      8  C   UNL     1       2.611   5.404  19.878  0.00  0.00    +0.000 A 
ATOM      9  C   UNL     1       2.214   4.625  21.119  0.00  0.00    +0.000 C 
ATOM     10  C   UNL     1       1.243   3.478  20.806  0.00  0.00    +0.000 C 
ATOM     11  N   UNL     1       1.881   2.240  20.343  0.00  0.00    +0.000 NA
ATOM     12  C   UNL     1       2.536   2.364  19.038  0.00  0.00    +0.000 C 
ATOM     13  C   UNL     1       3.759   3.289  19.038  0.00  0.00    +0.000 C 
ATOM     14  H   UNL     1       1.162   1.519  20.271  0.00  0.00    +0.000 HD
ENDROOT
TORSDOF 0
ENDMDL
MODEL 6
REMARK VINA RESULT:      -5.8      3.215      4.671
REMARK  Name = 
REMARK  0 active torsions:
REMARK  status: ('A' for Active; 'I' for Inactive)
REMARK                            x       y       z     vdW  Elec       q    Type
REMARK                         _______ _______ _______ _____ _____    ______ ____
ROOT
ATOM      1 CL   UNL     1       2.778   7.460  18.301  0.00  0.00    +0.000 Cl
ATOM      2  C   UNL     1       3.521   5.894  18.431  0.00  0.00    +0.000 A 
ATOM      3  C   UNL     1       4.507   5.512  17.503  0.00  0.00    +0.000 A 
ATOM      4 BR   UNL     1       5.086   6.635  16.079  0.00  0.00    +0.000 Br
ATOM      5  C   UNL     1       5.109   4.255  17.588  0.00  0.00    +0.000 A 
ATOM      6  C   UNL     1       4.730   3.370  18.591  0.00  0.00    +0.000 A 
ATOM      7  C   UNL     1       3.741   3.726  19.522  0.00  0.00    +0.000 A 
ATOM      8  C   UNL     1       3.124   4.996  19.451  0.00  0.00    +0.000 A 
ATOM      9  C   UNL     1       2.037   5.327  20.457  0.00  0.00    +0.000 C 
ATOM     10  C   UNL     1       0.791   4.447  20.285  0.00  0.00    +0.000 C 
ATOM     11  N   UNL     1       0.869   3.135  20.937  0.00  0.00    +0.000 NA
ATOM     12  C   UNL     1       1.875   2.243  20.354  0.00  0.00    +0.000 C 
ATOM     13  C   UNL     1       3.321   2.710  20.562  0.00  0.00    +0.000 C 
ATOM     14  H   UNL     1      -0.043   2.684  20.854  0.00  0.00    +0.000 HD
ENDROOT
TORSDOF 0
ENDMDL
MODEL 7
REMARK VINA RESULT:      -5.7      3.434      5.055
REMARK  Name = 
REMARK  0 active torsions:
REMARK  status: ('A' for Active; 'I' for Inactive)
REMARK                            x       y       z     vdW  Elec       q    Type
REMARK                         _______ _______ _______ _____ _____    ______ ____
ROOT
ATOM      1 CL   UNL     1       4.871   3.473  16.598  0.00  0.00    +0.000 Cl
ATOM      2  C   UNL     1       3.931   4.602  17.527  0.00  0.00    +0.000 A 
ATOM      3  C   UNL     1       4.051   5.981  17.275  0.00  0.00    +0.000 A 
ATOM      4 BR   UNL     1       5.212   6.699  15.949  0.00  0.00    +0.000 Br
ATOM      5  C   UNL     1       3.308   6.903  18.016  0.00  0.00    +0.000 A 
ATOM      6  C   UNL     1       2.447   6.459  19.014  0.00  0.00    +0.000 A 
ATOM      7  C   UNL     1       2.319   5.088  19.290  0.00  0.00    +0.000 A 
ATOM      8  C   UNL     1       3.062   4.142  18.547  0.00  0.00    +0.000 A 
ATOM      9  C   UNL     1       2.918   2.674  18.899  0.00  0.00    +0.000 C 
ATOM     10  C   UNL     1       3.456   2.351  20.301  0.00  0.00    +0.000 C 
ATOM     11  N   UNL     1       2.516   2.613  21.397  0.00  0.00    +0.000 NA
ATOM     12  C   UNL     1       2.204   4.034  21.580  0.00  0.00    +0.000 C 
ATOM     13  C   UNL     1       1.414   4.655  20.422  0.00  0.00    +0.000 C 
ATOM     14  H   UNL     1       2.932   2.264  22.262  0.00  0.00    +0.000 HD
ENDROOT
TORSDOF 0
ENDMDL
MODEL 8
REMARK VINA RESULT:      -5.7      2.503      3.591
REMARK  Name = 
REMARK  0 active torsions:
REMARK  status: ('A' for Active; 'I' for Inactive)
REMARK                            x       y       z     vdW  Elec       q    Type
REMARK                         _______ _______ _______ _____ _____    ______ ____
ROOT
ATOM      1 CL   UNL     1       3.125   7.330  18.032  0.00  0.00    +0.000 Cl
ATOM      2  C   UNL     1       2.429   6.006  18.917  0.00  0.00    +0.000 A 
ATOM      3  C   UNL     1       1.780   6.252  20.141  0.00  0.00    +0.000 A 
ATOM      4 BR   UNL     1       1.619   7.988  20.904  0.00  0.00    +0.000 Br
ATOM      5  C   UNL     1       1.221   5.199  20.869  0.00  0.00    +0.000 A 
ATOM      6  C   UNL     1       1.309   3.898  20.387  0.00  0.00    +0.000 A 
ATOM      7  C   UNL     1       1.961   3.627  19.173  0.00  0.00    +0.000 A 
ATOM      8  C   UNL     1       2.529   4.683  18.423  0.00  0.00    +0.000 A 
ATOM      9  C   UNL     1       3.253   4.343  17.133  0.00  0.00    +0.000 C 
ATOM     10  C   UNL     1       4.521   3.512  17.373  0.00  0.00    +0.000 C 
ATOM     11  N   UNL     1       4.293   2.069  17.519  0.00  0.00    +0.000 NA
ATOM     12  C   UNL     1       3.538   1.709  18.723  0.00  0.00    +0.000 C 
ATOM     13  C   UNL     1       2.082   2.191  18.715  0.00  0.00    +0.000 C 
ATOM     14  H   UNL     1       5.202   1.607  17.563  0.00  0.00    +0.000 HD
ENDROOT
TORSDOF 0
ENDMDL
MODEL 9
REMARK VINA RESULT:      -5.6      3.308      4.885
REMARK  Name = 
REMARK  0 active torsions:
REMARK  status: ('A' for Active; 'I' for Inactive)
REMARK                            x       y       z     vdW  Elec       q    Type
REMARK                         _______ _______ _______ _____ _____    ______ ____
ROOT
ATOM      1 CL   UNL     1       3.816   2.671  17.511  0.00  0.00    +0.000 Cl
ATOM      2  C   UNL     1       3.884   4.404  17.383  0.00  0.00    +0.000 A 
ATOM      3  C   UNL     1       4.890   5.005  16.604  0.00  0.00    +0.000 A 
ATOM      4 BR   UNL     1       6.211   4.010  15.662  0.00  0.00    +0.000 Br
ATOM      5  C   UNL     1       4.964   6.395  16.495  0.00  0.00    +0.000 A 
ATOM      6  C   UNL     1       4.043   7.194  17.165  0.00  0.00    +0.000 A 
ATOM      7  C   UNL     1       3.037   6.616  17.956  0.00  0.00    +0.000 A 
ATOM      8  C   UNL     1       2.947   5.210  18.074  0.00  0.00    +0.000 A 
ATOM      9  C   UNL     1       1.866   4.628  18.965  0.00  0.00    +0.000 C 
ATOM     10  C   UNL     1       2.074   4.978  20.446  0.00  0.00    +0.000 C 
ATOM     11  N   UNL     1       1.568   6.296  20.844  0.00  0.00    +0.000 NA
ATOM     12  C   UNL     1       2.286   7.416  20.229  0.00  0.00    +0.000 C 
ATOM     13  C   UNL     1       2.092   7.525  18.712  0.00  0.00    +0.000 C 
ATOM     14  H   UNL     1       1.658   6.378  21.858  0.00  0.00    +0.000 HD
ENDROOT
TORSDOF 0
ENDMDL
