MODEL 1
REMARK VINA RESULT:      -6.3      0.000      0.000
REMARK  Name = 
REMARK  10 active torsions:
REMARK  status: ('A' for Active; 'I' for Inactive)
REMARK    1  A    between atoms: C_1  and  C_2
REMARK    2  A    between atoms: C_2  and  C_3
REMARK    3  A    between atoms: C_3  and  C_4
REMARK    4  A    between atoms: C_3  and  C_5
REMARK    5  A    between atoms: C_5  and  N_6
REMARK    6  A    between atoms: C_7  and  O_9
REMARK    7  A    between atoms: O_9  and  C_10
REMARK    8  A    between atoms: C_10  and  C_11
REMARK    9  A    between atoms: C_11  and  C_12
REMARK   10  A    between atoms: C_12  and  C_13
REMARK                            x       y       z     vdW  Elec       q    Type
REMARK                         _______ _______ _______ _____ _____    ______ ____
ROOT
ATOM      1  O   UNL     1       5.349   3.508  16.375  0.00  0.00    +0.000 OA
ENDROOT
BRANCH   1   3
ATOM      2  N   UNL     1       7.262   4.648  16.036  0.00  0.00    +0.000 N 
ATOM      3  C   UNL     1       6.138   4.136  15.471  0.00  0.00    +0.000 C 
ATOM      4  O   UNL     1       5.859   4.276  14.283  0.00  0.00    +0.000 OA
ATOM      5  H   UNL     1       7.907   5.062  15.365  0.00  0.00    +0.000 HD
BRANCH   2   6
ATOM      6  C   UNL     1       7.665   4.490  17.423  0.00  0.00    +0.000 C 
BRANCH   6   7
ATOM      7  C   UNL     1       7.428   5.730  18.315  0.00  0.00    +0.000 C 
ATOM      8  C   UNL     1       6.295   5.416  19.303  0.00  0.00    +0.000 C 
BRANCH   7  10
ATOM      9  C   UNL     1       7.997   8.268  17.818  0.00  0.00    +0.000 C 
ATOM     10  C   UNL     1       7.226   7.002  17.448  0.00  0.00    +0.000 C 
ENDBRANCH   7  10
ENDBRANCH   6   7
ENDBRANCH   2   6
ENDBRANCH   1   3
BRANCH   1  11
ATOM     11  C   UNL     1       4.187   4.260  16.714  0.00  0.00    +0.000 C 
BRANCH  11  12
ATOM     12  C   UNL     1       3.073   3.361  17.221  0.00  0.00    +0.000 C 
BRANCH  12  13
ATOM     13  C   UNL     1       3.517   2.677  18.512  0.00  0.00    +0.000 C 
BRANCH  13  14
ATOM     14  C   UNL     1       2.516   2.814  19.596  0.00  0.00    +0.000 A 
ATOM     15  C   UNL     1       1.154   2.991  19.496  0.00  0.00    +0.000 A 
ATOM     16  N   UNL     1       0.705   3.050  20.783  0.00  0.00    +0.000 N 
ATOM     17  C   UNL     1       1.787   2.912  21.603  0.00  0.00    +0.000 A 
ATOM     18  N   UNL     1       2.896   2.769  20.917  0.00  0.00    +0.000 NA
ATOM     19  H   UNL     1      -0.254   3.170  21.081  0.00  0.00    +0.000 HD
ENDBRANCH  13  14
ENDBRANCH  12  13
ENDBRANCH  11  12
ENDBRANCH   1  11
TORSDOF 8
ENDMDL
MODEL 2
REMARK VINA RESULT:      -6.1      2.028      6.136
REMARK  Name = 
REMARK  10 active torsions:
REMARK  status: ('A' for Active; 'I' for Inactive)
REMARK    1  A    between atoms: C_1  and  C_2
REMARK    2  A    between atoms: C_2  and  C_3
REMARK    3  A    between atoms: C_3  and  C_4
REMARK    4  A    between atoms: C_3  and  C_5
REMARK    5  A    between atoms: C_5  and  N_6
REMARK    6  A    between atoms: C_7  and  O_9
REMARK    7  A    between atoms: O_9  and  C_10
REMARK    8  A    between atoms: C_10  and  C_11
REMARK    9  A    between atoms: C_11  and  C_12
REMARK   10  A    between atoms: C_12  and  C_13
REMARK                            x       y       z     vdW  Elec       q    Type
REMARK                         _______ _______ _______ _____ _____    ______ ____
ROOT
ATOM      1  O   UNL     1       4.721   3.606  18.644  0.00  0.00    +0.000 OA
ENDROOT
BRANCH   1   3
ATOM      2  N   UNL     1       3.289   1.944  19.156  0.00  0.00    +0.000 N 
ATOM      3  C   UNL     1       4.453   2.569  19.473  0.00  0.00    +0.000 C 
ATOM      4  O   UNL     1       5.148   2.250  20.433  0.00  0.00    +0.000 OA
ATOM      5  H   UNL     1       3.101   1.117  19.719  0.00  0.00    +0.000 HD
BRANCH   2   6
ATOM      6  C   UNL     1       2.441   2.252  18.017  0.00  0.00    +0.000 C 
BRANCH   6   7
ATOM      7  C   UNL     1       1.275   3.222  18.317  0.00  0.00    +0.000 C 
ATOM      8  C   UNL     1       1.591   4.584  17.681  0.00  0.00    +0.000 C 
BRANCH   7  10
ATOM      9  C   UNL     1       1.326   4.499  20.636  0.00  0.00    +0.000 C 
ATOM     10  C   UNL     1       0.959   3.250  19.836  0.00  0.00    +0.000 C 
ENDBRANCH   7  10
ENDBRANCH   6   7
ENDBRANCH   2   6
ENDBRANCH   1   3
BRANCH   1  11
ATOM     11  C   UNL     1       5.028   4.810  19.342  0.00  0.00    +0.000 C 
BRANCH  11  12
ATOM     12  C   UNL     1       6.453   5.260  19.073  0.00  0.00    +0.000 C 
BRANCH  12  13
ATOM     13  C   UNL     1       6.457   6.304  17.959  0.00  0.00    +0.000 C 
BRANCH  13  14
ATOM     14  C   UNL     1       6.362   5.693  16.612  0.00  0.00    +0.000 A 
ATOM     15  C   UNL     1       5.312   5.725  15.722  0.00  0.00    +0.000 A 
ATOM     16  N   UNL     1       5.741   5.017  14.636  0.00  0.00    +0.000 N 
ATOM     17  C   UNL     1       7.009   4.586  14.901  0.00  0.00    +0.000 A 
ATOM     18  N   UNL     1       7.412   4.977  16.087  0.00  0.00    +0.000 NA
ATOM     19  H   UNL     1       5.220   4.844  13.787  0.00  0.00    +0.000 HD
ENDBRANCH  13  14
ENDBRANCH  12  13
ENDBRANCH  11  12
ENDBRANCH   1  11
TORSDOF 8
ENDMDL
MODEL 3
REMARK VINA RESULT:      -6.0      2.172      6.392
REMARK  Name = 
REMARK  10 active torsions:
REMARK  status: ('A' for Active; 'I' for Inactive)
REMARK    1  A    between atoms: C_1  and  C_2
REMARK    2  A    between atoms: C_2  and  C_3
REMARK    3  A    between atoms: C_3  and  C_4
REMARK    4  A    between atoms: C_3  and  C_5
REMARK    5  A    between atoms: C_5  and  N_6
REMARK    6  A    between atoms: C_7  and  O_9
REMARK    7  A    between atoms: O_9  and  C_10
REMARK    8  A    between atoms: C_10  and  C_11
REMARK    9  A    between atoms: C_11  and  C_12
REMARK   10  A    between atoms: C_12  and  C_13
REMARK                            x       y       z     vdW  Elec       q    Type
REMARK                         _______ _______ _______ _____ _____    ______ ____
ROOT
ATOM      1  O   UNL     1       4.606   4.699  19.196  0.00  0.00    +0.000 OA
ENDROOT
BRANCH   1   3
ATOM      2  N   UNL     1       2.483   5.447  19.299  0.00  0.00    +0.000 N 
ATOM      3  C   UNL     1       3.603   5.328  18.539  0.00  0.00    +0.000 C 
ATOM      4  O   UNL     1       3.667   5.710  17.373  0.00  0.00    +0.000 OA
ATOM      5  H   UNL     1       1.739   5.979  18.854  0.00  0.00    +0.000 HD
BRANCH   2   6
ATOM      6  C   UNL     1       2.353   5.046  20.690  0.00  0.00    +0.000 C 
BRANCH   6   7
ATOM      7  C   UNL     1       1.534   3.755  20.922  0.00  0.00    +0.000 C 
ATOM      8  C   UNL     1       2.448   2.700  21.562  0.00  0.00    +0.000 C 
BRANCH   7  10
ATOM      9  C   UNL     1       1.413   2.165  18.808  0.00  0.00    +0.000 C 
ATOM     10  C   UNL     1       0.818   3.316  19.617  0.00  0.00    +0.000 C 
ENDBRANCH   7  10
ENDBRANCH   6   7
ENDBRANCH   2   6
ENDBRANCH   1   3
BRANCH   1  11
ATOM     11  C   UNL     1       5.825   5.437  19.186  0.00  0.00    +0.000 C 
BRANCH  11  12
ATOM     12  C   UNL     1       6.868   4.775  18.303  0.00  0.00    +0.000 C 
BRANCH  12  13
ATOM     13  C   UNL     1       7.144   5.659  17.088  0.00  0.00    +0.000 C 
BRANCH  13  14
ATOM     14  C   UNL     1       6.894   4.954  15.809  0.00  0.00    +0.000 A 
ATOM     15  C   UNL     1       6.102   3.853  15.571  0.00  0.00    +0.000 A 
ATOM     16  N   UNL     1       6.214   3.614  14.232  0.00  0.00    +0.000 N 
ATOM     17  C   UNL     1       7.055   4.556  13.715  0.00  0.00    +0.000 A 
ATOM     18  N   UNL     1       7.484   5.380  14.642  0.00  0.00    +0.000 NA
ATOM     19  H   UNL     1       5.757   2.877  13.712  0.00  0.00    +0.000 HD
ENDBRANCH  13  14
ENDBRANCH  12  13
ENDBRANCH  11  12
ENDBRANCH   1  11
TORSDOF 8
ENDMDL
MODEL 4
REMARK VINA RESULT:      -6.0      3.378      5.511
REMARK  Name = 
REMARK  10 active torsions:
REMARK  status: ('A' for Active; 'I' for Inactive)
REMARK    1  A    between atoms: C_1  and  C_2
REMARK    2  A    between atoms: C_2  and  C_3
REMARK    3  A    between atoms: C_3  and  C_4
REMARK    4  A    between atoms: C_3  and  C_5
REMARK    5  A    between atoms: C_5  and  N_6
REMARK    6  A    between atoms: C_7  and  O_9
REMARK    7  A    between atoms: O_9  and  C_10
REMARK    8  A    between atoms: C_10  and  C_11
REMARK    9  A    between atoms: C_11  and  C_12
REMARK   10  A    between atoms: C_12  and  C_13
REMARK                            x       y       z     vdW  Elec       q    Type
REMARK                         _______ _______ _______ _____ _____    ______ ____
ROOT
ATOM      1  O   UNL     1       0.992   3.006  20.608  0.00  0.00    +0.000 OA
ENDROOT
BRANCH   1   3
ATOM      2  N   UNL     1       2.263   4.702  21.373  0.00  0.00    +0.000 N 
ATOM      3  C   UNL     1       2.028   3.364  21.404  0.00  0.00    +0.000 C 
ATOM      4  O   UNL     1       2.716   2.575  22.046  0.00  0.00    +0.000 OA
ATOM      5  H   UNL     1       2.991   5.006  22.017  0.00  0.00    +0.000 HD
BRANCH   2   6
ATOM      6  C   UNL     1       1.469   5.689  20.661  0.00  0.00    +0.000 C 
BRANCH   6   7
ATOM      7  C   UNL     1       2.255   6.928  20.174  0.00  0.00    +0.000 C 
ATOM      8  C   UNL     1       1.492   8.192  20.596  0.00  0.00    +0.000 C 
BRANCH   7  10
ATOM      9  C   UNL     1       2.566   8.088  17.815  0.00  0.00    +0.000 C 
ATOM     10  C   UNL     1       2.579   6.816  18.660  0.00  0.00    +0.000 C 
ENDBRANCH   7  10
ENDBRANCH   6   7
ENDBRANCH   2   6
ENDBRANCH   1   3
BRANCH   1  11
ATOM     11  C   UNL     1       1.401   2.254  19.469  0.00  0.00    +0.000 C 
BRANCH  11  12
ATOM     12  C   UNL     1       1.602   3.147  18.257  0.00  0.00    +0.000 C 
BRANCH  12  13
ATOM     13  C   UNL     1       2.775   2.628  17.429  0.00  0.00    +0.000 C 
BRANCH  13  14
ATOM     14  C   UNL     1       4.047   3.312  17.761  0.00  0.00    +0.000 A 
ATOM     15  C   UNL     1       4.686   3.402  18.978  0.00  0.00    +0.000 A 
ATOM     16  N   UNL     1       5.815   4.131  18.736  0.00  0.00    +0.000 N 
ATOM     17  C   UNL     1       5.820   4.453  17.410  0.00  0.00    +0.000 A 
ATOM     18  N   UNL     1       4.765   3.975  16.794  0.00  0.00    +0.000 NA
ATOM     19  H   UNL     1       6.523   4.384  19.412  0.00  0.00    +0.000 HD
ENDBRANCH  13  14
ENDBRANCH  12  13
ENDBRANCH  11  12
ENDBRANCH   1  11
TORSDOF 8
ENDMDL
MODEL 5
REMARK VINA RESULT:      -5.9      2.718      6.541
REMARK  Name = 
REMARK  10 active torsions:
REMARK  status: ('A' for Active; 'I' for Inactive)
REMARK    1  A    between atoms: C_1  and  C_2
REMARK    2  A    between atoms: C_2  and  C_3
REMARK    3  A    between atoms: C_3  and  C_4
REMARK    4  A    between atoms: C_3  and  C_5
REMARK    5  A    between atoms: C_5  and  N_6
REMARK    6  A    between atoms: C_7  and  O_9
REMARK    7  A    between atoms: O_9  and  C_10
REMARK    8  A    between atoms: C_10  and  C_11
REMARK    9  A    between atoms: C_11  and  C_12
REMARK   10  A    between atoms: C_12  and  C_13
REMARK                            x       y       z     vdW  Elec       q    Type
REMARK                         _______ _______ _______ _____ _____    ______ ____
ROOT
ATOM      1  O   UNL     1       3.560   6.268  19.116  0.00  0.00    +0.000 OA
ENDROOT
BRANCH   1   3
ATOM      2  N   UNL     1       1.821   6.118  20.541  0.00  0.00    +0.000 N 
ATOM      3  C   UNL     1       2.477   6.892  19.637  0.00  0.00    +0.000 C 
ATOM      4  O   UNL     1       2.092   8.009  19.304  0.00  0.00    +0.000 OA
ATOM      5  H   UNL     1       1.045   6.591  21.000  0.00  0.00    +0.000 HD
BRANCH   2   6
ATOM      6  C   UNL     1       2.242   4.805  21.000  0.00  0.00    +0.000 C 
BRANCH   6   7
ATOM      7  C   UNL     1       1.217   3.672  20.759  0.00  0.00    +0.000 C 
ATOM      8  C   UNL     1       1.570   2.488  21.671  0.00  0.00    +0.000 C 
BRANCH   7  10
ATOM      9  C   UNL     1       1.898   2.156  18.698  0.00  0.00    +0.000 C 
ATOM     10  C   UNL     1       1.107   3.342  19.247  0.00  0.00    +0.000 C 
ENDBRANCH   7  10
ENDBRANCH   6   7
ENDBRANCH   2   6
ENDBRANCH   1   3
BRANCH   1  11
ATOM     11  C   UNL     1       3.365   5.850  17.768  0.00  0.00    +0.000 C 
BRANCH  11  12
ATOM     12  C   UNL     1       4.482   4.931  17.305  0.00  0.00    +0.000 C 
BRANCH  12  13
ATOM     13  C   UNL     1       5.491   5.729  16.482  0.00  0.00    +0.000 C 
BRANCH  13  14
ATOM     14  C   UNL     1       6.560   6.322  17.320  0.00  0.00    +0.000 A 
ATOM     15  C   UNL     1       7.177   5.793  18.432  0.00  0.00    +0.000 A 
ATOM     16  N   UNL     1       8.087   6.735  18.818  0.00  0.00    +0.000 N 
ATOM     17  C   UNL     1       7.989   7.782  17.948  0.00  0.00    +0.000 A 
ATOM     18  N   UNL     1       7.075   7.563  17.032  0.00  0.00    +0.000 NA
ATOM     19  H   UNL     1       8.721   6.672  19.603  0.00  0.00    +0.000 HD
ENDBRANCH  13  14
ENDBRANCH  12  13
ENDBRANCH  11  12
ENDBRANCH   1  11
TORSDOF 8
ENDMDL
MODEL 6
REMARK VINA RESULT:      -5.9      2.942      3.866
REMARK  Name = 
REMARK  10 active torsions:
REMARK  status: ('A' for Active; 'I' for Inactive)
REMARK    1  A    between atoms: C_1  and  C_2
REMARK    2  A    between atoms: C_2  and  C_3
REMARK    3  A    between atoms: C_3  and  C_4
REMARK    4  A    between atoms: C_3  and  C_5
REMARK    5  A    between atoms: C_5  and  N_6
REMARK    6  A    between atoms: C_7  and  O_9
REMARK    7  A    between atoms: O_9  and  C_10
REMARK    8  A    between atoms: C_10  and  C_11
REMARK    9  A    between atoms: C_11  and  C_12
REMARK   10  A    between atoms: C_12  and  C_13
REMARK                            x       y       z     vdW  Elec       q    Type
REMARK                         _______ _______ _______ _____ _____    ______ ____
ROOT
ATOM      1  O   UNL     1       4.415   5.004  17.720  0.00  0.00    +0.000 OA
ENDROOT
BRANCH   1   3
ATOM      2  N   UNL     1       3.970   5.596  19.848  0.00  0.00    +0.000 N 
ATOM      3  C   UNL     1       4.865   5.031  18.997  0.00  0.00    +0.000 C 
ATOM      4  O   UNL     1       5.973   4.637  19.352  0.00  0.00    +0.000 OA
ATOM      5  H   UNL     1       4.254   5.563  20.825  0.00  0.00    +0.000 HD
BRANCH   2   6
ATOM      6  C   UNL     1       2.634   6.050  19.499  0.00  0.00    +0.000 C 
BRANCH   6   7
ATOM      7  C   UNL     1       2.452   7.586  19.485  0.00  0.00    +0.000 C 
ATOM      8  C   UNL     1       1.437   7.971  20.571  0.00  0.00    +0.000 C 
BRANCH   7  10
ATOM      9  C   UNL     1       1.470   9.460  17.894  0.00  0.00    +0.000 C 
ATOM     10  C   UNL     1       2.123   8.089  18.054  0.00  0.00    +0.000 C 
ENDBRANCH   7  10
ENDBRANCH   6   7
ENDBRANCH   2   6
ENDBRANCH   1   3
BRANCH   1  11
ATOM     11  C   UNL     1       4.249   3.681  17.217  0.00  0.00    +0.000 C 
BRANCH  11  12
ATOM     12  C   UNL     1       2.813   3.211  17.355  0.00  0.00    +0.000 C 
BRANCH  12  13
ATOM     13  C   UNL     1       2.764   1.978  18.256  0.00  0.00    +0.000 C 
BRANCH  13  14
ATOM     14  C   UNL     1       2.450   2.321  19.663  0.00  0.00    +0.000 A 
ATOM     15  C   UNL     1       3.279   2.298  20.762  0.00  0.00    +0.000 A 
ATOM     16  N   UNL     1       2.501   2.707  21.807  0.00  0.00    +0.000 N 
ATOM     17  C   UNL     1       1.252   2.956  21.316  0.00  0.00    +0.000 A 
ATOM     18  N   UNL     1       1.188   2.731  20.025  0.00  0.00    +0.000 NA
ATOM     19  H   UNL     1       2.792   2.812  22.769  0.00  0.00    +0.000 HD
ENDBRANCH  13  14
ENDBRANCH  12  13
ENDBRANCH  11  12
ENDBRANCH   1  11
TORSDOF 8
ENDMDL
MODEL 7
REMARK VINA RESULT:      -5.9      2.251      6.329
REMARK  Name = 
REMARK  10 active torsions:
REMARK  status: ('A' for Active; 'I' for Inactive)
REMARK    1  A    between atoms: C_1  and  C_2
REMARK    2  A    between atoms: C_2  and  C_3
REMARK    3  A    between atoms: C_3  and  C_4
REMARK    4  A    between atoms: C_3  and  C_5
REMARK    5  A    between atoms: C_5  and  N_6
REMARK    6  A    between atoms: C_7  and  O_9
REMARK    7  A    between atoms: O_9  and  C_10
REMARK    8  A    between atoms: C_10  and  C_11
REMARK    9  A    between atoms: C_11  and  C_12
REMARK   10  A    between atoms: C_12  and  C_13
REMARK                            x       y       z     vdW  Elec       q    Type
REMARK                         _______ _______ _______ _____ _____    ______ ____
ROOT
ATOM      1  O   UNL     1       3.469   5.692  17.697  0.00  0.00    +0.000 OA
ENDROOT
BRANCH   1   3
ATOM      2  N   UNL     1       2.374   5.961  19.648  0.00  0.00    +0.000 N 
ATOM      3  C   UNL     1       2.842   6.563  18.523  0.00  0.00    +0.000 C 
ATOM      4  O   UNL     1       2.666   7.753  18.275  0.00  0.00    +0.000 OA
ATOM      5  H   UNL     1       1.962   6.607  20.318  0.00  0.00    +0.000 HD
BRANCH   2   6
ATOM      6  C   UNL     1       2.576   4.569  20.014  0.00  0.00    +0.000 C 
BRANCH   6   7
ATOM      7  C   UNL     1       1.296   3.702  20.005  0.00  0.00    +0.000 C 
ATOM      8  C   UNL     1       1.295   2.813  21.258  0.00  0.00    +0.000 C 
BRANCH   7  10
ATOM      9  C   UNL     1       2.382   2.281  18.052  0.00  0.00    +0.000 C 
ATOM     10  C   UNL     1       1.149   2.952  18.654  0.00  0.00    +0.000 C 
ENDBRANCH   7  10
ENDBRANCH   6   7
ENDBRANCH   2   6
ENDBRANCH   1   3
BRANCH   1  11
ATOM     11  C   UNL     1       4.824   6.051  17.437  0.00  0.00    +0.000 C 
BRANCH  11  12
ATOM     12  C   UNL     1       5.786   5.229  18.276  0.00  0.00    +0.000 C 
BRANCH  12  13
ATOM     13  C   UNL     1       7.088   5.023  17.504  0.00  0.00    +0.000 C 
BRANCH  13  14
ATOM     14  C   UNL     1       6.852   4.621  16.097  0.00  0.00    +0.000 A 
ATOM     15  C   UNL     1       6.107   3.569  15.614  0.00  0.00    +0.000 A 
ATOM     16  N   UNL     1       6.211   3.650  14.255  0.00  0.00    +0.000 N 
ATOM     17  C   UNL     1       7.002   4.725  13.967  0.00  0.00    +0.000 A 
ATOM     18  N   UNL     1       7.406   5.332  15.058  0.00  0.00    +0.000 NA
ATOM     19  H   UNL     1       5.781   3.032  13.581  0.00  0.00    +0.000 HD
ENDBRANCH  13  14
ENDBRANCH  12  13
ENDBRANCH  11  12
ENDBRANCH   1  11
TORSDOF 8
ENDMDL
MODEL 8
REMARK VINA RESULT:      -5.8      3.775      5.336
REMARK  Name = 
REMARK  10 active torsions:
REMARK  status: ('A' for Active; 'I' for Inactive)
REMARK    1  A    between atoms: C_1  and  C_2
REMARK    2  A    between atoms: C_2  and  C_3
REMARK    3  A    between atoms: C_3  and  C_4
REMARK    4  A    between atoms: C_3  and  C_5
REMARK    5  A    between atoms: C_5  and  N_6
REMARK    6  A    between atoms: C_7  and  O_9
REMARK    7  A    between atoms: O_9  and  C_10
REMARK    8  A    between atoms: C_10  and  C_11
REMARK    9  A    between atoms: C_11  and  C_12
REMARK   10  A    between atoms: C_12  and  C_13
REMARK                            x       y       z     vdW  Elec       q    Type
REMARK                         _______ _______ _______ _____ _____    ______ ____
ROOT
ATOM      1  O   UNL     1       0.871   4.138  20.314  0.00  0.00    +0.000 OA
ENDROOT
BRANCH   1   3
ATOM      2  N   UNL     1       2.708   5.432  20.485  0.00  0.00    +0.000 N 
ATOM      3  C   UNL     1       1.967   4.442  21.049  0.00  0.00    +0.000 C 
ATOM      4  O   UNL     1       2.293   3.864  22.082  0.00  0.00    +0.000 OA
ATOM      5  H   UNL     1       3.498   5.728  21.054  0.00  0.00    +0.000 HD
BRANCH   2   6
ATOM      6  C   UNL     1       2.361   6.175  19.285  0.00  0.00    +0.000 C 
BRANCH   6   7
ATOM      7  C   UNL     1       2.292   7.709  19.467  0.00  0.00    +0.000 C 
ATOM      8  C   UNL     1       1.417   8.021  20.690  0.00  0.00    +0.000 C 
BRANCH   7  10
ATOM      9  C   UNL     1       1.815   9.929  18.105  0.00  0.00    +0.000 C 
ATOM     10  C   UNL     1       1.866   8.402  18.146  0.00  0.00    +0.000 C 
ENDBRANCH   7  10
ENDBRANCH   6   7
ENDBRANCH   2   6
ENDBRANCH   1   3
BRANCH   1  11
ATOM     11  C   UNL     1       0.886   2.800  19.821  0.00  0.00    +0.000 C 
BRANCH  11  12
ATOM     12  C   UNL     1       1.201   2.759  18.337  0.00  0.00    +0.000 C 
BRANCH  12  13
ATOM     13  C   UNL     1       2.471   1.941  18.107  0.00  0.00    +0.000 C 
BRANCH  13  14
ATOM     14  C   UNL     1       3.701   2.743  18.302  0.00  0.00    +0.000 A 
ATOM     15  C   UNL     1       4.607   2.697  19.339  0.00  0.00    +0.000 A 
ATOM     16  N   UNL     1       5.554   3.630  19.029  0.00  0.00    +0.000 N 
ATOM     17  C   UNL     1       5.196   4.201  17.843  0.00  0.00    +0.000 A 
ATOM     18  N   UNL     1       4.081   3.688  17.378  0.00  0.00    +0.000 NA
ATOM     19  H   UNL     1       6.374   3.859  19.575  0.00  0.00    +0.000 HD
ENDBRANCH  13  14
ENDBRANCH  12  13
ENDBRANCH  11  12
ENDBRANCH   1  11
TORSDOF 8
ENDMDL
MODEL 9
REMARK VINA RESULT:      -5.8      2.784      4.769
REMARK  Name = 
REMARK  10 active torsions:
REMARK  status: ('A' for Active; 'I' for Inactive)
REMARK    1  A    between atoms: C_1  and  C_2
REMARK    2  A    between atoms: C_2  and  C_3
REMARK    3  A    between atoms: C_3  and  C_4
REMARK    4  A    between atoms: C_3  and  C_5
REMARK    5  A    between atoms: C_5  and  N_6
REMARK    6  A    between atoms: C_7  and  O_9
REMARK    7  A    between atoms: O_9  and  C_10
REMARK    8  A    between atoms: C_10  and  C_11
REMARK    9  A    between atoms: C_11  and  C_12
REMARK   10  A    between atoms: C_12  and  C_13
REMARK                            x       y       z     vdW  Elec       q    Type
REMARK                         _______ _______ _______ _____ _____    ______ ____
ROOT
ATOM      1  O   UNL     1       5.513   5.528  15.284  0.00  0.00    +0.000 OA
ENDROOT
BRANCH   1   3
ATOM      2  N   UNL     1       6.489   3.810  14.200  0.00  0.00    +0.000 N 
ATOM      3  C   UNL     1       6.648   4.812  15.105  0.00  0.00    +0.000 C 
ATOM      4  O   UNL     1       7.695   5.003  15.718  0.00  0.00    +0.000 OA
ATOM      5  H   UNL     1       7.347   3.302  13.995  0.00  0.00    +0.000 HD
BRANCH   2   6
ATOM      6  C   UNL     1       5.291   3.552  13.419  0.00  0.00    +0.000 C 
BRANCH   6   7
ATOM      7  C   UNL     1       5.515   3.473  11.892  0.00  0.00    +0.000 C 
ATOM      8  C   UNL     1       4.173   3.156  11.213  0.00  0.00    +0.000 C 
BRANCH   7  10
ATOM      9  C   UNL     1       6.342   1.072  11.141  0.00  0.00    +0.000 C 
ATOM     10  C   UNL     1       6.679   2.503  11.555  0.00  0.00    +0.000 C 
ENDBRANCH   7  10
ENDBRANCH   6   7
ENDBRANCH   2   6
ENDBRANCH   1   3
BRANCH   1  11
ATOM     11  C   UNL     1       5.476   6.206  16.537  0.00  0.00    +0.000 C 
BRANCH  11  12
ATOM     12  C   UNL     1       4.986   5.295  17.647  0.00  0.00    +0.000 C 
BRANCH  12  13
ATOM     13  C   UNL     1       3.462   5.200  17.595  0.00  0.00    +0.000 C 
BRANCH  13  14
ATOM     14  C   UNL     1       2.972   3.832  17.881  0.00  0.00    +0.000 A 
ATOM     15  C   UNL     1       3.699   2.680  18.085  0.00  0.00    +0.000 A 
ATOM     16  N   UNL     1       2.769   1.706  18.314  0.00  0.00    +0.000 N 
ATOM     17  C   UNL     1       1.537   2.288  18.241  0.00  0.00    +0.000 A 
ATOM     18  N   UNL     1       1.625   3.571  17.979  0.00  0.00    +0.000 NA
ATOM     19  H   UNL     1       2.955   0.731  18.507  0.00  0.00    +0.000 HD
ENDBRANCH  13  14
ENDBRANCH  12  13
ENDBRANCH  11  12
ENDBRANCH   1  11
TORSDOF 8
ENDMDL
