MODEL 1
REMARK VINA RESULT:      -6.4      0.000      0.000
REMARK  Name = 
REMARK  8 active torsions:
REMARK  status: ('A' for Active; 'I' for Inactive)
REMARK    1  A    between atoms: C_1  and  N_2
REMARK    2  A    between atoms: C_6  and  S_7
REMARK    3  A    between atoms: S_7  and  C_8
REMARK    4  A    between atoms: C_8  and  C_9
REMARK    5  A    between atoms: C_9  and  C_11
REMARK    6  A    between atoms: C_11  and  C_12
REMARK    7  A    between atoms: C_11  and  C_13
REMARK    8  A    between atoms: C_11  and  C_14
REMARK                            x       y       z     vdW  Elec       q    Type
REMARK                         _______ _______ _______ _____ _____    ______ ____
ROOT
ATOM      1  S   UNL     1       3.994   4.277  17.317  0.00  0.00    +0.000 S 
ENDROOT
BRANCH   1   7
ATOM      2  C   UNL     1       6.356   4.167  15.046  0.00  0.00    +0.000 C 
ATOM      3  N   UNL     1       6.590   4.310  16.454  0.00  0.00    +0.000 N 
ATOM      4  N   UNL     1       7.845   4.409  16.930  0.00  0.00    +0.000 NA
ATOM      5  N   UNL     1       7.710   4.525  18.245  0.00  0.00    +0.000 NA
ATOM      6  N   UNL     1       6.383   4.501  18.611  0.00  0.00    +0.000 NA
ATOM      7  C   UNL     1       5.707   4.368  17.495  0.00  0.00    +0.000 A 
ENDBRANCH   1   7
BRANCH   1   8
ATOM      8  C   UNL     1       3.655   2.652  18.078  0.00  0.00    +0.000 C 
BRANCH   8   9
ATOM      9  C   UNL     1       3.345   2.770  19.573  0.00  0.00    +0.000 C 
ATOM     10  O   UNL     1       4.196   2.547  20.438  0.00  0.00    +0.000 OA
BRANCH   9  11
ATOM     11  C   UNL     1       1.902   3.170  19.983  0.00  0.00    +0.000 C 
ATOM     12  C   UNL     1       0.891   2.626  18.966  0.00  0.00    +0.000 C 
ATOM     13  C   UNL     1       1.571   2.566  21.362  0.00  0.00    +0.000 C 
ATOM     14  C   UNL     1       1.776   4.695  20.085  0.00  0.00    +0.000 C 
ENDBRANCH   9  11
ENDBRANCH   8   9
ENDBRANCH   1   8
TORSDOF 4
ENDMDL
MODEL 2
REMARK VINA RESULT:      -6.4      0.185      1.183
REMARK  Name = 
REMARK  8 active torsions:
REMARK  status: ('A' for Active; 'I' for Inactive)
REMARK    1  A    between atoms: C_1  and  N_2
REMARK    2  A    between atoms: C_6  and  S_7
REMARK    3  A    between atoms: S_7  and  C_8
REMARK    4  A    between atoms: C_8  and  C_9
REMARK    5  A    between atoms: C_9  and  C_11
REMARK    6  A    between atoms: C_11  and  C_12
REMARK    7  A    between atoms: C_11  and  C_13
REMARK    8  A    between atoms: C_11  and  C_14
REMARK                            x       y       z     vdW  Elec       q    Type
REMARK                         _______ _______ _______ _____ _____    ______ ____
ROOT
ATOM      1  S   UNL     1       4.038   4.552  17.497  0.00  0.00    +0.000 S 
ENDROOT
BRANCH   1   7
ATOM      2  C   UNL     1       6.301   4.105  15.167  0.00  0.00    +0.000 C 
ATOM      3  N   UNL     1       6.596   4.302  16.558  0.00  0.00    +0.000 N 
ATOM      4  N   UNL     1       7.870   4.311  16.990  0.00  0.00    +0.000 NA
ATOM      5  N   UNL     1       7.791   4.510  18.300  0.00  0.00    +0.000 NA
ATOM      6  N   UNL     1       6.481   4.627  18.705  0.00  0.00    +0.000 NA
ATOM      7  C   UNL     1       5.759   4.496  17.619  0.00  0.00    +0.000 A 
ENDBRANCH   1   7
BRANCH   1   8
ATOM      8  C   UNL     1       3.595   2.892  18.113  0.00  0.00    +0.000 C 
BRANCH   8   9
ATOM      9  C   UNL     1       3.368   2.882  19.627  0.00  0.00    +0.000 C 
ATOM     10  O   UNL     1       4.266   2.597  20.424  0.00  0.00    +0.000 OA
BRANCH   9  11
ATOM     11  C   UNL     1       1.947   3.231  20.147  0.00  0.00    +0.000 C 
ATOM     12  C   UNL     1       1.798   4.748  20.308  0.00  0.00    +0.000 C 
ATOM     13  C   UNL     1       0.893   2.748  19.132  0.00  0.00    +0.000 C 
ATOM     14  C   UNL     1       1.678   2.532  21.486  0.00  0.00    +0.000 C 
ENDBRANCH   9  11
ENDBRANCH   8   9
ENDBRANCH   1   8
TORSDOF 4
ENDMDL
MODEL 3
REMARK VINA RESULT:      -6.3      0.887      1.508
REMARK  Name = 
REMARK  8 active torsions:
REMARK  status: ('A' for Active; 'I' for Inactive)
REMARK    1  A    between atoms: C_1  and  N_2
REMARK    2  A    between atoms: C_6  and  S_7
REMARK    3  A    between atoms: S_7  and  C_8
REMARK    4  A    between atoms: C_8  and  C_9
REMARK    5  A    between atoms: C_9  and  C_11
REMARK    6  A    between atoms: C_11  and  C_12
REMARK    7  A    between atoms: C_11  and  C_13
REMARK    8  A    between atoms: C_11  and  C_14
REMARK                            x       y       z     vdW  Elec       q    Type
REMARK                         _______ _______ _______ _____ _____    ______ ____
ROOT
ATOM      1  S   UNL     1       4.240   5.332  17.743  0.00  0.00    +0.000 S 
ENDROOT
BRANCH   1   7
ATOM      2  C   UNL     1       6.053   4.952  15.038  0.00  0.00    +0.000 C 
ATOM      3  N   UNL     1       6.550   4.805  16.375  0.00  0.00    +0.000 N 
ATOM      4  N   UNL     1       7.840   4.489  16.593  0.00  0.00    +0.000 NA
ATOM      5  N   UNL     1       7.966   4.429  17.912  0.00  0.00    +0.000 NA
ATOM      6  N   UNL     1       6.771   4.703  18.537  0.00  0.00    +0.000 NA
ATOM      7  C   UNL     1       5.910   4.933  17.575  0.00  0.00    +0.000 A 
ENDBRANCH   1   7
BRANCH   1   8
ATOM      8  C   UNL     1       3.952   4.881  19.488  0.00  0.00    +0.000 C 
BRANCH   8   9
ATOM      9  C   UNL     1       3.288   3.507  19.626  0.00  0.00    +0.000 C 
ATOM     10  O   UNL     1       3.838   2.472  19.240  0.00  0.00    +0.000 OA
BRANCH   9  11
ATOM     11  C   UNL     1       1.873   3.448  20.261  0.00  0.00    +0.000 C 
ATOM     12  C   UNL     1       1.924   2.716  21.607  0.00  0.00    +0.000 C 
ATOM     13  C   UNL     1       1.359   4.880  20.510  0.00  0.00    +0.000 C 
ATOM     14  C   UNL     1       0.890   2.745  19.316  0.00  0.00    +0.000 C 
ENDBRANCH   9  11
ENDBRANCH   8   9
ENDBRANCH   1   8
TORSDOF 4
ENDMDL
MODEL 4
REMARK VINA RESULT:      -6.2      1.508      1.619
REMARK  Name = 
REMARK  8 active torsions:
REMARK  status: ('A' for Active; 'I' for Inactive)
REMARK    1  A    between atoms: C_1  and  N_2
REMARK    2  A    between atoms: C_6  and  S_7
REMARK    3  A    between atoms: S_7  and  C_8
REMARK    4  A    between atoms: C_8  and  C_9
REMARK    5  A    between atoms: C_9  and  C_11
REMARK    6  A    between atoms: C_11  and  C_12
REMARK    7  A    between atoms: C_11  and  C_13
REMARK    8  A    between atoms: C_11  and  C_14
REMARK                            x       y       z     vdW  Elec       q    Type
REMARK                         _______ _______ _______ _____ _____    ______ ____
ROOT
ATOM      1  S   UNL     1       4.352   5.373  17.264  0.00  0.00    +0.000 S 
ENDROOT
BRANCH   1   7
ATOM      2  C   UNL     1       6.688   4.425  15.167  0.00  0.00    +0.000 C 
ATOM      3  N   UNL     1       6.873   4.555  16.584  0.00  0.00    +0.000 N 
ATOM      4  N   UNL     1       8.065   4.281  17.144  0.00  0.00    +0.000 NA
ATOM      5  N   UNL     1       7.897   4.495  18.443  0.00  0.00    +0.000 NA
ATOM      6  N   UNL     1       6.611   4.904  18.715  0.00  0.00    +0.000 NA
ATOM      7  C   UNL     1       5.994   4.935  17.558  0.00  0.00    +0.000 A 
ENDBRANCH   1   7
BRANCH   1   8
ATOM      8  C   UNL     1       3.520   3.762  17.483  0.00  0.00    +0.000 C 
BRANCH   8   9
ATOM      9  C   UNL     1       2.122   3.915  18.089  0.00  0.00    +0.000 C 
ATOM     10  O   UNL     1       1.126   4.130  17.394  0.00  0.00    +0.000 OA
BRANCH   9  11
ATOM     11  C   UNL     1       1.987   3.805  19.632  0.00  0.00    +0.000 C 
ATOM     12  C   UNL     1       0.740   2.993  20.000  0.00  0.00    +0.000 C 
ATOM     13  C   UNL     1       3.221   3.083  20.208  0.00  0.00    +0.000 C 
ATOM     14  C   UNL     1       1.911   5.200  20.264  0.00  0.00    +0.000 C 
ENDBRANCH   9  11
ENDBRANCH   8   9
ENDBRANCH   1   8
TORSDOF 4
ENDMDL
MODEL 5
REMARK VINA RESULT:      -6.2      1.483      1.868
REMARK  Name = 
REMARK  8 active torsions:
REMARK  status: ('A' for Active; 'I' for Inactive)
REMARK    1  A    between atoms: C_1  and  N_2
REMARK    2  A    between atoms: C_6  and  S_7
REMARK    3  A    between atoms: S_7  and  C_8
REMARK    4  A    between atoms: C_8  and  C_9
REMARK    5  A    between atoms: C_9  and  C_11
REMARK    6  A    between atoms: C_11  and  C_12
REMARK    7  A    between atoms: C_11  and  C_13
REMARK    8  A    between atoms: C_11  and  C_14
REMARK                            x       y       z     vdW  Elec       q    Type
REMARK                         _______ _______ _______ _____ _____    ______ ____
ROOT
ATOM      1  S   UNL     1       4.348   5.298  17.202  0.00  0.00    +0.000 S 
ENDROOT
BRANCH   1   7
ATOM      2  C   UNL     1       6.718   4.462  15.097  0.00  0.00    +0.000 C 
ATOM      3  N   UNL     1       6.891   4.555  16.519  0.00  0.00    +0.000 N 
ATOM      4  N   UNL     1       8.085   4.290  17.080  0.00  0.00    +0.000 NA
ATOM      5  N   UNL     1       7.903   4.463  18.383  0.00  0.00    +0.000 NA
ATOM      6  N   UNL     1       6.606   4.836  18.657  0.00  0.00    +0.000 NA
ATOM      7  C   UNL     1       5.997   4.887  17.497  0.00  0.00    +0.000 A 
ENDBRANCH   1   7
BRANCH   1   8
ATOM      8  C   UNL     1       3.534   3.690  17.495  0.00  0.00    +0.000 C 
BRANCH   8   9
ATOM      9  C   UNL     1       2.137   3.854  18.101  0.00  0.00    +0.000 C 
ATOM     10  O   UNL     1       1.143   4.080  17.405  0.00  0.00    +0.000 OA
BRANCH   9  11
ATOM     11  C   UNL     1       2.000   3.742  19.643  0.00  0.00    +0.000 C 
ATOM     12  C   UNL     1       3.200   2.991  20.231  0.00  0.00    +0.000 C 
ATOM     13  C   UNL     1       1.966   5.154  20.261  0.00  0.00    +0.000 C 
ATOM     14  C   UNL     1       0.697   3.025  20.016  0.00  0.00    +0.000 C 
ENDBRANCH   9  11
ENDBRANCH   8   9
ENDBRANCH   1   8
TORSDOF 4
ENDMDL
MODEL 6
REMARK VINA RESULT:      -6.1      1.451      1.780
REMARK  Name = 
REMARK  8 active torsions:
REMARK  status: ('A' for Active; 'I' for Inactive)
REMARK    1  A    between atoms: C_1  and  N_2
REMARK    2  A    between atoms: C_6  and  S_7
REMARK    3  A    between atoms: S_7  and  C_8
REMARK    4  A    between atoms: C_8  and  C_9
REMARK    5  A    between atoms: C_9  and  C_11
REMARK    6  A    between atoms: C_11  and  C_12
REMARK    7  A    between atoms: C_11  and  C_13
REMARK    8  A    between atoms: C_11  and  C_14
REMARK                            x       y       z     vdW  Elec       q    Type
REMARK                         _______ _______ _______ _____ _____    ______ ____
ROOT
ATOM      1  S   UNL     1       4.928   5.373  18.966  0.00  0.00    +0.000 S 
ENDROOT
BRANCH   1   7
ATOM      2  C   UNL     1       5.282   5.865  15.744  0.00  0.00    +0.000 C 
ATOM      3  N   UNL     1       6.270   5.252  16.585  0.00  0.00    +0.000 N 
ATOM      4  N   UNL     1       7.439   4.830  16.068  0.00  0.00    +0.000 NA
ATOM      5  N   UNL     1       8.109   4.320  17.094  0.00  0.00    +0.000 NA
ATOM      6  N   UNL     1       7.380   4.413  18.257  0.00  0.00    +0.000 NA
ATOM      7  C   UNL     1       6.249   4.989  17.925  0.00  0.00    +0.000 A 
ENDBRANCH   1   7
BRANCH   1   8
ATOM      8  C   UNL     1       4.389   3.702  19.468  0.00  0.00    +0.000 C 
BRANCH   8   9
ATOM      9  C   UNL     1       2.877   3.631  19.700  0.00  0.00    +0.000 C 
ATOM     10  O   UNL     1       2.366   3.909  20.789  0.00  0.00    +0.000 OA
BRANCH   9  11
ATOM     11  C   UNL     1       1.984   3.178  18.514  0.00  0.00    +0.000 C 
ATOM     12  C   UNL     1       2.744   2.187  17.624  0.00  0.00    +0.000 C 
ATOM     13  C   UNL     1       0.725   2.472  19.055  0.00  0.00    +0.000 C 
ATOM     14  C   UNL     1       1.535   4.389  17.686  0.00  0.00    +0.000 C 
ENDBRANCH   9  11
ENDBRANCH   8   9
ENDBRANCH   1   8
TORSDOF 4
ENDMDL
MODEL 7
REMARK VINA RESULT:      -6.1      1.183      1.255
REMARK  Name = 
REMARK  8 active torsions:
REMARK  status: ('A' for Active; 'I' for Inactive)
REMARK    1  A    between atoms: C_1  and  N_2
REMARK    2  A    between atoms: C_6  and  S_7
REMARK    3  A    between atoms: S_7  and  C_8
REMARK    4  A    between atoms: C_8  and  C_9
REMARK    5  A    between atoms: C_9  and  C_11
REMARK    6  A    between atoms: C_11  and  C_12
REMARK    7  A    between atoms: C_11  and  C_13
REMARK    8  A    between atoms: C_11  and  C_14
REMARK                            x       y       z     vdW  Elec       q    Type
REMARK                         _______ _______ _______ _____ _____    ______ ____
ROOT
ATOM      1  S   UNL     1       4.472   3.818  17.112  0.00  0.00    +0.000 S 
ENDROOT
BRANCH   1   7
ATOM      2  C   UNL     1       6.217   3.892  14.338  0.00  0.00    +0.000 C 
ATOM      3  N   UNL     1       6.452   4.746  15.467  0.00  0.00    +0.000 N 
ATOM      4  N   UNL     1       7.442   5.656  15.441  0.00  0.00    +0.000 NA
ATOM      5  N   UNL     1       7.388   6.264  16.618  0.00  0.00    +0.000 NA
ATOM      6  N   UNL     1       6.373   5.752  17.394  0.00  0.00    +0.000 NA
ATOM      7  C   UNL     1       5.807   4.817  16.669  0.00  0.00    +0.000 A 
ENDBRANCH   1   7
BRANCH   1   8
ATOM      8  C   UNL     1       4.027   4.536  18.731  0.00  0.00    +0.000 C 
BRANCH   8   9
ATOM      9  C   UNL     1       3.531   3.473  19.715  0.00  0.00    +0.000 C 
ATOM     10  O   UNL     1       4.231   2.514  20.053  0.00  0.00    +0.000 OA
BRANCH   9  11
ATOM     11  C   UNL     1       2.092   3.623  20.277  0.00  0.00    +0.000 C 
ATOM     12  C   UNL     1       1.074   3.020  19.302  0.00  0.00    +0.000 C 
ATOM     13  C   UNL     1       1.980   2.870  21.618  0.00  0.00    +0.000 C 
ATOM     14  C   UNL     1       1.766   5.101  20.530  0.00  0.00    +0.000 C 
ENDBRANCH   9  11
ENDBRANCH   8   9
ENDBRANCH   1   8
TORSDOF 4
ENDMDL
MODEL 8
REMARK VINA RESULT:      -6.0      1.656      1.764
REMARK  Name = 
REMARK  8 active torsions:
REMARK  status: ('A' for Active; 'I' for Inactive)
REMARK    1  A    between atoms: C_1  and  N_2
REMARK    2  A    between atoms: C_6  and  S_7
REMARK    3  A    between atoms: S_7  and  C_8
REMARK    4  A    between atoms: C_8  and  C_9
REMARK    5  A    between atoms: C_9  and  C_11
REMARK    6  A    between atoms: C_11  and  C_12
REMARK    7  A    between atoms: C_11  and  C_13
REMARK    8  A    between atoms: C_11  and  C_14
REMARK                            x       y       z     vdW  Elec       q    Type
REMARK                         _______ _______ _______ _____ _____    ______ ____
ROOT
ATOM      1  S   UNL     1       3.968   5.985  17.689  0.00  0.00    +0.000 S 
ENDROOT
BRANCH   1   7
ATOM      2  C   UNL     1       5.770   3.873  15.944  0.00  0.00    +0.000 C 
ATOM      3  N   UNL     1       6.212   5.178  16.347  0.00  0.00    +0.000 N 
ATOM      4  N   UNL     1       7.440   5.615  16.015  0.00  0.00    +0.000 NA
ATOM      5  N   UNL     1       7.529   6.832  16.534  0.00  0.00    +0.000 NA
ATOM      6  N   UNL     1       6.370   7.175  17.193  0.00  0.00    +0.000 NA
ATOM      7  C   UNL     1       5.570   6.144  17.067  0.00  0.00    +0.000 A 
ENDBRANCH   1   7
BRANCH   1   8
ATOM      8  C   UNL     1       4.306   5.258  19.330  0.00  0.00    +0.000 C 
BRANCH   8   9
ATOM      9  C   UNL     1       3.593   3.917  19.523  0.00  0.00    +0.000 C 
ATOM     10  O   UNL     1       4.068   2.856  19.108  0.00  0.00    +0.000 OA
BRANCH   9  11
ATOM     11  C   UNL     1       2.223   3.924  20.254  0.00  0.00    +0.000 C 
ATOM     12  C   UNL     1       1.132   3.347  19.345  0.00  0.00    +0.000 C 
ATOM     13  C   UNL     1       2.310   3.049  21.520  0.00  0.00    +0.000 C 
ATOM     14  C   UNL     1       1.851   5.349  20.682  0.00  0.00    +0.000 C 
ENDBRANCH   9  11
ENDBRANCH   8   9
ENDBRANCH   1   8
TORSDOF 4
ENDMDL
MODEL 9
REMARK VINA RESULT:      -6.0      1.207      1.809
REMARK  Name = 
REMARK  8 active torsions:
REMARK  status: ('A' for Active; 'I' for Inactive)
REMARK    1  A    between atoms: C_1  and  N_2
REMARK    2  A    between atoms: C_6  and  S_7
REMARK    3  A    between atoms: S_7  and  C_8
REMARK    4  A    between atoms: C_8  and  C_9
REMARK    5  A    between atoms: C_9  and  C_11
REMARK    6  A    between atoms: C_11  and  C_12
REMARK    7  A    between atoms: C_11  and  C_13
REMARK    8  A    between atoms: C_11  and  C_14
REMARK                            x       y       z     vdW  Elec       q    Type
REMARK                         _______ _______ _______ _____ _____    ______ ____
ROOT
ATOM      1  S   UNL     1       4.552   5.959  17.885  0.00  0.00    +0.000 S 
ENDROOT
BRANCH   1   7
ATOM      2  C   UNL     1       6.311   4.758  15.392  0.00  0.00    +0.000 C 
ATOM      3  N   UNL     1       6.756   4.796  16.756  0.00  0.00    +0.000 N 
ATOM      4  N   UNL     1       7.969   4.318  17.091  0.00  0.00    +0.000 NA
ATOM      5  N   UNL     1       8.064   4.499  18.402  0.00  0.00    +0.000 NA
ATOM      6  N   UNL     1       6.926   5.086  18.905  0.00  0.00    +0.000 NA
ATOM      7  C   UNL     1       6.131   5.262  17.876  0.00  0.00    +0.000 A 
ENDBRANCH   1   7
BRANCH   1   8
ATOM      8  C   UNL     1       3.905   5.325  19.471  0.00  0.00    +0.000 C 
BRANCH   8   9
ATOM      9  C   UNL     1       3.457   3.864  19.367  0.00  0.00    +0.000 C 
ATOM     10  O   UNL     1       4.260   2.928  19.400  0.00  0.00    +0.000 OA
BRANCH   9  11
ATOM     11  C   UNL     1       1.940   3.584  19.199  0.00  0.00    +0.000 C 
ATOM     12  C   UNL     1       1.145   4.270  20.317  0.00  0.00    +0.000 C 
ATOM     13  C   UNL     1       1.457   4.147  17.848  0.00  0.00    +0.000 C 
ATOM     14  C   UNL     1       1.668   2.074  19.213  0.00  0.00    +0.000 C 
ENDBRANCH   9  11
ENDBRANCH   8   9
ENDBRANCH   1   8
TORSDOF 4
ENDMDL
