MODEL 1
REMARK VINA RESULT:      -8.0      0.000      0.000
REMARK  Name = 
REMARK  8 active torsions:
REMARK  status: ('A' for Active; 'I' for Inactive)
REMARK    1  A    between atoms: C_1  and  N_2
REMARK    2  A    between atoms: N_2  and  C_3
REMARK    3  A    between atoms: N_2  and  C_10
REMARK    4  A    between atoms: C_3  and  C_4
REMARK    5  A    between atoms: C_10  and  C_11
REMARK    6  A    between atoms: C_16  and  C_17
REMARK    7  A    between atoms: C_17  and  O_18
REMARK    8  A    between atoms: C_17  and  C_19
REMARK                            x       y       z     vdW  Elec       q    Type
REMARK                         _______ _______ _______ _____ _____    ______ ____
ROOT
ATOM      1  C   UNL     1       5.724   4.862  17.954  0.00  0.00    +0.000 A 
ATOM      2  C   UNL     1       6.459   4.865  19.163  0.00  0.00    +0.000 A 
ATOM      3  C   UNL     1       7.469   5.796  19.372  0.00  0.00    +0.000 A 
ATOM      4  C   UNL     1       7.771   6.699  18.366  0.00  0.00    +0.000 A 
ATOM      5  C   UNL     1       7.192   6.562  17.093  0.00  0.00    +0.000 A 
ATOM      6  C   UNL     1       6.206   5.591  16.833  0.00  0.00    +0.000 A 
ENDROOT
BRANCH   1   7
ATOM      7  C   UNL     1       4.277   4.379  18.077  0.00  0.00    +0.000 C 
BRANCH   7   9
ATOM      8  C   UNL     1       1.876   4.779  17.934  0.00  0.00    +0.000 C 
ATOM      9  N   UNL     1       3.188   5.311  18.267  0.00  0.00    +0.000 NA
BRANCH   9  10
ATOM     10  C   UNL     1       3.348   6.759  18.125  0.00  0.00    +0.000 C 
BRANCH  10  11
ATOM     11  C   UNL     1       2.308   7.744  18.677  0.00  0.00    +0.000 A 
ATOM     12  C   UNL     1       1.993   7.669  20.049  0.00  0.00    +0.000 A 
ATOM     13  C   UNL     1       1.172   8.615  20.673  0.00  0.00    +0.000 A 
ATOM     14  C   UNL     1       0.629   9.662  19.934  0.00  0.00    +0.000 A 
ATOM     15  C   UNL     1       0.908   9.749  18.570  0.00  0.00    +0.000 A 
ATOM     16  C   UNL     1       1.760   8.813  17.954  0.00  0.00    +0.000 A 
ENDBRANCH  10  11
ENDBRANCH   9  10
ENDBRANCH   7   9
ENDBRANCH   1   7
BRANCH   6  17
ATOM     17  C   UNL     1       5.511   5.538  15.474  0.00  0.00    +0.000 C 
BRANCH  17  18
ATOM     18  C   UNL     1       6.045   4.740  14.277  0.00  0.00    +0.000 A 
ATOM     19  C   UNL     1       5.332   3.753  13.588  0.00  0.00    +0.000 A 
ATOM     20  C   UNL     1       5.801   3.247  12.351  0.00  0.00    +0.000 A 
ATOM     21  C   UNL     1       6.972   3.722  11.787  0.00  0.00    +0.000 A 
ATOM     22  C   UNL     1       7.702   4.696  12.434  0.00  0.00    +0.000 A 
ATOM     23  C   UNL     1       7.247   5.202  13.662  0.00  0.00    +0.000 A 
ENDBRANCH  17  18
BRANCH  17  24
ATOM     24  O   UNL     1       5.228   6.887  15.085  0.00  0.00    +0.000 OA
ATOM     25  H   UNL     1       5.188   6.901  14.116  0.00  0.00    +0.000 HD
ENDBRANCH  17  24
ENDBRANCH   6  17
TORSDOF 7
ENDMDL
MODEL 2
REMARK VINA RESULT:      -7.9      0.994      1.551
REMARK  Name = 
REMARK  8 active torsions:
REMARK  status: ('A' for Active; 'I' for Inactive)
REMARK    1  A    between atoms: C_1  and  N_2
REMARK    2  A    between atoms: N_2  and  C_3
REMARK    3  A    between atoms: N_2  and  C_10
REMARK    4  A    between atoms: C_3  and  C_4
REMARK    5  A    between atoms: C_10  and  C_11
REMARK    6  A    between atoms: C_16  and  C_17
REMARK    7  A    between atoms: C_17  and  O_18
REMARK    8  A    between atoms: C_17  and  C_19
REMARK                            x       y       z     vdW  Elec       q    Type
REMARK                         _______ _______ _______ _____ _____    ______ ____
ROOT
ATOM      1  C   UNL     1       6.113   4.636  17.875  0.00  0.00    +0.000 A 
ATOM      2  C   UNL     1       6.917   4.702  19.038  0.00  0.00    +0.000 A 
ATOM      3  C   UNL     1       7.690   5.826  19.299  0.00  0.00    +0.000 A 
ATOM      4  C   UNL     1       7.691   6.868  18.386  0.00  0.00    +0.000 A 
ATOM      5  C   UNL     1       7.065   6.718  17.137  0.00  0.00    +0.000 A 
ATOM      6  C   UNL     1       6.321   5.565  16.821  0.00  0.00    +0.000 A 
ENDROOT
BRANCH   1   7
ATOM      7  C   UNL     1       4.835   3.805  18.017  0.00  0.00    +0.000 C 
BRANCH   7   9
ATOM      8  C   UNL     1       4.505   2.458  20.022  0.00  0.00    +0.000 C 
ATOM      9  N   UNL     1       4.166   3.669  19.292  0.00  0.00    +0.000 NA
BRANCH   9  10
ATOM     10  C   UNL     1       2.840   4.228  19.556  0.00  0.00    +0.000 C 
BRANCH  10  11
ATOM     11  C   UNL     1       2.506   5.695  19.246  0.00  0.00    +0.000 A 
ATOM     12  C   UNL     1       1.972   6.483  20.285  0.00  0.00    +0.000 A 
ATOM     13  C   UNL     1       1.775   7.862  20.142  0.00  0.00    +0.000 A 
ATOM     14  C   UNL     1       2.096   8.490  18.943  0.00  0.00    +0.000 A 
ATOM     15  C   UNL     1       2.606   7.730  17.891  0.00  0.00    +0.000 A 
ATOM     16  C   UNL     1       2.833   6.350  18.050  0.00  0.00    +0.000 A 
ENDBRANCH  10  11
ENDBRANCH   9  10
ENDBRANCH   7   9
ENDBRANCH   1   7
BRANCH   6  17
ATOM     17  C   UNL     1       5.556   5.476  15.501  0.00  0.00    +0.000 C 
BRANCH  17  18
ATOM     18  C   UNL     1       6.061   4.702  14.277  0.00  0.00    +0.000 A 
ATOM     19  C   UNL     1       5.313   3.768  13.553  0.00  0.00    +0.000 A 
ATOM     20  C   UNL     1       5.765   3.288  12.299  0.00  0.00    +0.000 A 
ATOM     21  C   UNL     1       6.954   3.740  11.752  0.00  0.00    +0.000 A 
ATOM     22  C   UNL     1       7.718   4.662  12.434  0.00  0.00    +0.000 A 
ATOM     23  C   UNL     1       7.281   5.141  13.678  0.00  0.00    +0.000 A 
ENDBRANCH  17  18
BRANCH  17  24
ATOM     24  O   UNL     1       5.188   6.810  15.129  0.00  0.00    +0.000 OA
ATOM     25  H   UNL     1       4.968   6.790  14.185  0.00  0.00    +0.000 HD
ENDBRANCH  17  24
ENDBRANCH   6  17
TORSDOF 7
ENDMDL
MODEL 3
REMARK VINA RESULT:      -7.8      0.899      1.585
REMARK  Name = 
REMARK  8 active torsions:
REMARK  status: ('A' for Active; 'I' for Inactive)
REMARK    1  A    between atoms: C_1  and  N_2
REMARK    2  A    between atoms: N_2  and  C_3
REMARK    3  A    between atoms: N_2  and  C_10
REMARK    4  A    between atoms: C_3  and  C_4
REMARK    5  A    between atoms: C_10  and  C_11
REMARK    6  A    between atoms: C_16  and  C_17
REMARK    7  A    between atoms: C_17  and  O_18
REMARK    8  A    between atoms: C_17  and  C_19
REMARK                            x       y       z     vdW  Elec       q    Type
REMARK                         _______ _______ _______ _____ _____    ______ ____
ROOT
ATOM      1  C   UNL     1       6.281   4.644  17.791  0.00  0.00    +0.000 A 
ATOM      2  C   UNL     1       7.112   4.725  18.934  0.00  0.00    +0.000 A 
ATOM      3  C   UNL     1       7.816   5.889  19.214  0.00  0.00    +0.000 A 
ATOM      4  C   UNL     1       7.722   6.959  18.339  0.00  0.00    +0.000 A 
ATOM      5  C   UNL     1       7.071   6.809  17.102  0.00  0.00    +0.000 A 
ATOM      6  C   UNL     1       6.397   5.620  16.765  0.00  0.00    +0.000 A 
ENDROOT
BRANCH   1   7
ATOM      7  C   UNL     1       5.066   3.724  17.937  0.00  0.00    +0.000 C 
BRANCH   7   9
ATOM      8  C   UNL     1       4.114   2.966  20.049  0.00  0.00    +0.000 C 
ATOM      9  N   UNL     1       4.080   3.942  18.972  0.00  0.00    +0.000 NA
BRANCH   9  10
ATOM     10  C   UNL     1       2.783   4.569  18.714  0.00  0.00    +0.000 C 
BRANCH  10  11
ATOM     11  C   UNL     1       2.524   6.048  19.035  0.00  0.00    +0.000 A 
ATOM     12  C   UNL     1       2.679   6.985  17.993  0.00  0.00    +0.000 A 
ATOM     13  C   UNL     1       2.324   8.330  18.148  0.00  0.00    +0.000 A 
ATOM     14  C   UNL     1       1.813   8.780  19.361  0.00  0.00    +0.000 A 
ATOM     15  C   UNL     1       1.668   7.879  20.416  0.00  0.00    +0.000 A 
ATOM     16  C   UNL     1       1.996   6.521  20.245  0.00  0.00    +0.000 A 
ENDBRANCH  10  11
ENDBRANCH   9  10
ENDBRANCH   7   9
ENDBRANCH   1   7
BRANCH   6  17
ATOM     17  C   UNL     1       5.603   5.524  15.463  0.00  0.00    +0.000 C 
BRANCH  17  18
ATOM     18  C   UNL     1       6.073   4.730  14.238  0.00  0.00    +0.000 A 
ATOM     19  C   UNL     1       5.298   3.797  13.540  0.00  0.00    +0.000 A 
ATOM     20  C   UNL     1       5.717   3.298  12.283  0.00  0.00    +0.000 A 
ATOM     21  C   UNL     1       6.900   3.728  11.706  0.00  0.00    +0.000 A 
ATOM     22  C   UNL     1       7.691   4.647  12.362  0.00  0.00    +0.000 A 
ATOM     23  C   UNL     1       7.285   5.145  13.610  0.00  0.00    +0.000 A 
ENDBRANCH  17  18
BRANCH  17  24
ATOM     24  O   UNL     1       5.241   6.857  15.083  0.00  0.00    +0.000 OA
ATOM     25  H   UNL     1       4.314   6.829  14.800  0.00  0.00    +0.000 HD
ENDBRANCH  17  24
ENDBRANCH   6  17
TORSDOF 7
ENDMDL
MODEL 4
REMARK VINA RESULT:      -7.7      0.948      1.971
REMARK  Name = 
REMARK  8 active torsions:
REMARK  status: ('A' for Active; 'I' for Inactive)
REMARK    1  A    between atoms: C_1  and  N_2
REMARK    2  A    between atoms: N_2  and  C_3
REMARK    3  A    between atoms: N_2  and  C_10
REMARK    4  A    between atoms: C_3  and  C_4
REMARK    5  A    between atoms: C_10  and  C_11
REMARK    6  A    between atoms: C_16  and  C_17
REMARK    7  A    between atoms: C_17  and  O_18
REMARK    8  A    between atoms: C_17  and  C_19
REMARK                            x       y       z     vdW  Elec       q    Type
REMARK                         _______ _______ _______ _____ _____    ______ ____
ROOT
ATOM      1  C   UNL     1       6.250   4.639  17.652  0.00  0.00    +0.000 A 
ATOM      2  C   UNL     1       7.119   4.651  18.769  0.00  0.00    +0.000 A 
ATOM      3  C   UNL     1       7.831   5.798  19.096  0.00  0.00    +0.000 A 
ATOM      4  C   UNL     1       7.708   6.919  18.293  0.00  0.00    +0.000 A 
ATOM      5  C   UNL     1       7.016   6.844  17.072  0.00  0.00    +0.000 A 
ATOM      6  C   UNL     1       6.331   5.677  16.685  0.00  0.00    +0.000 A 
ENDROOT
BRANCH   1   7
ATOM      7  C   UNL     1       5.040   3.710  17.781  0.00  0.00    +0.000 C 
BRANCH   7   9
ATOM      8  C   UNL     1       4.420   2.628  19.876  0.00  0.00    +0.000 C 
ATOM      9  N   UNL     1       4.198   3.733  18.957  0.00  0.00    +0.000 NA
BRANCH   9  10
ATOM     10  C   UNL     1       2.854   4.311  18.959  0.00  0.00    +0.000 C 
BRANCH  10  11
ATOM     11  C   UNL     1       2.627   5.824  19.092  0.00  0.00    +0.000 A 
ATOM     12  C   UNL     1       2.881   6.630  17.964  0.00  0.00    +0.000 A 
ATOM     13  C   UNL     1       2.564   7.993  17.941  0.00  0.00    +0.000 A 
ATOM     14  C   UNL     1       1.993   8.594  19.058  0.00  0.00    +0.000 A 
ATOM     15  C   UNL     1       1.750   7.824  20.196  0.00  0.00    +0.000 A 
ATOM     16  C   UNL     1       2.041   6.447  20.202  0.00  0.00    +0.000 A 
ENDBRANCH  10  11
ENDBRANCH   9  10
ENDBRANCH   7   9
ENDBRANCH   1   7
BRANCH   6  17
ATOM     17  C   UNL     1       5.493   5.660  15.407  0.00  0.00    +0.000 C 
BRANCH  17  18
ATOM     18  C   UNL     1       5.970   5.043  14.086  0.00  0.00    +0.000 A 
ATOM     19  C   UNL     1       7.239   5.227  13.526  0.00  0.00    +0.000 A 
ATOM     20  C   UNL     1       7.678   4.429  12.442  0.00  0.00    +0.000 A 
ATOM     21  C   UNL     1       6.867   3.438  11.914  0.00  0.00    +0.000 A 
ATOM     22  C   UNL     1       5.611   3.226  12.439  0.00  0.00    +0.000 A 
ATOM     23  C   UNL     1       5.165   4.014  13.512  0.00  0.00    +0.000 A 
ENDBRANCH  17  18
BRANCH  17  24
ATOM     24  O   UNL     1       5.017   6.993  15.189  0.00  0.00    +0.000 OA
ATOM     25  H   UNL     1       4.486   6.976  14.378  0.00  0.00    +0.000 HD
ENDBRANCH  17  24
ENDBRANCH   6  17
TORSDOF 7
ENDMDL
MODEL 5
REMARK VINA RESULT:      -7.6      2.470      6.912
REMARK  Name = 
REMARK  8 active torsions:
REMARK  status: ('A' for Active; 'I' for Inactive)
REMARK    1  A    between atoms: C_1  and  N_2
REMARK    2  A    between atoms: N_2  and  C_3
REMARK    3  A    between atoms: N_2  and  C_10
REMARK    4  A    between atoms: C_3  and  C_4
REMARK    5  A    between atoms: C_10  and  C_11
REMARK    6  A    between atoms: C_16  and  C_17
REMARK    7  A    between atoms: C_17  and  O_18
REMARK    8  A    between atoms: C_17  and  C_19
REMARK                            x       y       z     vdW  Elec       q    Type
REMARK                         _______ _______ _______ _____ _____    ______ ____
ROOT
ATOM      1  C   UNL     1       3.387   3.879  20.139  0.00  0.00    +0.000 A 
ATOM      2  C   UNL     1       3.040   2.772  20.950  0.00  0.00    +0.000 A 
ATOM      3  C   UNL     1       1.709   2.508  21.250  0.00  0.00    +0.000 A 
ATOM      4  C   UNL     1       0.729   3.364  20.774  0.00  0.00    +0.000 A 
ATOM      5  C   UNL     1       1.085   4.573  20.152  0.00  0.00    +0.000 A 
ATOM      6  C   UNL     1       2.428   4.896  19.885  0.00  0.00    +0.000 A 
ENDROOT
BRANCH   1   7
ATOM      7  C   UNL     1       4.652   3.693  19.296  0.00  0.00    +0.000 C 
BRANCH   7   9
ATOM      8  C   UNL     1       3.823   2.493  17.342  0.00  0.00    +0.000 C 
ATOM      9  N   UNL     1       4.588   3.619  17.853  0.00  0.00    +0.000 NA
BRANCH   9  10
ATOM     10  C   UNL     1       5.654   4.118  16.985  0.00  0.00    +0.000 C 
BRANCH  10  11
ATOM     11  C   UNL     1       6.577   5.267  17.419  0.00  0.00    +0.000 A 
ATOM     12  C   UNL     1       6.385   6.529  16.821  0.00  0.00    +0.000 A 
ATOM     13  C   UNL     1       7.074   7.667  17.255  0.00  0.00    +0.000 A 
ATOM     14  C   UNL     1       7.991   7.570  18.298  0.00  0.00    +0.000 A 
ATOM     15  C   UNL     1       8.217   6.330  18.893  0.00  0.00    +0.000 A 
ATOM     16  C   UNL     1       7.497   5.195  18.475  0.00  0.00    +0.000 A 
ENDBRANCH  10  11
ENDBRANCH   9  10
ENDBRANCH   7   9
ENDBRANCH   1   7
BRANCH   6  17
ATOM     17  C   UNL     1       2.779   6.163  19.107  0.00  0.00    +0.000 C 
BRANCH  17  18
ATOM     18  C   UNL     1       2.186   7.543  19.417  0.00  0.00    +0.000 A 
ATOM     19  C   UNL     1       1.898   8.526  18.464  0.00  0.00    +0.000 A 
ATOM     20  C   UNL     1       1.127   9.665  18.804  0.00  0.00    +0.000 A 
ATOM     21  C   UNL     1       0.630   9.831  20.085  0.00  0.00    +0.000 A 
ATOM     22  C   UNL     1       0.892   8.884  21.052  0.00  0.00    +0.000 A 
ATOM     23  C   UNL     1       1.657   7.753  20.726  0.00  0.00    +0.000 A 
ENDBRANCH  17  18
BRANCH  17  24
ATOM     24  O   UNL     1       2.636   5.863  17.714  0.00  0.00    +0.000 OA
ATOM     25  H   UNL     1       1.711   6.034  17.480  0.00  0.00    +0.000 HD
ENDBRANCH  17  24
ENDBRANCH   6  17
TORSDOF 7
ENDMDL
MODEL 6
REMARK VINA RESULT:      -7.6      1.705      7.366
REMARK  Name = 
REMARK  8 active torsions:
REMARK  status: ('A' for Active; 'I' for Inactive)
REMARK    1  A    between atoms: C_1  and  N_2
REMARK    2  A    between atoms: N_2  and  C_3
REMARK    3  A    between atoms: N_2  and  C_10
REMARK    4  A    between atoms: C_3  and  C_4
REMARK    5  A    between atoms: C_10  and  C_11
REMARK    6  A    between atoms: C_16  and  C_17
REMARK    7  A    between atoms: C_17  and  O_18
REMARK    8  A    between atoms: C_17  and  C_19
REMARK                            x       y       z     vdW  Elec       q    Type
REMARK                         _______ _______ _______ _____ _____    ______ ____
ROOT
ATOM      1  C   UNL     1       3.665   4.234  17.848  0.00  0.00    +0.000 A 
ATOM      2  C   UNL     1       3.555   2.969  17.223  0.00  0.00    +0.000 A 
ATOM      3  C   UNL     1       2.502   2.119  17.532  0.00  0.00    +0.000 A 
ATOM      4  C   UNL     1       1.579   2.511  18.488  0.00  0.00    +0.000 A 
ATOM      5  C   UNL     1       1.801   3.665  19.258  0.00  0.00    +0.000 A 
ATOM      6  C   UNL     1       2.892   4.517  19.007  0.00  0.00    +0.000 A 
ENDROOT
BRANCH   1   7
ATOM      7  C   UNL     1       4.327   5.322  16.998  0.00  0.00    +0.000 C 
BRANCH   7   9
ATOM      8  C   UNL     1       6.212   6.866  17.089  0.00  0.00    +0.000 C 
ATOM      9  N   UNL     1       5.764   5.487  16.976  0.00  0.00    +0.000 NA
BRANCH   9  10
ATOM     10  C   UNL     1       6.656   4.579  16.257  0.00  0.00    +0.000 C 
BRANCH  10  11
ATOM     11  C   UNL     1       6.656   4.493  14.723  0.00  0.00    +0.000 A 
ATOM     12  C   UNL     1       7.606   5.261  14.020  0.00  0.00    +0.000 A 
ATOM     13  C   UNL     1       7.781   5.138  12.637  0.00  0.00    +0.000 A 
ATOM     14  C   UNL     1       6.995   4.247  11.913  0.00  0.00    +0.000 A 
ATOM     15  C   UNL     1       6.032   3.490  12.580  0.00  0.00    +0.000 A 
ATOM     16  C   UNL     1       5.883   3.594  13.975  0.00  0.00    +0.000 A 
ENDBRANCH  10  11
ENDBRANCH   9  10
ENDBRANCH   7   9
ENDBRANCH   1   7
BRANCH   6  17
ATOM     17  C   UNL     1       3.048   5.824  19.783  0.00  0.00    +0.000 C 
BRANCH  17  18
ATOM     18  C   UNL     1       2.261   7.102  19.464  0.00  0.00    +0.000 A 
ATOM     19  C   UNL     1       1.582   7.883  20.406  0.00  0.00    +0.000 A 
ATOM     20  C   UNL     1       1.094   9.169  20.069  0.00  0.00    +0.000 A 
ATOM     21  C   UNL     1       1.286   9.692  18.801  0.00  0.00    +0.000 A 
ATOM     22  C   UNL     1       1.951   8.953  17.846  0.00  0.00    +0.000 A 
ATOM     23  C   UNL     1       2.435   7.676  18.170  0.00  0.00    +0.000 A 
ENDBRANCH  17  18
BRANCH  17  24
ATOM     24  O   UNL     1       4.449   6.111  19.862  0.00  0.00    +0.000 OA
ATOM     25  H   UNL     1       4.748   6.312  18.961  0.00  0.00    +0.000 HD
ENDBRANCH  17  24
ENDBRANCH   6  17
TORSDOF 7
ENDMDL
MODEL 7
REMARK VINA RESULT:      -7.6      1.545      7.767
REMARK  Name = 
REMARK  8 active torsions:
REMARK  status: ('A' for Active; 'I' for Inactive)
REMARK    1  A    between atoms: C_1  and  N_2
REMARK    2  A    between atoms: N_2  and  C_3
REMARK    3  A    between atoms: N_2  and  C_10
REMARK    4  A    between atoms: C_3  and  C_4
REMARK    5  A    between atoms: C_10  and  C_11
REMARK    6  A    between atoms: C_16  and  C_17
REMARK    7  A    between atoms: C_17  and  O_18
REMARK    8  A    between atoms: C_17  and  C_19
REMARK                            x       y       z     vdW  Elec       q    Type
REMARK                         _______ _______ _______ _____ _____    ______ ____
ROOT
ATOM      1  C   UNL     1       3.936   5.548  17.504  0.00  0.00    +0.000 A 
ATOM      2  C   UNL     1       3.911   4.139  17.383  0.00  0.00    +0.000 A 
ATOM      3  C   UNL     1       2.710   3.445  17.463  0.00  0.00    +0.000 A 
ATOM      4  C   UNL     1       1.541   4.149  17.700  0.00  0.00    +0.000 A 
ATOM      5  C   UNL     1       1.589   5.514  18.029  0.00  0.00    +0.000 A 
ATOM      6  C   UNL     1       2.799   6.232  18.013  0.00  0.00    +0.000 A 
ENDROOT
BRANCH   1   7
ATOM      7  C   UNL     1       5.050   6.247  16.720  0.00  0.00    +0.000 C 
BRANCH   7   9
ATOM      8  C   UNL     1       7.218   7.085  17.455  0.00  0.00    +0.000 C 
ATOM      9  N   UNL     1       6.444   5.953  16.973  0.00  0.00    +0.000 NA
BRANCH   9  10
ATOM     10  C   UNL     1       7.188   4.935  16.232  0.00  0.00    +0.000 C 
BRANCH  10  11
ATOM     11  C   UNL     1       6.942   4.685  14.736  0.00  0.00    +0.000 A 
ATOM     12  C   UNL     1       7.763   5.361  13.811  0.00  0.00    +0.000 A 
ATOM     13  C   UNL     1       7.714   5.088  12.439  0.00  0.00    +0.000 A 
ATOM     14  C   UNL     1       6.827   4.133  11.951  0.00  0.00    +0.000 A 
ATOM     15  C   UNL     1       5.989   3.463  12.841  0.00  0.00    +0.000 A 
ATOM     16  C   UNL     1       6.064   3.719  14.223  0.00  0.00    +0.000 A 
ENDBRANCH  10  11
ENDBRANCH   9  10
ENDBRANCH   7   9
ENDBRANCH   1   7
BRANCH   6  17
ATOM     17  C   UNL     1       2.807   7.739  18.264  0.00  0.00    +0.000 C 
BRANCH  17  18
ATOM     18  C   UNL     1       1.888   8.438  19.275  0.00  0.00    +0.000 A 
ATOM     19  C   UNL     1       1.018   9.491  18.975  0.00  0.00    +0.000 A 
ATOM     20  C   UNL     1       0.033   9.907  19.903  0.00  0.00    +0.000 A 
ATOM     21  C   UNL     1      -0.102   9.277  21.128  0.00  0.00    +0.000 A 
ATOM     22  C   UNL     1       0.737   8.234  21.460  0.00  0.00    +0.000 A 
ATOM     23  C   UNL     1       1.718   7.816  20.548  0.00  0.00    +0.000 A 
ENDBRANCH  17  18
BRANCH  17  24
ATOM     24  O   UNL     1       2.725   8.387  16.989  0.00  0.00    +0.000 OA
ATOM     25  H   UNL     1       3.238   7.850  16.365  0.00  0.00    +0.000 HD
ENDBRANCH  17  24
ENDBRANCH   6  17
TORSDOF 7
ENDMDL
MODEL 8
REMARK VINA RESULT:      -7.6      1.532      7.734
REMARK  Name = 
REMARK  8 active torsions:
REMARK  status: ('A' for Active; 'I' for Inactive)
REMARK    1  A    between atoms: C_1  and  N_2
REMARK    2  A    between atoms: N_2  and  C_3
REMARK    3  A    between atoms: N_2  and  C_10
REMARK    4  A    between atoms: C_3  and  C_4
REMARK    5  A    between atoms: C_10  and  C_11
REMARK    6  A    between atoms: C_16  and  C_17
REMARK    7  A    between atoms: C_17  and  O_18
REMARK    8  A    between atoms: C_17  and  C_19
REMARK                            x       y       z     vdW  Elec       q    Type
REMARK                         _______ _______ _______ _____ _____    ______ ____
ROOT
ATOM      1  C   UNL     1       4.074   5.460  17.472  0.00  0.00    +0.000 A 
ATOM      2  C   UNL     1       4.115   4.055  17.303  0.00  0.00    +0.000 A 
ATOM      3  C   UNL     1       2.943   3.310  17.307  0.00  0.00    +0.000 A 
ATOM      4  C   UNL     1       1.736   3.956  17.515  0.00  0.00    +0.000 A 
ATOM      5  C   UNL     1       1.711   5.309  17.892  0.00  0.00    +0.000 A 
ATOM      6  C   UNL     1       2.889   6.078  17.952  0.00  0.00    +0.000 A 
ENDROOT
BRANCH   1   7
ATOM      7  C   UNL     1       5.190   6.231  16.761  0.00  0.00    +0.000 C 
BRANCH   7   9
ATOM      8  C   UNL     1       7.345   7.054  17.548  0.00  0.00    +0.000 C 
ATOM      9  N   UNL     1       6.584   5.937  17.013  0.00  0.00    +0.000 NA
BRANCH   9  10
ATOM     10  C   UNL     1       7.341   4.956  16.236  0.00  0.00    +0.000 C 
BRANCH  10  11
ATOM     11  C   UNL     1       7.054   4.710  14.747  0.00  0.00    +0.000 A 
ATOM     12  C   UNL     1       7.837   5.403  13.802  0.00  0.00    +0.000 A 
ATOM     13  C   UNL     1       7.751   5.136  12.430  0.00  0.00    +0.000 A 
ATOM     14  C   UNL     1       6.864   4.172  11.963  0.00  0.00    +0.000 A 
ATOM     15  C   UNL     1       6.062   3.485  12.875  0.00  0.00    +0.000 A 
ATOM     16  C   UNL     1       6.175   3.735  14.255  0.00  0.00    +0.000 A 
ENDBRANCH  10  11
ENDBRANCH   9  10
ENDBRANCH   7   9
ENDBRANCH   1   7
BRANCH   6  17
ATOM     17  C   UNL     1       2.821   7.574  18.254  0.00  0.00    +0.000 C 
BRANCH  17  18
ATOM     18  C   UNL     1       1.883   8.189  19.301  0.00  0.00    +0.000 A 
ATOM     19  C   UNL     1       1.751   7.744  20.621  0.00  0.00    +0.000 A 
ATOM     20  C   UNL     1       1.055   8.516  21.582  0.00  0.00    +0.000 A 
ATOM     21  C   UNL     1       0.496   9.737  21.244  0.00  0.00    +0.000 A 
ATOM     22  C   UNL     1       0.606  10.210  19.954  0.00  0.00    +0.000 A 
ATOM     23  C   UNL     1       1.291   9.451  18.993  0.00  0.00    +0.000 A 
ENDBRANCH  17  18
BRANCH  17  24
ATOM     24  O   UNL     1       2.685   8.257  17.003  0.00  0.00    +0.000 OA
ATOM     25  H   UNL     1       1.751   8.502  16.914  0.00  0.00    +0.000 HD
ENDBRANCH  17  24
ENDBRANCH   6  17
TORSDOF 7
ENDMDL
MODEL 9
REMARK VINA RESULT:      -7.6      2.339      4.344
REMARK  Name = 
REMARK  8 active torsions:
REMARK  status: ('A' for Active; 'I' for Inactive)
REMARK    1  A    between atoms: C_1  and  N_2
REMARK    2  A    between atoms: N_2  and  C_3
REMARK    3  A    between atoms: N_2  and  C_10
REMARK    4  A    between atoms: C_3  and  C_4
REMARK    5  A    between atoms: C_10  and  C_11
REMARK    6  A    between atoms: C_16  and  C_17
REMARK    7  A    between atoms: C_17  and  O_18
REMARK    8  A    between atoms: C_17  and  C_19
REMARK                            x       y       z     vdW  Elec       q    Type
REMARK                         _______ _______ _______ _____ _____    ______ ____
ROOT
ATOM      1  C   UNL     1       2.270   4.023  18.967  0.00  0.00    +0.000 A 
ATOM      2  C   UNL     1       1.078   3.965  19.728  0.00  0.00    +0.000 A 
ATOM      3  C   UNL     1       1.088   3.443  21.015  0.00  0.00    +0.000 A 
ATOM      4  C   UNL     1       2.274   2.946  21.531  0.00  0.00    +0.000 A 
ATOM      5  C   UNL     1       3.403   2.808  20.706  0.00  0.00    +0.000 A 
ATOM      6  C   UNL     1       3.406   3.276  19.378  0.00  0.00    +0.000 A 
ENDROOT
BRANCH   1   7
ATOM      7  C   UNL     1       2.348   5.185  17.972  0.00  0.00    +0.000 C 
BRANCH   7   9
ATOM      8  C   UNL     1       3.466   7.323  17.620  0.00  0.00    +0.000 C 
ATOM      9  N   UNL     1       2.534   6.547  18.422  0.00  0.00    +0.000 NA
BRANCH   9  10
ATOM     10  C   UNL     1       2.410   6.943  19.825  0.00  0.00    +0.000 C 
BRANCH  10  11
ATOM     11  C   UNL     1       1.519   8.117  20.257  0.00  0.00    +0.000 A 
ATOM     12  C   UNL     1       1.154   8.202  21.616  0.00  0.00    +0.000 A 
ATOM     13  C   UNL     1       0.470   9.309  22.131  0.00  0.00    +0.000 A 
ATOM     14  C   UNL     1       0.120  10.363  21.293  0.00  0.00    +0.000 A 
ATOM     15  C   UNL     1       0.450  10.295  19.939  0.00  0.00    +0.000 A 
ATOM     16  C   UNL     1       1.166   9.194  19.433  0.00  0.00    +0.000 A 
ENDBRANCH  10  11
ENDBRANCH   9  10
ENDBRANCH   7   9
ENDBRANCH   1   7
BRANCH   6  17
ATOM     17  C   UNL     1       4.682   3.217  18.540  0.00  0.00    +0.000 C 
BRANCH  17  18
ATOM     18  C   UNL     1       5.528   4.449  18.190  0.00  0.00    +0.000 A 
ATOM     19  C   UNL     1       6.276   5.196  19.106  0.00  0.00    +0.000 A 
ATOM     20  C   UNL     1       7.217   6.157  18.664  0.00  0.00    +0.000 A 
ATOM     21  C   UNL     1       7.429   6.376  17.313  0.00  0.00    +0.000 A 
ATOM     22  C   UNL     1       6.712   5.659  16.380  0.00  0.00    +0.000 A 
ATOM     23  C   UNL     1       5.775   4.706  16.808  0.00  0.00    +0.000 A 
ENDBRANCH  17  18
BRANCH  17  24
ATOM     24  O   UNL     1       4.383   2.468  17.357  0.00  0.00    +0.000 OA
ATOM     25  H   UNL     1       4.330   3.102  16.625  0.00  0.00    +0.000 HD
ENDBRANCH  17  24
ENDBRANCH   6  17
TORSDOF 7
ENDMDL
