MODEL 1
REMARK VINA RESULT:      -7.9      0.000      0.000
REMARK  Name = 
REMARK  6 active torsions:
REMARK  status: ('A' for Active; 'I' for Inactive)
REMARK    1  A    between atoms: C_1  and  C_2
REMARK    2  A    between atoms: C_2  and  C_3
REMARK    3  A    between atoms: C_2  and  N_5
REMARK    4  A    between atoms: C_3  and  N_4
REMARK    5  A    between atoms: C_7  and  C_8
REMARK    6  A    between atoms: C_13  and  O_14
REMARK                            x       y       z     vdW  Elec       q    Type
REMARK                         _______ _______ _______ _____ _____    ______ ____
ROOT
ATOM      1  N   UNL     1       5.366   4.961  18.505  0.00  0.00    +0.000 N 
ATOM      2  N   UNL     1       4.752   6.133  18.240  0.00  0.00    +0.000 NA
ATOM      3  C   UNL     1       3.569   6.044  18.879  0.00  0.00    +0.000 A 
ATOM      4  C   UNL     1       3.398   4.752  19.472  0.00  0.00    +0.000 A 
ATOM      5  C   UNL     1       2.445   4.041  20.220  0.00  0.00    +0.000 A 
ATOM      6  N   UNL     1       1.193   4.510  20.585  0.00  0.00    +0.000 N 
ATOM      7  N   UNL     1       2.746   2.792  20.638  0.00  0.00    +0.000 NA
ATOM      8  C   UNL     1       3.947   2.275  20.321  0.00  0.00    +0.000 A 
ATOM      9  N   UNL     1       4.925   2.850  19.607  0.00  0.00    +0.000 NA
ATOM     10  C   UNL     1       4.585   4.086  19.209  0.00  0.00    +0.000 A 
ATOM     11  H   UNL     1       0.744   5.138  19.934  0.00  0.00    +0.000 HD
ATOM     12  H   UNL     1       0.616   3.761  20.953  0.00  0.00    +0.000 HD
ENDROOT
BRANCH   3  13
ATOM     13  C   UNL     1       2.683   7.212  18.922  0.00  0.00    +0.000 A 
ATOM     14  C   UNL     1       2.484   7.999  17.772  0.00  0.00    +0.000 A 
ATOM     15  C   UNL     1       1.661   9.129  17.808  0.00  0.00    +0.000 A 
ATOM     16  C   UNL     1       1.031   9.473  18.999  0.00  0.00    +0.000 A 
ATOM     17  F   UNL     1       0.231  10.547  19.050  0.00  0.00    +0.000 F 
ATOM     18  C   UNL     1       1.227   8.709  20.142  0.00  0.00    +0.000 A 
ATOM     19  C   UNL     1       2.062   7.599  20.117  0.00  0.00    +0.000 A 
BRANCH  18  20
ATOM     20  O   UNL     1       0.608   9.026  21.318  0.00  0.00    +0.000 OA
ATOM     21  H   UNL     1       0.295   9.947  21.237  0.00  0.00    +0.000 HD
ENDBRANCH  18  20
ENDBRANCH   3  13
BRANCH   1  23
ATOM     22  C   UNL     1       7.588   5.898  18.907  0.00  0.00    +0.000 C 
ATOM     23  C   UNL     1       6.789   4.792  18.212  0.00  0.00    +0.000 C 
BRANCH  23  24
ATOM     24  C   UNL     1       7.059   4.718  16.693  0.00  0.00    +0.000 C 
BRANCH  24  25
ATOM     25  N   UNL     1       7.298   6.016  16.046  0.00  0.00    +0.000 NA
ATOM     26  H   UNL     1       7.238   5.924  15.033  0.00  0.00    +0.000 HD
ATOM     27  H   UNL     1       8.240   6.347  16.255  0.00  0.00    +0.000 HD
ENDBRANCH  24  25
ENDBRANCH  23  24
ENDBRANCH   1  23
TORSDOF 5
ENDMDL
MODEL 2
REMARK VINA RESULT:      -7.9      1.540      1.915
REMARK  Name = 
REMARK  6 active torsions:
REMARK  status: ('A' for Active; 'I' for Inactive)
REMARK    1  A    between atoms: C_1  and  C_2
REMARK    2  A    between atoms: C_2  and  C_3
REMARK    3  A    between atoms: C_2  and  N_5
REMARK    4  A    between atoms: C_3  and  N_4
REMARK    5  A    between atoms: C_7  and  C_8
REMARK    6  A    between atoms: C_13  and  O_14
REMARK                            x       y       z     vdW  Elec       q    Type
REMARK                         _______ _______ _______ _____ _____    ______ ____
ROOT
ATOM      1  N   UNL     1       4.693   4.515  17.088  0.00  0.00    +0.000 N 
ATOM      2  N   UNL     1       4.278   5.789  17.256  0.00  0.00    +0.000 NA
ATOM      3  C   UNL     1       3.230   5.691  18.096  0.00  0.00    +0.000 A 
ATOM      4  C   UNL     1       2.921   4.322  18.382  0.00  0.00    +0.000 A 
ATOM      5  C   UNL     1       1.996   3.571  19.126  0.00  0.00    +0.000 A 
ATOM      6  N   UNL     1       0.940   4.090  19.858  0.00  0.00    +0.000 N 
ATOM      7  N   UNL     1       2.121   2.227  19.154  0.00  0.00    +0.000 NA
ATOM      8  C   UNL     1       3.128   1.656  18.466  0.00  0.00    +0.000 A 
ATOM      9  N   UNL     1       4.057   2.265  17.717  0.00  0.00    +0.000 NA
ATOM     10  C   UNL     1       3.895   3.597  17.713  0.00  0.00    +0.000 A 
ATOM     11  H   UNL     1       0.512   4.930  19.493  0.00  0.00    +0.000 HD
ATOM     12  H   UNL     1       0.303   3.357  20.151  0.00  0.00    +0.000 HD
ENDROOT
BRANCH   3  13
ATOM     13  C   UNL     1       2.604   6.913  18.613  0.00  0.00    +0.000 A 
ATOM     14  C   UNL     1       2.207   6.995  19.961  0.00  0.00    +0.000 A 
ATOM     15  C   UNL     1       1.587   8.146  20.458  0.00  0.00    +0.000 A 
ATOM     16  C   UNL     1       1.365   9.222  19.605  0.00  0.00    +0.000 A 
ATOM     17  F   UNL     1       0.782  10.335  20.067  0.00  0.00    +0.000 F 
ATOM     18  C   UNL     1       1.745   9.148  18.272  0.00  0.00    +0.000 A 
ATOM     19  C   UNL     1       2.340   7.998  17.766  0.00  0.00    +0.000 A 
BRANCH  18  20
ATOM     20  O   UNL     1       1.546  10.199  17.422  0.00  0.00    +0.000 OA
ATOM     21  H   UNL     1       2.367  10.726  17.421  0.00  0.00    +0.000 HD
ENDBRANCH  18  20
ENDBRANCH   3  13
BRANCH   1  23
ATOM     22  C   UNL     1       7.114   4.656  17.406  0.00  0.00    +0.000 C 
ATOM     23  C   UNL     1       5.985   4.238  16.459  0.00  0.00    +0.000 C 
BRANCH  23  24
ATOM     24  C   UNL     1       6.098   4.891  15.065  0.00  0.00    +0.000 C 
BRANCH  24  25
ATOM     25  N   UNL     1       7.423   5.443  14.748  0.00  0.00    +0.000 NA
ATOM     26  H   UNL     1       8.140   4.727  14.851  0.00  0.00    +0.000 HD
ATOM     27  H   UNL     1       7.660   6.190  15.403  0.00  0.00    +0.000 HD
ENDBRANCH  24  25
ENDBRANCH  23  24
ENDBRANCH   1  23
TORSDOF 5
ENDMDL
MODEL 3
REMARK VINA RESULT:      -7.8      0.959      1.403
REMARK  Name = 
REMARK  6 active torsions:
REMARK  status: ('A' for Active; 'I' for Inactive)
REMARK    1  A    between atoms: C_1  and  C_2
REMARK    2  A    between atoms: C_2  and  C_3
REMARK    3  A    between atoms: C_2  and  N_5
REMARK    4  A    between atoms: C_3  and  N_4
REMARK    5  A    between atoms: C_7  and  C_8
REMARK    6  A    between atoms: C_13  and  O_14
REMARK                            x       y       z     vdW  Elec       q    Type
REMARK                         _______ _______ _______ _____ _____    ______ ____
ROOT
ATOM      1  N   UNL     1       5.377   4.944  18.532  0.00  0.00    +0.000 N 
ATOM      2  N   UNL     1       4.762   6.134  18.369  0.00  0.00    +0.000 NA
ATOM      3  C   UNL     1       3.607   6.011  19.053  0.00  0.00    +0.000 A 
ATOM      4  C   UNL     1       3.452   4.685  19.571  0.00  0.00    +0.000 A 
ATOM      5  C   UNL     1       2.528   3.933  20.315  0.00  0.00    +0.000 A 
ATOM      6  N   UNL     1       1.297   4.385  20.764  0.00  0.00    +0.000 N 
ATOM      7  N   UNL     1       2.836   2.659  20.640  0.00  0.00    +0.000 NA
ATOM      8  C   UNL     1       4.018   2.156  20.237  0.00  0.00    +0.000 A 
ATOM      9  N   UNL     1       4.968   2.770  19.518  0.00  0.00    +0.000 NA
ATOM     10  C   UNL     1       4.621   4.030  19.214  0.00  0.00    +0.000 A 
ATOM     11  H   UNL     1       0.824   5.056  20.175  0.00  0.00    +0.000 HD
ATOM     12  H   UNL     1       0.730   3.618  21.109  0.00  0.00    +0.000 HD
ENDROOT
BRANCH   3  13
ATOM     13  C   UNL     1       2.734   7.179  19.210  0.00  0.00    +0.000 A 
ATOM     14  C   UNL     1       2.017   7.378  20.405  0.00  0.00    +0.000 A 
ATOM     15  C   UNL     1       1.162   8.474  20.555  0.00  0.00    +0.000 A 
ATOM     16  C   UNL     1       1.025   9.379  19.507  0.00  0.00    +0.000 A 
ATOM     17  F   UNL     1       0.218  10.440  19.637  0.00  0.00    +0.000 F 
ATOM     18  C   UNL     1       1.720   9.187  18.321  0.00  0.00    +0.000 A 
ATOM     19  C   UNL     1       2.553   8.087  18.157  0.00  0.00    +0.000 A 
BRANCH  18  20
ATOM     20  O   UNL     1       1.606  10.070  17.285  0.00  0.00    +0.000 OA
ATOM     21  H   UNL     1       1.531   9.543  16.467  0.00  0.00    +0.000 HD
ENDBRANCH  18  20
ENDBRANCH   3  13
BRANCH   1  23
ATOM     22  C   UNL     1       7.635   5.776  18.967  0.00  0.00    +0.000 C 
ATOM     23  C   UNL     1       6.784   4.786  18.166  0.00  0.00    +0.000 C 
BRANCH  23  24
ATOM     24  C   UNL     1       6.999   4.905  16.642  0.00  0.00    +0.000 C 
BRANCH  24  25
ATOM     25  N   UNL     1       7.369   6.249  16.175  0.00  0.00    +0.000 NA
ATOM     26  H   UNL     1       6.815   6.957  16.656  0.00  0.00    +0.000 HD
ATOM     27  H   UNL     1       7.166   6.346  15.180  0.00  0.00    +0.000 HD
ENDBRANCH  24  25
ENDBRANCH  23  24
ENDBRANCH   1  23
TORSDOF 5
ENDMDL
MODEL 4
REMARK VINA RESULT:      -7.8      1.303      1.408
REMARK  Name = 
REMARK  6 active torsions:
REMARK  status: ('A' for Active; 'I' for Inactive)
REMARK    1  A    between atoms: C_1  and  C_2
REMARK    2  A    between atoms: C_2  and  C_3
REMARK    3  A    between atoms: C_2  and  N_5
REMARK    4  A    between atoms: C_3  and  N_4
REMARK    5  A    between atoms: C_7  and  C_8
REMARK    6  A    between atoms: C_13  and  O_14
REMARK                            x       y       z     vdW  Elec       q    Type
REMARK                         _______ _______ _______ _____ _____    ______ ____
ROOT
ATOM      1  N   UNL     1       4.660   4.607  17.038  0.00  0.00    +0.000 N 
ATOM      2  N   UNL     1       4.205   5.865  17.212  0.00  0.00    +0.000 NA
ATOM      3  C   UNL     1       3.166   5.731  18.059  0.00  0.00    +0.000 A 
ATOM      4  C   UNL     1       2.903   4.352  18.342  0.00  0.00    +0.000 A 
ATOM      5  C   UNL     1       2.008   3.569  19.089  0.00  0.00    +0.000 A 
ATOM      6  N   UNL     1       0.940   4.051  19.829  0.00  0.00    +0.000 N 
ATOM      7  N   UNL     1       2.177   2.230  19.112  0.00  0.00    +0.000 NA
ATOM      8  C   UNL     1       3.197   1.694  18.416  0.00  0.00    +0.000 A 
ATOM      9  N   UNL     1       4.102   2.335  17.663  0.00  0.00    +0.000 NA
ATOM     10  C   UNL     1       3.897   3.661  17.665  0.00  0.00    +0.000 A 
ATOM     11  H   UNL     1       0.483   4.877  19.470  0.00  0.00    +0.000 HD
ATOM     12  H   UNL     1       0.330   3.296  20.123  0.00  0.00    +0.000 HD
ENDROOT
BRANCH   3  13
ATOM     13  C   UNL     1       2.504   6.930  18.584  0.00  0.00    +0.000 A 
ATOM     14  C   UNL     1       2.123   7.972  17.716  0.00  0.00    +0.000 A 
ATOM     15  C   UNL     1       1.515   9.130  18.209  0.00  0.00    +0.000 A 
ATOM     16  C   UNL     1       1.282   9.248  19.575  0.00  0.00    +0.000 A 
ATOM     17  F   UNL     1       0.691  10.347  20.063  0.00  0.00    +0.000 F 
ATOM     18  C   UNL     1       1.661   8.231  20.440  0.00  0.00    +0.000 A 
ATOM     19  C   UNL     1       2.288   7.088  19.960  0.00  0.00    +0.000 A 
BRANCH  18  20
ATOM     20  O   UNL     1       1.431   8.324  21.784  0.00  0.00    +0.000 OA
ATOM     21  H   UNL     1       1.393   7.413  22.131  0.00  0.00    +0.000 HD
ENDBRANCH  18  20
ENDBRANCH   3  13
BRANCH   1  23
ATOM     22  C   UNL     1       7.078   4.683  17.396  0.00  0.00    +0.000 C 
ATOM     23  C   UNL     1       5.957   4.373  16.401  0.00  0.00    +0.000 C 
BRANCH  23  24
ATOM     24  C   UNL     1       6.096   5.156  15.077  0.00  0.00    +0.000 C 
BRANCH  24  25
ATOM     25  N   UNL     1       7.477   5.326  14.604  0.00  0.00    +0.000 NA
ATOM     26  H   UNL     1       7.516   6.028  13.866  0.00  0.00    +0.000 HD
ATOM     27  H   UNL     1       7.821   4.456  14.197  0.00  0.00    +0.000 HD
ENDBRANCH  24  25
ENDBRANCH  23  24
ENDBRANCH   1  23
TORSDOF 5
ENDMDL
MODEL 5
REMARK VINA RESULT:      -7.5      1.642      2.156
REMARK  Name = 
REMARK  6 active torsions:
REMARK  status: ('A' for Active; 'I' for Inactive)
REMARK    1  A    between atoms: C_1  and  C_2
REMARK    2  A    between atoms: C_2  and  C_3
REMARK    3  A    between atoms: C_2  and  N_5
REMARK    4  A    between atoms: C_3  and  N_4
REMARK    5  A    between atoms: C_7  and  C_8
REMARK    6  A    between atoms: C_13  and  O_14
REMARK                            x       y       z     vdW  Elec       q    Type
REMARK                         _______ _______ _______ _____ _____    ______ ____
ROOT
ATOM      1  N   UNL     1       4.778   5.863  16.936  0.00  0.00    +0.000 N 
ATOM      2  N   UNL     1       4.139   7.007  17.258  0.00  0.00    +0.000 NA
ATOM      3  C   UNL     1       3.144   6.616  18.078  0.00  0.00    +0.000 A 
ATOM      4  C   UNL     1       3.100   5.189  18.194  0.00  0.00    +0.000 A 
ATOM      5  C   UNL     1       2.345   4.196  18.838  0.00  0.00    +0.000 A 
ATOM      6  N   UNL     1       1.227   4.417  19.627  0.00  0.00    +0.000 N 
ATOM      7  N   UNL     1       2.716   2.905  18.702  0.00  0.00    +0.000 NA
ATOM      8  C   UNL     1       3.796   2.618  17.951  0.00  0.00    +0.000 A 
ATOM      9  N   UNL     1       4.582   3.474  17.284  0.00  0.00    +0.000 NA
ATOM     10  C   UNL     1       4.177   4.744  17.443  0.00  0.00    +0.000 A 
ATOM     11  H   UNL     1       0.644   5.200  19.366  0.00  0.00    +0.000 HD
ATOM     12  H   UNL     1       0.743   3.548  19.826  0.00  0.00    +0.000 HD
ENDROOT
BRANCH   3  13
ATOM     13  C   UNL     1       2.315   7.629  18.739  0.00  0.00    +0.000 A 
ATOM     14  C   UNL     1       2.038   7.536  20.117  0.00  0.00    +0.000 A 
ATOM     15  C   UNL     1       1.228   8.482  20.752  0.00  0.00    +0.000 A 
ATOM     16  C   UNL     1       0.694   9.529  20.009  0.00  0.00    +0.000 A 
ATOM     17  F   UNL     1      -0.076  10.450  20.603  0.00  0.00    +0.000 F 
ATOM     18  C   UNL     1       0.954   9.626  18.648  0.00  0.00    +0.000 A 
ATOM     19  C   UNL     1       1.739   8.676  18.007  0.00  0.00    +0.000 A 
BRANCH  18  20
ATOM     20  O   UNL     1       0.447  10.654  17.904  0.00  0.00    +0.000 OA
ATOM     21  H   UNL     1      -0.476  10.787  18.192  0.00  0.00    +0.000 HD
ENDBRANCH  18  20
ENDBRANCH   3  13
BRANCH   1  23
ATOM     22  C   UNL     1       6.045   5.066  15.002  0.00  0.00    +0.000 C 
ATOM     23  C   UNL     1       6.086   5.908  16.281  0.00  0.00    +0.000 C 
BRANCH  23  24
ATOM     24  C   UNL     1       7.224   5.493  17.238  0.00  0.00    +0.000 C 
BRANCH  24  25
ATOM     25  N   UNL     1       7.845   4.197  16.931  0.00  0.00    +0.000 NA
ATOM     26  H   UNL     1       7.256   3.433  17.261  0.00  0.00    +0.000 HD
ATOM     27  H   UNL     1       8.738   4.109  17.417  0.00  0.00    +0.000 HD
ENDBRANCH  24  25
ENDBRANCH  23  24
ENDBRANCH   1  23
TORSDOF 5
ENDMDL
MODEL 6
REMARK VINA RESULT:      -7.4      1.920      4.208
REMARK  Name = 
REMARK  6 active torsions:
REMARK  status: ('A' for Active; 'I' for Inactive)
REMARK    1  A    between atoms: C_1  and  C_2
REMARK    2  A    between atoms: C_2  and  C_3
REMARK    3  A    between atoms: C_2  and  N_5
REMARK    4  A    between atoms: C_3  and  N_4
REMARK    5  A    between atoms: C_7  and  C_8
REMARK    6  A    between atoms: C_13  and  O_14
REMARK                            x       y       z     vdW  Elec       q    Type
REMARK                         _______ _______ _______ _____ _____    ______ ____
ROOT
ATOM      1  N   UNL     1       2.428   3.901  19.453  0.00  0.00    +0.000 N 
ATOM      2  N   UNL     1       1.915   5.049  19.941  0.00  0.00    +0.000 NA
ATOM      3  C   UNL     1       2.496   6.016  19.204  0.00  0.00    +0.000 A 
ATOM      4  C   UNL     1       3.466   5.468  18.304  0.00  0.00    +0.000 A 
ATOM      5  C   UNL     1       4.380   5.901  17.330  0.00  0.00    +0.000 A 
ATOM      6  N   UNL     1       4.627   7.221  16.987  0.00  0.00    +0.000 N 
ATOM      7  N   UNL     1       5.092   4.979  16.649  0.00  0.00    +0.000 NA
ATOM      8  C   UNL     1       4.900   3.676  16.930  0.00  0.00    +0.000 A 
ATOM      9  N   UNL     1       4.070   3.147  17.840  0.00  0.00    +0.000 NA
ATOM     10  C   UNL     1       3.385   4.097  18.496  0.00  0.00    +0.000 A 
ATOM     11  H   UNL     1       4.544   7.900  17.731  0.00  0.00    +0.000 HD
ATOM     12  H   UNL     1       5.452   7.298  16.403  0.00  0.00    +0.000 HD
ENDROOT
BRANCH   3  13
ATOM     13  C   UNL     1       2.064   7.407  19.372  0.00  0.00    +0.000 A 
ATOM     14  C   UNL     1       1.517   7.843  20.594  0.00  0.00    +0.000 A 
ATOM     15  C   UNL     1       1.079   9.160  20.756  0.00  0.00    +0.000 A 
ATOM     16  C   UNL     1       1.191  10.050  19.693  0.00  0.00    +0.000 A 
ATOM     17  F   UNL     1       0.786  11.319  19.834  0.00  0.00    +0.000 F 
ATOM     18  C   UNL     1       1.721   9.630  18.481  0.00  0.00    +0.000 A 
ATOM     19  C   UNL     1       2.136   8.315  18.306  0.00  0.00    +0.000 A 
BRANCH  18  20
ATOM     20  O   UNL     1       1.849  10.492  17.429  0.00  0.00    +0.000 OA
ATOM     21  H   UNL     1       0.984  10.928  17.310  0.00  0.00    +0.000 HD
ENDBRANCH  18  20
ENDBRANCH   3  13
BRANCH   1  23
ATOM     22  C   UNL     1       0.717   2.273  18.818  0.00  0.00    +0.000 C 
ATOM     23  C   UNL     1       1.830   2.614  19.812  0.00  0.00    +0.000 C 
BRANCH  23  24
ATOM     24  C   UNL     1       1.353   2.593  21.280  0.00  0.00    +0.000 C 
BRANCH  24  25
ATOM     25  N   UNL     1       2.346   3.060  22.259  0.00  0.00    +0.000 NA
ATOM     26  H   UNL     1       3.219   3.301  21.791  0.00  0.00    +0.000 HD
ATOM     27  H   UNL     1       2.565   2.317  22.922  0.00  0.00    +0.000 HD
ENDBRANCH  24  25
ENDBRANCH  23  24
ENDBRANCH   1  23
TORSDOF 5
ENDMDL
MODEL 7
REMARK VINA RESULT:      -7.3      1.297      1.572
REMARK  Name = 
REMARK  6 active torsions:
REMARK  status: ('A' for Active; 'I' for Inactive)
REMARK    1  A    between atoms: C_1  and  C_2
REMARK    2  A    between atoms: C_2  and  C_3
REMARK    3  A    between atoms: C_2  and  N_5
REMARK    4  A    between atoms: C_3  and  N_4
REMARK    5  A    between atoms: C_7  and  C_8
REMARK    6  A    between atoms: C_13  and  O_14
REMARK                            x       y       z     vdW  Elec       q    Type
REMARK                         _______ _______ _______ _____ _____    ______ ____
ROOT
ATOM      1  N   UNL     1       4.773   5.435  17.128  0.00  0.00    +0.000 N 
ATOM      2  N   UNL     1       4.185   6.631  17.340  0.00  0.00    +0.000 NA
ATOM      3  C   UNL     1       3.136   6.352  18.138  0.00  0.00    +0.000 A 
ATOM      4  C   UNL     1       3.008   4.941  18.349  0.00  0.00    +0.000 A 
ATOM      5  C   UNL     1       2.172   4.037  19.025  0.00  0.00    +0.000 A 
ATOM      6  N   UNL     1       1.035   4.372  19.742  0.00  0.00    +0.000 N 
ATOM      7  N   UNL     1       2.478   2.722  18.995  0.00  0.00    +0.000 NA
ATOM      8  C   UNL     1       3.572   2.326  18.318  0.00  0.00    +0.000 A 
ATOM      9  N   UNL     1       4.431   3.091  17.630  0.00  0.00    +0.000 NA
ATOM     10  C   UNL     1       4.090   4.388  17.682  0.00  0.00    +0.000 A 
ATOM     11  H   UNL     1       0.508   5.163  19.401  0.00  0.00    +0.000 HD
ATOM     12  H   UNL     1       0.496   3.546  19.979  0.00  0.00    +0.000 HD
ENDROOT
BRANCH   3  13
ATOM     13  C   UNL     1       2.336   7.451  18.688  0.00  0.00    +0.000 A 
ATOM     14  C   UNL     1       1.869   8.483  17.851  0.00  0.00    +0.000 A 
ATOM     15  C   UNL     1       1.128   9.548  18.369  0.00  0.00    +0.000 A 
ATOM     16  C   UNL     1       0.846   9.583  19.730  0.00  0.00    +0.000 A 
ATOM     17  F   UNL     1       0.128  10.591  20.242  0.00  0.00    +0.000 F 
ATOM     18  C   UNL     1       1.308   8.576  20.567  0.00  0.00    +0.000 A 
ATOM     19  C   UNL     1       2.066   7.526  20.061  0.00  0.00    +0.000 A 
BRANCH  18  20
ATOM     20  O   UNL     1       1.032   8.587  21.905  0.00  0.00    +0.000 OA
ATOM     21  H   UNL     1       0.062   8.631  21.996  0.00  0.00    +0.000 HD
ENDBRANCH  18  20
ENDBRANCH   3  13
BRANCH   1  23
ATOM     22  C   UNL     1       6.164   4.203  15.538  0.00  0.00    +0.000 C 
ATOM     23  C   UNL     1       6.108   5.366  16.533  0.00  0.00    +0.000 C 
BRANCH  23  24
ATOM     24  C   UNL     1       7.214   5.290  17.608  0.00  0.00    +0.000 C 
BRANCH  24  25
ATOM     25  N   UNL     1       8.061   4.090  17.538  0.00  0.00    +0.000 NA
ATOM     26  H   UNL     1       8.757   4.102  18.282  0.00  0.00    +0.000 HD
ATOM     27  H   UNL     1       8.576   4.073  16.657  0.00  0.00    +0.000 HD
ENDBRANCH  24  25
ENDBRANCH  23  24
ENDBRANCH   1  23
TORSDOF 5
ENDMDL
MODEL 8
REMARK VINA RESULT:      -7.3      1.970      4.029
REMARK  Name = 
REMARK  6 active torsions:
REMARK  status: ('A' for Active; 'I' for Inactive)
REMARK    1  A    between atoms: C_1  and  C_2
REMARK    2  A    between atoms: C_2  and  C_3
REMARK    3  A    between atoms: C_2  and  N_5
REMARK    4  A    between atoms: C_3  and  N_4
REMARK    5  A    between atoms: C_7  and  C_8
REMARK    6  A    between atoms: C_13  and  O_14
REMARK                            x       y       z     vdW  Elec       q    Type
REMARK                         _______ _______ _______ _____ _____    ______ ____
ROOT
ATOM      1  N   UNL     1       3.498   3.576  17.930  0.00  0.00    +0.000 N 
ATOM      2  N   UNL     1       2.807   4.498  18.632  0.00  0.00    +0.000 NA
ATOM      3  C   UNL     1       3.293   5.679  18.203  0.00  0.00    +0.000 A 
ATOM      4  C   UNL     1       4.379   5.490  17.288  0.00  0.00    +0.000 A 
ATOM      5  C   UNL     1       5.281   6.256  16.532  0.00  0.00    +0.000 A 
ATOM      6  N   UNL     1       5.367   7.639  16.539  0.00  0.00    +0.000 N 
ATOM      7  N   UNL     1       6.149   5.622  15.716  0.00  0.00    +0.000 NA
ATOM      8  C   UNL     1       6.119   4.277  15.658  0.00  0.00    +0.000 A 
ATOM      9  N   UNL     1       5.317   3.445  16.337  0.00  0.00    +0.000 NA
ATOM     10  C   UNL     1       4.473   4.115  17.137  0.00  0.00    +0.000 A 
ATOM     11  H   UNL     1       5.150   8.097  17.414  0.00  0.00    +0.000 HD
ATOM     12  H   UNL     1       6.207   7.956  16.067  0.00  0.00    +0.000 HD
ENDROOT
BRANCH   3  13
ATOM     13  C   UNL     1       2.669   6.925  18.660  0.00  0.00    +0.000 A 
ATOM     14  C   UNL     1       2.185   7.039  19.977  0.00  0.00    +0.000 A 
ATOM     15  C   UNL     1       1.565   8.213  20.416  0.00  0.00    +0.000 A 
ATOM     16  C   UNL     1       1.431   9.281  19.536  0.00  0.00    +0.000 A 
ATOM     17  F   UNL     1       0.849  10.417  19.941  0.00  0.00    +0.000 F 
ATOM     18  C   UNL     1       1.897   9.177  18.232  0.00  0.00    +0.000 A 
ATOM     19  C   UNL     1       2.492   8.004  17.783  0.00  0.00    +0.000 A 
BRANCH  18  20
ATOM     20  O   UNL     1       1.783  10.219  17.356  0.00  0.00    +0.000 OA
ATOM     21  H   UNL     1       2.392  10.917  17.662  0.00  0.00    +0.000 HD
ENDBRANCH  18  20
ENDBRANCH   3  13
BRANCH   1  23
ATOM     22  C   UNL     1       1.590   2.102  18.339  0.00  0.00    +0.000 C 
ATOM     23  C   UNL     1       3.060   2.180  17.916  0.00  0.00    +0.000 C 
BRANCH  23  24
ATOM     24  C   UNL     1       3.979   1.280  18.769  0.00  0.00    +0.000 C 
BRANCH  24  25
ATOM     25  N   UNL     1       4.751   1.989  19.801  0.00  0.00    +0.000 NA
ATOM     26  H   UNL     1       4.387   2.932  19.930  0.00  0.00    +0.000 HD
ATOM     27  H   UNL     1       5.723   2.088  19.508  0.00  0.00    +0.000 HD
ENDBRANCH  24  25
ENDBRANCH  23  24
ENDBRANCH   1  23
TORSDOF 5
ENDMDL
MODEL 9
REMARK VINA RESULT:      -7.2      1.680      3.962
REMARK  Name = 
REMARK  6 active torsions:
REMARK  status: ('A' for Active; 'I' for Inactive)
REMARK    1  A    between atoms: C_1  and  C_2
REMARK    2  A    between atoms: C_2  and  C_3
REMARK    3  A    between atoms: C_2  and  N_5
REMARK    4  A    between atoms: C_3  and  N_4
REMARK    5  A    between atoms: C_7  and  C_8
REMARK    6  A    between atoms: C_13  and  O_14
REMARK                            x       y       z     vdW  Elec       q    Type
REMARK                         _______ _______ _______ _____ _____    ______ ____
ROOT
ATOM      1  N   UNL     1       2.441   3.957  19.338  0.00  0.00    +0.000 N 
ATOM      2  N   UNL     1       1.893   5.118  19.756  0.00  0.00    +0.000 NA
ATOM      3  C   UNL     1       2.478   6.059  18.988  0.00  0.00    +0.000 A 
ATOM      4  C   UNL     1       3.483   5.486  18.143  0.00  0.00    +0.000 A 
ATOM      5  C   UNL     1       4.417   5.889  17.175  0.00  0.00    +0.000 A 
ATOM      6  N   UNL     1       4.650   7.195  16.774  0.00  0.00    +0.000 N 
ATOM      7  N   UNL     1       5.164   4.948  16.559  0.00  0.00    +0.000 NA
ATOM      8  C   UNL     1       4.987   3.657  16.898  0.00  0.00    +0.000 A 
ATOM      9  N   UNL     1       4.140   3.157  17.810  0.00  0.00    +0.000 NA
ATOM     10  C   UNL     1       3.421   4.125  18.399  0.00  0.00    +0.000 A 
ATOM     11  H   UNL     1       4.534   7.907  17.481  0.00  0.00    +0.000 HD
ATOM     12  H   UNL     1       5.490   7.259  16.210  0.00  0.00    +0.000 HD
ENDROOT
BRANCH   3  13
ATOM     13  C   UNL     1       2.018   7.448  19.075  0.00  0.00    +0.000 A 
ATOM     14  C   UNL     1       1.956   8.253  17.921  0.00  0.00    +0.000 A 
ATOM     15  C   UNL     1       1.543   9.586  17.997  0.00  0.00    +0.000 A 
ATOM     16  C   UNL     1       1.185  10.119  19.231  0.00  0.00    +0.000 A 
ATOM     17  F   UNL     1       0.777  11.392  19.320  0.00  0.00    +0.000 F 
ATOM     18  C   UNL     1       1.251   9.337  20.376  0.00  0.00    +0.000 A 
ATOM     19  C   UNL     1       1.683   8.019  20.311  0.00  0.00    +0.000 A 
BRANCH  18  20
ATOM     20  O   UNL     1       0.893   9.840  21.596  0.00  0.00    +0.000 OA
ATOM     21  H   UNL     1       1.642  10.381  21.912  0.00  0.00    +0.000 HD
ENDBRANCH  18  20
ENDBRANCH   3  13
BRANCH   1  23
ATOM     22  C   UNL     1       0.748   2.289  18.760  0.00  0.00    +0.000 C 
ATOM     23  C   UNL     1       1.855   2.679  19.744  0.00  0.00    +0.000 C 
BRANCH  23  24
ATOM     24  C   UNL     1       1.374   2.707  21.211  0.00  0.00    +0.000 C 
BRANCH  24  25
ATOM     25  N   UNL     1       2.378   3.169  22.180  0.00  0.00    +0.000 NA
ATOM     26  H   UNL     1       2.168   4.119  22.484  0.00  0.00    +0.000 HD
ATOM     27  H   UNL     1       3.301   3.198  21.746  0.00  0.00    +0.000 HD
ENDBRANCH  24  25
ENDBRANCH  23  24
ENDBRANCH   1  23
TORSDOF 5
ENDMDL
