MODEL 1
REMARK VINA RESULT:      -8.3      0.000      0.000
REMARK  Name = 
REMARK  6 active torsions:
REMARK  status: ('A' for Active; 'I' for Inactive)
REMARK    1  A    between atoms: C_1  and  C_2
REMARK    2  A    between atoms: C_5  and  S_6
REMARK    3  A    between atoms: S_6  and  C_7
REMARK    4  A    between atoms: C_7  and  C_8
REMARK    5  A    between atoms: N_10  and  C_11
REMARK    6  A    between atoms: N_18  and  C_19
REMARK                            x       y       z     vdW  Elec       q    Type
REMARK                         _______ _______ _______ _____ _____    ______ ____
ROOT
ATOM      1  C   UNL     1       3.399   2.072  17.684  0.00  0.00    +0.000 C 
ATOM      2  C   UNL     1       2.831   3.230  18.426  0.00  0.00    +0.000 A 
ATOM      3  N   UNL     1       1.604   3.214  18.906  0.00  0.00    +0.000 NA
ATOM      4  N   UNL     1       1.365   4.389  19.541  0.00  0.00    +0.000 NA
ATOM      5  C   UNL     1       2.437   5.137  19.418  0.00  0.00    +0.000 A 
ATOM      6  N   UNL     1       3.469   4.434  18.776  0.00  0.00    +0.000 N 
ENDROOT
BRANCH   6   7
ATOM      7  C   UNL     1       4.832   4.829  18.475  0.00  0.00    +0.000 A 
ATOM      8  C   UNL     1       5.695   5.138  19.548  0.00  0.00    +0.000 A 
ATOM      9  C   UNL     1       7.040   5.437  19.346  0.00  0.00    +0.000 A 
ATOM     10  C   UNL     1       7.582   5.334  18.076  0.00  0.00    +0.000 A 
ATOM     11  C   UNL     1       6.776   4.997  16.985  0.00  0.00    +0.000 A 
ATOM     12  C   UNL     1       7.380   4.807  15.733  0.00  0.00    +0.000 A 
ATOM     13  C   UNL     1       6.622   4.501  14.609  0.00  0.00    +0.000 A 
ATOM     14  C   UNL     1       5.242   4.524  14.707  0.00  0.00    +0.000 A 
ATOM     15  C   UNL     1       4.636   4.775  15.941  0.00  0.00    +0.000 A 
ATOM     16  C   UNL     1       5.371   4.849  17.147  0.00  0.00    +0.000 A 
ENDBRANCH   6   7
BRANCH   5  17
ATOM     17  S   UNL     1       2.373   6.838  19.776  0.00  0.00    +0.000 S 
BRANCH  17  18
ATOM     18  C   UNL     1       2.550   7.627  18.151  0.00  0.00    +0.000 C 
BRANCH  18  19
ATOM     19  C   UNL     1       1.836   8.970  17.984  0.00  0.00    +0.000 C 
ATOM     20  O   UNL     1       2.263   9.845  17.240  0.00  0.00    +0.000 OA
ATOM     21  N   UNL     1       0.667   9.057  18.720  0.00  0.00    +0.000 N 
ATOM     22  H   UNL     1       0.691   8.601  19.632  0.00  0.00    +0.000 HD
BRANCH  21  23
ATOM     23  C   UNL     1      -0.331  10.050  18.557  0.00  0.00    +0.000 A 
ATOM     24  C   UNL     1      -1.291   9.974  17.539  0.00  0.00    +0.000 A 
ATOM     25  C   UNL     1      -2.318  10.928  17.459  0.00  0.00    +0.000 A 
ATOM     26  C   UNL     1      -2.376  11.979  18.373  0.00  0.00    +0.000 A 
ATOM     27  C   UNL     1      -1.422  12.069  19.382  0.00  0.00    +0.000 A 
ATOM     28  C   UNL     1      -0.421  11.098  19.487  0.00  0.00    +0.000 A 
ATOM     29 BR   UNL     1       0.839  11.300  20.890  0.00  0.00    +0.000 Br
ENDBRANCH  21  23
ENDBRANCH  18  19
ENDBRANCH  17  18
ENDBRANCH   5  17
TORSDOF 5
ENDMDL
MODEL 2
REMARK VINA RESULT:      -8.1      1.814      3.142
REMARK  Name = 
REMARK  6 active torsions:
REMARK  status: ('A' for Active; 'I' for Inactive)
REMARK    1  A    between atoms: C_1  and  C_2
REMARK    2  A    between atoms: C_5  and  S_6
REMARK    3  A    between atoms: S_6  and  C_7
REMARK    4  A    between atoms: C_7  and  C_8
REMARK    5  A    between atoms: N_10  and  C_11
REMARK    6  A    between atoms: N_18  and  C_19
REMARK                            x       y       z     vdW  Elec       q    Type
REMARK                         _______ _______ _______ _____ _____    ______ ____
ROOT
ATOM      1  C   UNL     1       1.911   4.051  21.011  0.00  0.00    +0.000 C 
ATOM      2  C   UNL     1       2.008   5.429  20.460  0.00  0.00    +0.000 A 
ATOM      3  N   UNL     1       1.455   6.461  21.066  0.00  0.00    +0.000 NA
ATOM      4  N   UNL     1       1.715   7.583  20.350  0.00  0.00    +0.000 NA
ATOM      5  C   UNL     1       2.399   7.231  19.286  0.00  0.00    +0.000 A 
ATOM      6  N   UNL     1       2.704   5.861  19.316  0.00  0.00    +0.000 N 
ENDROOT
BRANCH   6   7
ATOM      7  C   UNL     1       3.478   5.048  18.397  0.00  0.00    +0.000 A 
ATOM      8  C   UNL     1       2.790   4.301  17.418  0.00  0.00    +0.000 A 
ATOM      9  C   UNL     1       3.466   3.569  16.444  0.00  0.00    +0.000 A 
ATOM     10  C   UNL     1       4.845   3.647  16.361  0.00  0.00    +0.000 A 
ATOM     11  C   UNL     1       5.571   4.402  17.287  0.00  0.00    +0.000 A 
ATOM     12  C   UNL     1       6.956   4.537  17.110  0.00  0.00    +0.000 A 
ATOM     13  C   UNL     1       7.729   5.250  18.018  0.00  0.00    +0.000 A 
ATOM     14  C   UNL     1       7.140   5.712  19.181  0.00  0.00    +0.000 A 
ATOM     15  C   UNL     1       5.770   5.525  19.389  0.00  0.00    +0.000 A 
ATOM     16  C   UNL     1       4.911   5.022  18.383  0.00  0.00    +0.000 A 
ENDBRANCH   6   7
BRANCH   5  17
ATOM     17  S   UNL     1       2.591   8.334  17.954  0.00  0.00    +0.000 S 
BRANCH  17  18
ATOM     18  C   UNL     1       1.022   9.247  17.923  0.00  0.00    +0.000 C 
BRANCH  18  19
ATOM     19  C   UNL     1       0.896  10.381  18.942  0.00  0.00    +0.000 C 
ATOM     20  O   UNL     1       1.668  11.334  18.953  0.00  0.00    +0.000 OA
ATOM     21  N   UNL     1      -0.183  10.227  19.794  0.00  0.00    +0.000 N 
ATOM     22  H   UNL     1      -0.386   9.267  20.071  0.00  0.00    +0.000 HD
BRANCH  21  23
ATOM     23  C   UNL     1      -0.708  11.233  20.644  0.00  0.00    +0.000 A 
ATOM     24  C   UNL     1      -1.282  12.406  20.134  0.00  0.00    +0.000 A 
ATOM     25  C   UNL     1      -1.869  13.342  21.000  0.00  0.00    +0.000 A 
ATOM     26  C   UNL     1      -1.861  13.131  22.377  0.00  0.00    +0.000 A 
ATOM     27  C   UNL     1      -1.284  11.974  22.893  0.00  0.00    +0.000 A 
ATOM     28  C   UNL     1      -0.733  11.022  22.031  0.00  0.00    +0.000 A 
ATOM     29 BR   UNL     1       0.034   9.477  22.820  0.00  0.00    +0.000 Br
ENDBRANCH  21  23
ENDBRANCH  18  19
ENDBRANCH  17  18
ENDBRANCH   5  17
TORSDOF 5
ENDMDL
MODEL 3
REMARK VINA RESULT:      -8.0      2.559      9.367
REMARK  Name = 
REMARK  6 active torsions:
REMARK  status: ('A' for Active; 'I' for Inactive)
REMARK    1  A    between atoms: C_1  and  C_2
REMARK    2  A    between atoms: C_5  and  S_6
REMARK    3  A    between atoms: S_6  and  C_7
REMARK    4  A    between atoms: C_7  and  C_8
REMARK    5  A    between atoms: N_10  and  C_11
REMARK    6  A    between atoms: N_18  and  C_19
REMARK                            x       y       z     vdW  Elec       q    Type
REMARK                         _______ _______ _______ _____ _____    ______ ____
ROOT
ATOM      1  C   UNL     1       0.629  13.561  19.463  0.00  0.00    +0.000 C 
ATOM      2  C   UNL     1       0.606  12.273  20.208  0.00  0.00    +0.000 A 
ATOM      3  N   UNL     1       1.386  12.057  21.248  0.00  0.00    +0.000 NA
ATOM      4  N   UNL     1       1.142  10.813  21.731  0.00  0.00    +0.000 NA
ATOM      5  C   UNL     1       0.237  10.255  20.961  0.00  0.00    +0.000 A 
ATOM      6  N   UNL     1      -0.227  11.160  19.993  0.00  0.00    +0.000 N 
ENDROOT
BRANCH   6   7
ATOM      7  C   UNL     1      -1.251  11.010  18.977  0.00  0.00    +0.000 A 
ATOM      8  C   UNL     1      -0.976  10.192  17.861  0.00  0.00    +0.000 A 
ATOM      9  C   UNL     1      -1.939   9.926  16.890  0.00  0.00    +0.000 A 
ATOM     10  C   UNL     1      -3.233  10.387  17.063  0.00  0.00    +0.000 A 
ATOM     11  C   UNL     1      -3.565  11.173  18.170  0.00  0.00    +0.000 A 
ATOM     12  C   UNL     1      -4.906  11.538  18.361  0.00  0.00    +0.000 A 
ATOM     13  C   UNL     1      -5.286  12.343  19.428  0.00  0.00    +0.000 A 
ATOM     14  C   UNL     1      -4.304  12.903  20.226  0.00  0.00    +0.000 A 
ATOM     15  C   UNL     1      -2.961  12.590  20.000  0.00  0.00    +0.000 A 
ATOM     16  C   UNL     1      -2.558  11.589  19.084  0.00  0.00    +0.000 A 
ENDBRANCH   6   7
BRANCH   5  17
ATOM     17  S   UNL     1      -0.056   8.542  21.040  0.00  0.00    +0.000 S 
BRANCH  17  18
ATOM     18  C   UNL     1       1.608   7.827  21.166  0.00  0.00    +0.000 C 
BRANCH  18  19
ATOM     19  C   UNL     1       2.214   7.325  19.854  0.00  0.00    +0.000 C 
ATOM     20  O   UNL     1       2.137   7.970  18.814  0.00  0.00    +0.000 OA
ATOM     21  N   UNL     1       2.874   6.116  19.988  0.00  0.00    +0.000 N 
ATOM     22  H   UNL     1       2.447   5.457  20.638  0.00  0.00    +0.000 HD
BRANCH  21  23
ATOM     23  C   UNL     1       3.752   5.550  19.030  0.00  0.00    +0.000 A 
ATOM     24  C   UNL     1       5.131   5.800  19.052  0.00  0.00    +0.000 A 
ATOM     25  C   UNL     1       5.983   5.156  18.142  0.00  0.00    +0.000 A 
ATOM     26  C   UNL     1       5.465   4.284  17.187  0.00  0.00    +0.000 A 
ATOM     27  C   UNL     1       4.096   4.036  17.151  0.00  0.00    +0.000 A 
ATOM     28  C   UNL     1       3.250   4.646  18.081  0.00  0.00    +0.000 A 
ATOM     29 BR   UNL     1       1.398   4.254  17.958  0.00  0.00    +0.000 Br
ENDBRANCH  21  23
ENDBRANCH  18  19
ENDBRANCH  17  18
ENDBRANCH   5  17
TORSDOF 5
ENDMDL
MODEL 4
REMARK VINA RESULT:      -7.9      1.585      1.969
REMARK  Name = 
REMARK  6 active torsions:
REMARK  status: ('A' for Active; 'I' for Inactive)
REMARK    1  A    between atoms: C_1  and  C_2
REMARK    2  A    between atoms: C_5  and  S_6
REMARK    3  A    between atoms: S_6  and  C_7
REMARK    4  A    between atoms: C_7  and  C_8
REMARK    5  A    between atoms: N_10  and  C_11
REMARK    6  A    between atoms: N_18  and  C_19
REMARK                            x       y       z     vdW  Elec       q    Type
REMARK                         _______ _______ _______ _____ _____    ______ ____
ROOT
ATOM      1  C   UNL     1       3.881   1.531  18.270  0.00  0.00    +0.000 C 
ATOM      2  C   UNL     1       3.043   2.750  18.430  0.00  0.00    +0.000 A 
ATOM      3  N   UNL     1       1.752   2.679  18.682  0.00  0.00    +0.000 NA
ATOM      4  N   UNL     1       1.254   3.936  18.790  0.00  0.00    +0.000 NA
ATOM      5  C   UNL     1       2.237   4.777  18.568  0.00  0.00    +0.000 A 
ATOM      6  N   UNL     1       3.454   4.096  18.404  0.00  0.00    +0.000 N 
ENDROOT
BRANCH   6   7
ATOM      7  C   UNL     1       4.797   4.603  18.197  0.00  0.00    +0.000 A 
ATOM      8  C   UNL     1       5.561   4.963  19.327  0.00  0.00    +0.000 A 
ATOM      9  C   UNL     1       6.888   5.372  19.216  0.00  0.00    +0.000 A 
ATOM     10  C   UNL     1       7.517   5.333  17.983  0.00  0.00    +0.000 A 
ATOM     11  C   UNL     1       6.813   4.950  16.838  0.00  0.00    +0.000 A 
ATOM     12  C   UNL     1       7.509   4.828  15.627  0.00  0.00    +0.000 A 
ATOM     13  C   UNL     1       6.852   4.479  14.453  0.00  0.00    +0.000 A 
ATOM     14  C   UNL     1       5.472   4.391  14.460  0.00  0.00    +0.000 A 
ATOM     15  C   UNL     1       4.769   4.574  15.654  0.00  0.00    +0.000 A 
ATOM     16  C   UNL     1       5.417   4.687  16.907  0.00  0.00    +0.000 A 
ENDBRANCH   6   7
BRANCH   5  17
ATOM     17  S   UNL     1       1.909   6.457  18.255  0.00  0.00    +0.000 S 
BRANCH  17  18
ATOM     18  C   UNL     1       2.347   7.278  19.813  0.00  0.00    +0.000 C 
BRANCH  18  19
ATOM     19  C   UNL     1       1.297   8.240  20.373  0.00  0.00    +0.000 C 
ATOM     20  O   UNL     1       0.768   8.060  21.464  0.00  0.00    +0.000 OA
ATOM     21  N   UNL     1       1.056   9.322  19.545  0.00  0.00    +0.000 N 
ATOM     22  H   UNL     1       1.082   9.120  18.546  0.00  0.00    +0.000 HD
BRANCH  21  23
ATOM     23  C   UNL     1       0.355  10.497  19.914  0.00  0.00    +0.000 A 
ATOM     24  C   UNL     1       0.734  11.267  21.022  0.00  0.00    +0.000 A 
ATOM     25  C   UNL     1       0.072  12.471  21.309  0.00  0.00    +0.000 A 
ATOM     26  C   UNL     1      -0.991  12.898  20.514  0.00  0.00    +0.000 A 
ATOM     27  C   UNL     1      -1.381  12.136  19.418  0.00  0.00    +0.000 A 
ATOM     28  C   UNL     1      -0.698  10.956  19.107  0.00  0.00    +0.000 A 
ATOM     29 BR   UNL     1      -1.299   9.978  17.597  0.00  0.00    +0.000 Br
ENDBRANCH  21  23
ENDBRANCH  18  19
ENDBRANCH  17  18
ENDBRANCH   5  17
TORSDOF 5
ENDMDL
MODEL 5
REMARK VINA RESULT:      -7.9      1.765      2.073
REMARK  Name = 
REMARK  6 active torsions:
REMARK  status: ('A' for Active; 'I' for Inactive)
REMARK    1  A    between atoms: C_1  and  C_2
REMARK    2  A    between atoms: C_5  and  S_6
REMARK    3  A    between atoms: S_6  and  C_7
REMARK    4  A    between atoms: C_7  and  C_8
REMARK    5  A    between atoms: N_10  and  C_11
REMARK    6  A    between atoms: N_18  and  C_19
REMARK                            x       y       z     vdW  Elec       q    Type
REMARK                         _______ _______ _______ _____ _____    ______ ____
ROOT
ATOM      1  C   UNL     1       4.035   2.043  19.375  0.00  0.00    +0.000 C 
ATOM      2  C   UNL     1       3.334   3.337  19.592  0.00  0.00    +0.000 A 
ATOM      3  N   UNL     1       2.141   3.398  20.148  0.00  0.00    +0.000 NA
ATOM      4  N   UNL     1       1.759   4.697  20.231  0.00  0.00    +0.000 NA
ATOM      5  C   UNL     1       2.706   5.429  19.691  0.00  0.00    +0.000 A 
ATOM      6  N   UNL     1       3.804   4.636  19.322  0.00  0.00    +0.000 N 
ENDROOT
BRANCH   6   7
ATOM      7  C   UNL     1       5.084   5.007  18.749  0.00  0.00    +0.000 A 
ATOM      8  C   UNL     1       6.102   5.460  19.614  0.00  0.00    +0.000 A 
ATOM      9  C   UNL     1       7.384   5.749  19.153  0.00  0.00    +0.000 A 
ATOM     10  C   UNL     1       7.711   5.495  17.832  0.00  0.00    +0.000 A 
ATOM     11  C   UNL     1       6.747   5.013  16.942  0.00  0.00    +0.000 A 
ATOM     12  C   UNL     1       7.140   4.675  15.638  0.00  0.00    +0.000 A 
ATOM     13  C   UNL     1       6.217   4.221  14.705  0.00  0.00    +0.000 A 
ATOM     14  C   UNL     1       4.872   4.238  15.030  0.00  0.00    +0.000 A 
ATOM     15  C   UNL     1       4.471   4.634  16.309  0.00  0.00    +0.000 A 
ATOM     16  C   UNL     1       5.394   4.868  17.356  0.00  0.00    +0.000 A 
ENDBRANCH   6   7
BRANCH   5  17
ATOM     17  S   UNL     1       2.411   7.093  19.281  0.00  0.00    +0.000 S 
BRANCH  17  18
ATOM     18  C   UNL     1       1.633   7.773  20.773  0.00  0.00    +0.000 C 
BRANCH  18  19
ATOM     19  C   UNL     1       0.727   8.986  20.554  0.00  0.00    +0.000 C 
ATOM     20  O   UNL     1      -0.271   9.184  21.239  0.00  0.00    +0.000 OA
ATOM     21  N   UNL     1       1.177   9.825  19.550  0.00  0.00    +0.000 N 
ATOM     22  H   UNL     1       1.607   9.358  18.752  0.00  0.00    +0.000 HD
BRANCH  21  23
ATOM     23  C   UNL     1       0.709  11.142  19.311  0.00  0.00    +0.000 A 
ATOM     24  C   UNL     1       1.358  12.265  19.840  0.00  0.00    +0.000 A 
ATOM     25  C   UNL     1       0.920  13.558  19.513  0.00  0.00    +0.000 A 
ATOM     26  C   UNL     1      -0.185  13.739  18.683  0.00  0.00    +0.000 A 
ATOM     27  C   UNL     1      -0.842  12.629  18.160  0.00  0.00    +0.000 A 
ATOM     28  C   UNL     1      -0.384  11.341  18.453  0.00  0.00    +0.000 A 
ATOM     29 BR   UNL     1      -1.342   9.888  17.700  0.00  0.00    +0.000 Br
ENDBRANCH  21  23
ENDBRANCH  18  19
ENDBRANCH  17  18
ENDBRANCH   5  17
TORSDOF 5
ENDMDL
MODEL 6
REMARK VINA RESULT:      -7.9      1.824      3.182
REMARK  Name = 
REMARK  6 active torsions:
REMARK  status: ('A' for Active; 'I' for Inactive)
REMARK    1  A    between atoms: C_1  and  C_2
REMARK    2  A    between atoms: C_5  and  S_6
REMARK    3  A    between atoms: S_6  and  C_7
REMARK    4  A    between atoms: C_7  and  C_8
REMARK    5  A    between atoms: N_10  and  C_11
REMARK    6  A    between atoms: N_18  and  C_19
REMARK                            x       y       z     vdW  Elec       q    Type
REMARK                         _______ _______ _______ _____ _____    ______ ____
ROOT
ATOM      1  C   UNL     1       1.880   3.969  20.887  0.00  0.00    +0.000 C 
ATOM      2  C   UNL     1       2.020   5.357  20.371  0.00  0.00    +0.000 A 
ATOM      3  N   UNL     1       1.450   6.383  20.971  0.00  0.00    +0.000 NA
ATOM      4  N   UNL     1       1.758   7.517  20.292  0.00  0.00    +0.000 NA
ATOM      5  C   UNL     1       2.488   7.178  19.255  0.00  0.00    +0.000 A 
ATOM      6  N   UNL     1       2.775   5.803  19.271  0.00  0.00    +0.000 N 
ENDROOT
BRANCH   6   7
ATOM      7  C   UNL     1       3.583   5.000  18.373  0.00  0.00    +0.000 A 
ATOM      8  C   UNL     1       2.932   4.258  17.365  0.00  0.00    +0.000 A 
ATOM      9  C   UNL     1       3.643   3.535  16.410  0.00  0.00    +0.000 A 
ATOM     10  C   UNL     1       5.025   3.618  16.376  0.00  0.00    +0.000 A 
ATOM     11  C   UNL     1       5.715   4.368  17.332  0.00  0.00    +0.000 A 
ATOM     12  C   UNL     1       7.105   4.508  17.205  0.00  0.00    +0.000 A 
ATOM     13  C   UNL     1       7.844   5.217  18.144  0.00  0.00    +0.000 A 
ATOM     14  C   UNL     1       7.213   5.668  19.290  0.00  0.00    +0.000 A 
ATOM     15  C   UNL     1       5.838   5.476  19.448  0.00  0.00    +0.000 A 
ATOM     16  C   UNL     1       5.016   4.978  18.410  0.00  0.00    +0.000 A 
ENDBRANCH   6   7
BRANCH   5  17
ATOM     17  S   UNL     1       2.757   8.305  17.957  0.00  0.00    +0.000 S 
BRANCH  17  18
ATOM     18  C   UNL     1       1.167   9.167  17.800  0.00  0.00    +0.000 C 
BRANCH  18  19
ATOM     19  C   UNL     1       0.924  10.297  18.802  0.00  0.00    +0.000 C 
ATOM     20  O   UNL     1       1.587  11.328  18.792  0.00  0.00    +0.000 OA
ATOM     21  N   UNL     1      -0.126  10.039  19.666  0.00  0.00    +0.000 N 
ATOM     22  H   UNL     1      -0.221   9.068  19.959  0.00  0.00    +0.000 HD
BRANCH  21  23
ATOM     23  C   UNL     1      -0.752  10.996  20.504  0.00  0.00    +0.000 A 
ATOM     24  C   UNL     1      -0.342  11.200  21.828  0.00  0.00    +0.000 A 
ATOM     25  C   UNL     1      -0.925  12.214  22.604  0.00  0.00    +0.000 A 
ATOM     26  C   UNL     1      -1.940  13.011  22.075  0.00  0.00    +0.000 A 
ATOM     27  C   UNL     1      -2.360  12.810  20.764  0.00  0.00    +0.000 A 
ATOM     28  C   UNL     1      -1.754  11.826  19.977  0.00  0.00    +0.000 A 
ATOM     29 BR   UNL     1      -2.392  11.619  18.203  0.00  0.00    +0.000 Br
ENDBRANCH  21  23
ENDBRANCH  18  19
ENDBRANCH  17  18
ENDBRANCH   5  17
TORSDOF 5
ENDMDL
MODEL 7
REMARK VINA RESULT:      -7.9      1.991      2.284
REMARK  Name = 
REMARK  6 active torsions:
REMARK  status: ('A' for Active; 'I' for Inactive)
REMARK    1  A    between atoms: C_1  and  C_2
REMARK    2  A    between atoms: C_5  and  S_6
REMARK    3  A    between atoms: S_6  and  C_7
REMARK    4  A    between atoms: C_7  and  C_8
REMARK    5  A    between atoms: N_10  and  C_11
REMARK    6  A    between atoms: N_18  and  C_19
REMARK                            x       y       z     vdW  Elec       q    Type
REMARK                         _______ _______ _______ _____ _____    ______ ____
ROOT
ATOM      1  C   UNL     1       3.735   2.048  18.920  0.00  0.00    +0.000 C 
ATOM      2  C   UNL     1       3.084   3.365  19.157  0.00  0.00    +0.000 A 
ATOM      3  N   UNL     1       1.849   3.459  19.606  0.00  0.00    +0.000 NA
ATOM      4  N   UNL     1       1.528   4.770  19.738  0.00  0.00    +0.000 NA
ATOM      5  C   UNL     1       2.556   5.479  19.334  0.00  0.00    +0.000 A 
ATOM      6  N   UNL     1       3.642   4.648  19.014  0.00  0.00    +0.000 N 
ENDROOT
BRANCH   6   7
ATOM      7  C   UNL     1       4.987   4.981  18.583  0.00  0.00    +0.000 A 
ATOM      8  C   UNL     1       5.932   5.360  19.560  0.00  0.00    +0.000 A 
ATOM      9  C   UNL     1       7.264   5.606  19.237  0.00  0.00    +0.000 A 
ATOM     10  C   UNL     1       7.710   5.379  17.946  0.00  0.00    +0.000 A 
ATOM     11  C   UNL     1       6.820   4.970  16.949  0.00  0.00    +0.000 A 
ATOM     12  C   UNL     1       7.328   4.656  15.679  0.00  0.00    +0.000 A 
ATOM     13  C   UNL     1       6.484   4.272  14.644  0.00  0.00    +0.000 A 
ATOM     14  C   UNL     1       5.116   4.340  14.836  0.00  0.00    +0.000 A 
ATOM     15  C   UNL     1       4.606   4.712  16.083  0.00  0.00    +0.000 A 
ATOM     16  C   UNL     1       5.428   4.872  17.223  0.00  0.00    +0.000 A 
ENDBRANCH   6   7
BRANCH   5  17
ATOM     17  S   UNL     1       2.386   7.178  19.006  0.00  0.00    +0.000 S 
BRANCH  17  18
ATOM     18  C   UNL     1       1.825   7.867  20.590  0.00  0.00    +0.000 C 
BRANCH  18  19
ATOM     19  C   UNL     1       0.912   9.091  20.494  0.00  0.00    +0.000 C 
ATOM     20  O   UNL     1       0.222   9.310  19.504  0.00  0.00    +0.000 OA
ATOM     21  N   UNL     1       0.928   9.870  21.637  0.00  0.00    +0.000 N 
ATOM     22  H   UNL     1       1.832   9.944  22.102  0.00  0.00    +0.000 HD
BRANCH  21  23
ATOM     23  C   UNL     1      -0.004  10.894  21.944  0.00  0.00    +0.000 A 
ATOM     24  C   UNL     1      -1.085  10.674  22.809  0.00  0.00    +0.000 A 
ATOM     25  C   UNL     1      -1.939  11.732  23.160  0.00  0.00    +0.000 A 
ATOM     26  C   UNL     1      -1.740  13.005  22.628  0.00  0.00    +0.000 A 
ATOM     27  C   UNL     1      -0.676  13.230  21.761  0.00  0.00    +0.000 A 
ATOM     28  C   UNL     1       0.199  12.188  21.440  0.00  0.00    +0.000 A 
ATOM     29 BR   UNL     1       1.621  12.584  20.249  0.00  0.00    +0.000 Br
ENDBRANCH  21  23
ENDBRANCH  18  19
ENDBRANCH  17  18
ENDBRANCH   5  17
TORSDOF 5
ENDMDL
MODEL 8
REMARK VINA RESULT:      -7.8      1.965      2.262
REMARK  Name = 
REMARK  6 active torsions:
REMARK  status: ('A' for Active; 'I' for Inactive)
REMARK    1  A    between atoms: C_1  and  C_2
REMARK    2  A    between atoms: C_5  and  S_6
REMARK    3  A    between atoms: S_6  and  C_7
REMARK    4  A    between atoms: C_7  and  C_8
REMARK    5  A    between atoms: N_10  and  C_11
REMARK    6  A    between atoms: N_18  and  C_19
REMARK                            x       y       z     vdW  Elec       q    Type
REMARK                         _______ _______ _______ _____ _____    ______ ____
ROOT
ATOM      1  C   UNL     1       3.797   1.552  18.417  0.00  0.00    +0.000 C 
ATOM      2  C   UNL     1       2.971   2.788  18.468  0.00  0.00    +0.000 A 
ATOM      3  N   UNL     1       1.672   2.748  18.687  0.00  0.00    +0.000 NA
ATOM      4  N   UNL     1       1.188   4.016  18.693  0.00  0.00    +0.000 NA
ATOM      5  C   UNL     1       2.187   4.829  18.442  0.00  0.00    +0.000 A 
ATOM      6  N   UNL     1       3.399   4.124  18.361  0.00  0.00    +0.000 N 
ENDROOT
BRANCH   6   7
ATOM      7  C   UNL     1       4.755   4.601  18.159  0.00  0.00    +0.000 A 
ATOM      8  C   UNL     1       5.514   4.970  19.289  0.00  0.00    +0.000 A 
ATOM      9  C   UNL     1       6.849   5.351  19.185  0.00  0.00    +0.000 A 
ATOM     10  C   UNL     1       7.491   5.275  17.960  0.00  0.00    +0.000 A 
ATOM     11  C   UNL     1       6.791   4.882  16.816  0.00  0.00    +0.000 A 
ATOM     12  C   UNL     1       7.498   4.722  15.615  0.00  0.00    +0.000 A 
ATOM     13  C   UNL     1       6.847   4.362  14.441  0.00  0.00    +0.000 A 
ATOM     14  C   UNL     1       5.465   4.301  14.434  0.00  0.00    +0.000 A 
ATOM     15  C   UNL     1       4.753   4.521  15.617  0.00  0.00    +0.000 A 
ATOM     16  C   UNL     1       5.389   4.647  16.874  0.00  0.00    +0.000 A 
ENDBRANCH   6   7
BRANCH   5  17
ATOM     17  S   UNL     1       1.890   6.486  18.004  0.00  0.00    +0.000 S 
BRANCH  17  18
ATOM     18  C   UNL     1       2.566   7.428  19.400  0.00  0.00    +0.000 C 
BRANCH  18  19
ATOM     19  C   UNL     1       1.543   7.915  20.428  0.00  0.00    +0.000 C 
ATOM     20  O   UNL     1       1.227   7.239  21.400  0.00  0.00    +0.000 OA
ATOM     21  N   UNL     1       1.066   9.186  20.158  0.00  0.00    +0.000 N 
ATOM     22  H   UNL     1       0.940   9.403  19.170  0.00  0.00    +0.000 HD
BRANCH  21  23
ATOM     23  C   UNL     1       0.333   9.995  21.062  0.00  0.00    +0.000 A 
ATOM     24  C   UNL     1      -0.309   9.456  22.184  0.00  0.00    +0.000 A 
ATOM     25  C   UNL     1      -0.953  10.297  23.105  0.00  0.00    +0.000 A 
ATOM     26  C   UNL     1      -0.989  11.675  22.897  0.00  0.00    +0.000 A 
ATOM     27  C   UNL     1      -0.363  12.219  21.780  0.00  0.00    +0.000 A 
ATOM     28  C   UNL     1       0.313  11.387  20.882  0.00  0.00    +0.000 A 
ATOM     29 BR   UNL     1       1.136  12.213  19.386  0.00  0.00    +0.000 Br
ENDBRANCH  21  23
ENDBRANCH  18  19
ENDBRANCH  17  18
ENDBRANCH   5  17
TORSDOF 5
ENDMDL
MODEL 9
REMARK VINA RESULT:      -7.8      2.041      3.398
REMARK  Name = 
REMARK  6 active torsions:
REMARK  status: ('A' for Active; 'I' for Inactive)
REMARK    1  A    between atoms: C_1  and  C_2
REMARK    2  A    between atoms: C_5  and  S_6
REMARK    3  A    between atoms: S_6  and  C_7
REMARK    4  A    between atoms: C_7  and  C_8
REMARK    5  A    between atoms: N_10  and  C_11
REMARK    6  A    between atoms: N_18  and  C_19
REMARK                            x       y       z     vdW  Elec       q    Type
REMARK                         _______ _______ _______ _____ _____    ______ ____
ROOT
ATOM      1  C   UNL     1       1.975   4.512  21.289  0.00  0.00    +0.000 C 
ATOM      2  C   UNL     1       2.047   5.811  20.568  0.00  0.00    +0.000 A 
ATOM      3  N   UNL     1       1.559   6.921  21.085  0.00  0.00    +0.000 NA
ATOM      4  N   UNL     1       1.776   7.942  20.218  0.00  0.00    +0.000 NA
ATOM      5  C   UNL     1       2.366   7.448  19.155  0.00  0.00    +0.000 A 
ATOM      6  N   UNL     1       2.653   6.085  19.328  0.00  0.00    +0.000 N 
ENDROOT
BRANCH   6   7
ATOM      7  C   UNL     1       3.338   5.148  18.457  0.00  0.00    +0.000 A 
ATOM      8  C   UNL     1       2.563   4.319  17.619  0.00  0.00    +0.000 A 
ATOM      9  C   UNL     1       3.148   3.461  16.691  0.00  0.00    +0.000 A 
ATOM     10  C   UNL     1       4.520   3.483  16.505  0.00  0.00    +0.000 A 
ATOM     11  C   UNL     1       5.329   4.312  17.287  0.00  0.00    +0.000 A 
ATOM     12  C   UNL     1       6.701   4.380  17.002  0.00  0.00    +0.000 A 
ATOM     13  C   UNL     1       7.555   5.165  17.767  0.00  0.00    +0.000 A 
ATOM     14  C   UNL     1       7.063   5.773  18.908  0.00  0.00    +0.000 A 
ATOM     15  C   UNL     1       5.707   5.657  19.229  0.00  0.00    +0.000 A 
ATOM     16  C   UNL     1       4.766   5.074  18.349  0.00  0.00    +0.000 A 
ENDBRANCH   6   7
BRANCH   5  17
ATOM     17  S   UNL     1       2.465   8.377  17.687  0.00  0.00    +0.000 S 
BRANCH  17  18
ATOM     18  C   UNL     1       2.200  10.085  18.241  0.00  0.00    +0.000 C 
BRANCH  18  19
ATOM     19  C   UNL     1       0.858  10.361  18.921  0.00  0.00    +0.000 C 
ATOM     20  O   UNL     1      -0.203   9.965  18.450  0.00  0.00    +0.000 OA
ATOM     21  N   UNL     1       0.986  11.051  20.114  0.00  0.00    +0.000 N 
ATOM     22  H   UNL     1       1.722  11.757  20.132  0.00  0.00    +0.000 HD
BRANCH  21  23
ATOM     23  C   UNL     1      -0.034  11.205  21.086  0.00  0.00    +0.000 A 
ATOM     24  C   UNL     1      -0.132  10.355  22.196  0.00  0.00    +0.000 A 
ATOM     25  C   UNL     1      -1.101  10.588  23.184  0.00  0.00    +0.000 A 
ATOM     26  C   UNL     1      -1.997  11.648  23.058  0.00  0.00    +0.000 A 
ATOM     27  C   UNL     1      -1.914  12.492  21.954  0.00  0.00    +0.000 A 
ATOM     28  C   UNL     1      -0.925  12.285  20.988  0.00  0.00    +0.000 A 
ATOM     29 BR   UNL     1      -0.887  13.481  19.517  0.00  0.00    +0.000 Br
ENDBRANCH  21  23
ENDBRANCH  18  19
ENDBRANCH  17  18
ENDBRANCH   5  17
TORSDOF 5
ENDMDL
