MODEL 1
REMARK VINA RESULT:      -8.3      0.000      0.000
REMARK  Name = 
REMARK  7 active torsions:
REMARK  status: ('A' for Active; 'I' for Inactive)
REMARK    1  A    between atoms: C_1  and  C_2
REMARK    2  A    between atoms: C_4  and  C_5
REMARK    3  A    between atoms: C_7  and  N_8
REMARK    4  A    between atoms: N_8  and  C_9
REMARK    5  A    between atoms: C_9  and  C_10
REMARK    6  A    between atoms: C_17  and  C_18
REMARK    7  A    between atoms: C_19  and  O_20
REMARK                            x       y       z     vdW  Elec       q    Type
REMARK                         _______ _______ _______ _____ _____    ______ ____
ROOT
ATOM      1  C   UNL     1       3.310   3.476  19.446  0.00  0.00    +0.000 A 
ATOM      2  C   UNL     1       2.927   2.678  20.456  0.00  0.00    +0.000 A 
ATOM      3  C   UNL     1       1.971   3.075  21.497  0.00  0.00    +0.000 A 
ATOM      4  O   UNL     1       1.625   2.284  22.367  0.00  0.00    +0.000 OA
ATOM      5  O   UNL     1       1.532   4.386  21.471  0.00  0.00    +0.000 OA
ATOM      6  C   UNL     1       1.939   5.265  20.450  0.00  0.00    +0.000 A 
ATOM      7  C   UNL     1       1.506   6.590  20.575  0.00  0.00    +0.000 A 
ATOM      8  C   UNL     1       1.899   7.543  19.634  0.00  0.00    +0.000 A 
ATOM      9  C   UNL     1       1.531   8.986  19.825  0.00  0.00    +0.000 C 
ATOM     10  C   UNL     1       2.665   7.107  18.544  0.00  0.00    +0.000 A 
ATOM     11  C   UNL     1       3.046   5.767  18.398  0.00  0.00    +0.000 A 
ATOM     12  C   UNL     1       2.749   4.836  19.395  0.00  0.00    +0.000 A 
ENDROOT
BRANCH  10  13
ATOM     13  O   UNL     1       3.130   7.965  17.588  0.00  0.00    +0.000 OA
ATOM     14  H   UNL     1       4.030   7.697  17.341  0.00  0.00    +0.000 HD
ENDBRANCH  10  13
BRANCH   1  15
ATOM     15  C   UNL     1       4.429   3.039  18.526  0.00  0.00    +0.000 C 
BRANCH  15  16
ATOM     16  N   UNL     1       5.666   3.709  18.902  0.00  0.00    +0.000 N 
ATOM     17  H   UNL     1       6.328   3.087  19.359  0.00  0.00    +0.000 HD
BRANCH  16  24
ATOM     18  C   UNL     1       7.888   8.003  17.893  0.00  0.00    +0.000 C 
ATOM     19  C   UNL     1       7.347   6.690  17.416  0.00  0.00    +0.000 A 
ATOM     20  C   UNL     1       7.358   6.356  16.061  0.00  0.00    +0.000 A 
ATOM     21  C   UNL     1       6.833   5.136  15.630  0.00  0.00    +0.000 A 
ATOM     22  C   UNL     1       6.823   4.770  14.174  0.00  0.00    +0.000 C 
ATOM     23  C   UNL     1       6.298   4.246  16.577  0.00  0.00    +0.000 A 
ATOM     24  C   UNL     1       6.287   4.532  17.944  0.00  0.00    +0.000 A 
ATOM     25  C   UNL     1       6.804   5.777  18.342  0.00  0.00    +0.000 A 
ENDBRANCH  16  24
ENDBRANCH  15  16
ENDBRANCH   1  15
TORSDOF 4
ENDMDL
MODEL 2
REMARK VINA RESULT:      -8.2      0.094      1.796
REMARK  Name = 
REMARK  7 active torsions:
REMARK  status: ('A' for Active; 'I' for Inactive)
REMARK    1  A    between atoms: C_1  and  C_2
REMARK    2  A    between atoms: C_4  and  C_5
REMARK    3  A    between atoms: C_7  and  N_8
REMARK    4  A    between atoms: N_8  and  C_9
REMARK    5  A    between atoms: C_9  and  C_10
REMARK    6  A    between atoms: C_17  and  C_18
REMARK    7  A    between atoms: C_19  and  O_20
REMARK                            x       y       z     vdW  Elec       q    Type
REMARK                         _______ _______ _______ _____ _____    ______ ____
ROOT
ATOM      1  C   UNL     1       3.231   3.433  19.399  0.00  0.00    +0.000 A 
ATOM      2  C   UNL     1       2.863   2.649  20.425  0.00  0.00    +0.000 A 
ATOM      3  C   UNL     1       1.945   3.071  21.491  0.00  0.00    +0.000 A 
ATOM      4  O   UNL     1       1.611   2.292  22.376  0.00  0.00    +0.000 OA
ATOM      5  O   UNL     1       1.530   4.390  21.470  0.00  0.00    +0.000 OA
ATOM      6  C   UNL     1       1.924   5.254  20.430  0.00  0.00    +0.000 A 
ATOM      7  C   UNL     1       1.520   6.589  20.559  0.00  0.00    +0.000 A 
ATOM      8  C   UNL     1       1.903   7.528  19.600  0.00  0.00    +0.000 A 
ATOM      9  C   UNL     1       1.568   8.979  19.792  0.00  0.00    +0.000 C 
ATOM     10  C   UNL     1       2.628   7.070  18.492  0.00  0.00    +0.000 A 
ATOM     11  C   UNL     1       2.980   5.723  18.344  0.00  0.00    +0.000 A 
ATOM     12  C   UNL     1       2.695   4.803  19.355  0.00  0.00    +0.000 A 
ENDROOT
BRANCH  10  13
ATOM     13  O   UNL     1       3.081   7.913  17.516  0.00  0.00    +0.000 OA
ATOM     14  H   UNL     1       3.322   8.760  17.925  0.00  0.00    +0.000 HD
ENDBRANCH  10  13
BRANCH   1  15
ATOM     15  C   UNL     1       4.313   2.969  18.449  0.00  0.00    +0.000 C 
BRANCH  15  16
ATOM     16  N   UNL     1       5.582   3.589  18.807  0.00  0.00    +0.000 N 
ATOM     17  H   UNL     1       6.280   2.914  19.106  0.00  0.00    +0.000 HD
BRANCH  16  24
ATOM     18  C   UNL     1       6.827   4.790  14.180  0.00  0.00    +0.000 C 
ATOM     19  C   UNL     1       6.790   5.141  15.636  0.00  0.00    +0.000 A 
ATOM     20  C   UNL     1       7.364   6.322  16.107  0.00  0.00    +0.000 A 
ATOM     21  C   UNL     1       7.338   6.627  17.470  0.00  0.00    +0.000 A 
ATOM     22  C   UNL     1       7.967   7.886  17.993  0.00  0.00    +0.000 C 
ATOM     23  C   UNL     1       6.720   5.732  18.361  0.00  0.00    +0.000 A 
ATOM     24  C   UNL     1       6.115   4.551  17.929  0.00  0.00    +0.000 A 
ATOM     25  C   UNL     1       6.178   4.264  16.555  0.00  0.00    +0.000 A 
ENDBRANCH  16  24
ENDBRANCH  15  16
ENDBRANCH   1  15
TORSDOF 4
ENDMDL
MODEL 3
REMARK VINA RESULT:      -8.1      1.929      4.714
REMARK  Name = 
REMARK  7 active torsions:
REMARK  status: ('A' for Active; 'I' for Inactive)
REMARK    1  A    between atoms: C_1  and  C_2
REMARK    2  A    between atoms: C_4  and  C_5
REMARK    3  A    between atoms: C_7  and  N_8
REMARK    4  A    between atoms: N_8  and  C_9
REMARK    5  A    between atoms: C_9  and  C_10
REMARK    6  A    between atoms: C_17  and  C_18
REMARK    7  A    between atoms: C_19  and  O_20
REMARK                            x       y       z     vdW  Elec       q    Type
REMARK                         _______ _______ _______ _____ _____    ______ ____
ROOT
ATOM      1  C   UNL     1       4.654   5.921  17.674  0.00  0.00    +0.000 A 
ATOM      2  C   UNL     1       4.097   7.072  17.265  0.00  0.00    +0.000 A 
ATOM      3  C   UNL     1       2.903   7.668  17.879  0.00  0.00    +0.000 A 
ATOM      4  O   UNL     1       2.470   8.747  17.491  0.00  0.00    +0.000 OA
ATOM      5  O   UNL     1       2.277   6.930  18.866  0.00  0.00    +0.000 OA
ATOM      6  C   UNL     1       2.809   5.700  19.297  0.00  0.00    +0.000 A 
ATOM      7  C   UNL     1       2.043   4.997  20.235  0.00  0.00    +0.000 A 
ATOM      8  C   UNL     1       2.469   3.747  20.686  0.00  0.00    +0.000 A 
ATOM      9  C   UNL     1       1.597   2.941  21.604  0.00  0.00    +0.000 C 
ATOM     10  C   UNL     1       3.705   3.273  20.224  0.00  0.00    +0.000 A 
ATOM     11  C   UNL     1       4.491   4.009  19.329  0.00  0.00    +0.000 A 
ATOM     12  C   UNL     1       4.015   5.208  18.791  0.00  0.00    +0.000 A 
ENDROOT
BRANCH  10  13
ATOM     13  O   UNL     1       4.195   2.047  20.577  0.00  0.00    +0.000 OA
ATOM     14  H   UNL     1       3.897   1.841  21.478  0.00  0.00    +0.000 HD
ENDBRANCH  10  13
BRANCH   1  15
ATOM     15  C   UNL     1       5.775   5.301  16.868  0.00  0.00    +0.000 C 
BRANCH  15  16
ATOM     16  N   UNL     1       5.223   4.400  15.866  0.00  0.00    +0.000 N 
ATOM     17  H   UNL     1       4.208   4.441  15.815  0.00  0.00    +0.000 HD
BRANCH  16  24
ATOM     18  C   UNL     1       5.490   2.311  11.398  0.00  0.00    +0.000 C 
ATOM     19  C   UNL     1       5.999   3.322  12.380  0.00  0.00    +0.000 A 
ATOM     20  C   UNL     1       7.093   4.134  12.076  0.00  0.00    +0.000 A 
ATOM     21  C   UNL     1       7.569   5.058  13.009  0.00  0.00    +0.000 A 
ATOM     22  C   UNL     1       8.755   5.925  12.702  0.00  0.00    +0.000 C 
ATOM     23  C   UNL     1       6.929   5.165  14.256  0.00  0.00    +0.000 A 
ATOM     24  C   UNL     1       5.819   4.388  14.591  0.00  0.00    +0.000 A 
ATOM     25  C   UNL     1       5.379   3.453  13.639  0.00  0.00    +0.000 A 
ENDBRANCH  16  24
ENDBRANCH  15  16
ENDBRANCH   1  15
TORSDOF 4
ENDMDL
MODEL 4
REMARK VINA RESULT:      -8.1      1.920      4.430
REMARK  Name = 
REMARK  7 active torsions:
REMARK  status: ('A' for Active; 'I' for Inactive)
REMARK    1  A    between atoms: C_1  and  C_2
REMARK    2  A    between atoms: C_4  and  C_5
REMARK    3  A    between atoms: C_7  and  N_8
REMARK    4  A    between atoms: N_8  and  C_9
REMARK    5  A    between atoms: C_9  and  C_10
REMARK    6  A    between atoms: C_17  and  C_18
REMARK    7  A    between atoms: C_19  and  O_20
REMARK                            x       y       z     vdW  Elec       q    Type
REMARK                         _______ _______ _______ _____ _____    ______ ____
ROOT
ATOM      1  C   UNL     1       4.612   6.140  17.618  0.00  0.00    +0.000 A 
ATOM      2  C   UNL     1       4.035   7.292  17.241  0.00  0.00    +0.000 A 
ATOM      3  C   UNL     1       2.830   7.849  17.869  0.00  0.00    +0.000 A 
ATOM      4  O   UNL     1       2.378   8.930  17.511  0.00  0.00    +0.000 OA
ATOM      5  O   UNL     1       2.216   7.073  18.835  0.00  0.00    +0.000 OA
ATOM      6  C   UNL     1       2.770   5.841  19.232  0.00  0.00    +0.000 A 
ATOM      7  C   UNL     1       2.016   5.099  20.149  0.00  0.00    +0.000 A 
ATOM      8  C   UNL     1       2.464   3.844  20.565  0.00  0.00    +0.000 A 
ATOM      9  C   UNL     1       1.605   2.997  21.460  0.00  0.00    +0.000 C 
ATOM     10  C   UNL     1       3.708   3.406  20.093  0.00  0.00    +0.000 A 
ATOM     11  C   UNL     1       4.481   4.180  19.219  0.00  0.00    +0.000 A 
ATOM     12  C   UNL     1       3.985   5.384  18.715  0.00  0.00    +0.000 A 
ENDROOT
BRANCH  10  13
ATOM     13  O   UNL     1       4.220   2.179  20.412  0.00  0.00    +0.000 OA
ATOM     14  H   UNL     1       5.176   2.270  20.558  0.00  0.00    +0.000 HD
ENDBRANCH  10  13
BRANCH   1  15
ATOM     15  C   UNL     1       5.745   5.563  16.797  0.00  0.00    +0.000 C 
BRANCH  15  16
ATOM     16  N   UNL     1       5.241   4.496  15.943  0.00  0.00    +0.000 N 
ATOM     17  H   UNL     1       4.227   4.488  15.878  0.00  0.00    +0.000 HD
BRANCH  16  24
ATOM     18  C   UNL     1       8.746   5.898  12.758  0.00  0.00    +0.000 C 
ATOM     19  C   UNL     1       7.563   5.035  13.073  0.00  0.00    +0.000 A 
ATOM     20  C   UNL     1       7.029   4.168  12.118  0.00  0.00    +0.000 A 
ATOM     21  C   UNL     1       5.914   3.383  12.421  0.00  0.00    +0.000 A 
ATOM     22  C   UNL     1       5.319   2.459  11.398  0.00  0.00    +0.000 C 
ATOM     23  C   UNL     1       5.339   3.472  13.700  0.00  0.00    +0.000 A 
ATOM     24  C   UNL     1       5.855   4.310  14.691  0.00  0.00    +0.000 A 
ATOM     25  C   UNL     1       6.965   5.101  14.347  0.00  0.00    +0.000 A 
ENDBRANCH  16  24
ENDBRANCH  15  16
ENDBRANCH   1  15
TORSDOF 4
ENDMDL
MODEL 5
REMARK VINA RESULT:      -8.0      2.573      6.451
REMARK  Name = 
REMARK  7 active torsions:
REMARK  status: ('A' for Active; 'I' for Inactive)
REMARK    1  A    between atoms: C_1  and  C_2
REMARK    2  A    between atoms: C_4  and  C_5
REMARK    3  A    between atoms: C_7  and  N_8
REMARK    4  A    between atoms: N_8  and  C_9
REMARK    5  A    between atoms: C_9  and  C_10
REMARK    6  A    between atoms: C_17  and  C_18
REMARK    7  A    between atoms: C_19  and  O_20
REMARK                            x       y       z     vdW  Elec       q    Type
REMARK                         _______ _______ _______ _____ _____    ______ ____
ROOT
ATOM      1  C   UNL     1       2.886   5.454  18.915  0.00  0.00    +0.000 A 
ATOM      2  C   UNL     1       1.898   4.545  18.918  0.00  0.00    +0.000 A 
ATOM      3  C   UNL     1       1.879   3.352  18.061  0.00  0.00    +0.000 A 
ATOM      4  O   UNL     1       0.971   2.533  18.145  0.00  0.00    +0.000 OA
ATOM      5  O   UNL     1       2.899   3.234  17.135  0.00  0.00    +0.000 OA
ATOM      6  C   UNL     1       3.934   4.187  17.075  0.00  0.00    +0.000 A 
ATOM      7  C   UNL     1       4.861   4.018  16.040  0.00  0.00    +0.000 A 
ATOM      8  C   UNL     1       5.896   4.939  15.874  0.00  0.00    +0.000 A 
ATOM      9  C   UNL     1       6.824   4.825  14.699  0.00  0.00    +0.000 C 
ATOM     10  C   UNL     1       6.005   5.974  16.813  0.00  0.00    +0.000 A 
ATOM     11  C   UNL     1       5.105   6.103  17.878  0.00  0.00    +0.000 A 
ATOM     12  C   UNL     1       4.005   5.248  17.981  0.00  0.00    +0.000 A 
ENDROOT
BRANCH  10  13
ATOM     13  O   UNL     1       6.960   6.947  16.720  0.00  0.00    +0.000 OA
ATOM     14  H   UNL     1       7.110   7.320  17.604  0.00  0.00    +0.000 HD
ENDBRANCH  10  13
BRANCH   1  15
ATOM     15  C   UNL     1       2.731   6.735  19.704  0.00  0.00    +0.000 C 
BRANCH  15  16
ATOM     16  N   UNL     1       2.191   7.781  18.847  0.00  0.00    +0.000 N 
ATOM     17  H   UNL     1       1.800   7.419  17.981  0.00  0.00    +0.000 HD
BRANCH  16  24
ATOM     18  C   UNL     1      -0.118   9.403  22.901  0.00  0.00    +0.000 C 
ATOM     19  C   UNL     1       0.165   9.544  21.436  0.00  0.00    +0.000 A 
ATOM     20  C   UNL     1      -0.458  10.533  20.674  0.00  0.00    +0.000 A 
ATOM     21  C   UNL     1      -0.199  10.641  19.306  0.00  0.00    +0.000 A 
ATOM     22  C   UNL     1      -0.875  11.688  18.470  0.00  0.00    +0.000 C 
ATOM     23  C   UNL     1       0.703   9.744  18.706  0.00  0.00    +0.000 A 
ATOM     24  C   UNL     1       1.364   8.755  19.437  0.00  0.00    +0.000 A 
ATOM     25  C   UNL     1       1.065   8.661  20.806  0.00  0.00    +0.000 A 
ENDBRANCH  16  24
ENDBRANCH  15  16
ENDBRANCH   1  15
TORSDOF 4
ENDMDL
MODEL 6
REMARK VINA RESULT:      -7.9      2.559      6.607
REMARK  Name = 
REMARK  7 active torsions:
REMARK  status: ('A' for Active; 'I' for Inactive)
REMARK    1  A    between atoms: C_1  and  C_2
REMARK    2  A    between atoms: C_4  and  C_5
REMARK    3  A    between atoms: C_7  and  N_8
REMARK    4  A    between atoms: N_8  and  C_9
REMARK    5  A    between atoms: C_9  and  C_10
REMARK    6  A    between atoms: C_17  and  C_18
REMARK    7  A    between atoms: C_19  and  O_20
REMARK                            x       y       z     vdW  Elec       q    Type
REMARK                         _______ _______ _______ _____ _____    ______ ____
ROOT
ATOM      1  C   UNL     1       3.031   6.071  19.233  0.00  0.00    +0.000 A 
ATOM      2  C   UNL     1       2.608   5.169  20.134  0.00  0.00    +0.000 A 
ATOM      3  C   UNL     1       3.000   3.754  20.123  0.00  0.00    +0.000 A 
ATOM      4  O   UNL     1       2.618   2.991  21.002  0.00  0.00    +0.000 OA
ATOM      5  O   UNL     1       3.769   3.329  19.055  0.00  0.00    +0.000 OA
ATOM      6  C   UNL     1       4.202   4.236  18.070  0.00  0.00    +0.000 A 
ATOM      7  C   UNL     1       4.896   3.680  16.989  0.00  0.00    +0.000 A 
ATOM      8  C   UNL     1       5.324   4.496  15.941  0.00  0.00    +0.000 A 
ATOM      9  C   UNL     1       5.967   3.889  14.728  0.00  0.00    +0.000 C 
ATOM     10  C   UNL     1       5.099   5.875  16.054  0.00  0.00    +0.000 A 
ATOM     11  C   UNL     1       4.453   6.429  17.167  0.00  0.00    +0.000 A 
ATOM     12  C   UNL     1       3.926   5.603  18.162  0.00  0.00    +0.000 A 
ENDROOT
BRANCH  10  13
ATOM     13  O   UNL     1       5.447   6.755  15.069  0.00  0.00    +0.000 OA
ATOM     14  H   UNL     1       5.765   7.574  15.483  0.00  0.00    +0.000 HD
ENDBRANCH  10  13
BRANCH   1  15
ATOM     15  C   UNL     1       2.435   7.461  19.224  0.00  0.00    +0.000 C 
BRANCH  15  16
ATOM     16  N   UNL     1       1.772   7.722  20.495  0.00  0.00    +0.000 N 
ATOM     17  H   UNL     1       2.386   7.591  21.294  0.00  0.00    +0.000 HD
BRANCH  16  24
ATOM     18  C   UNL     1      -1.100  10.578  23.321  0.00  0.00    +0.000 C 
ATOM     19  C   UNL     1      -0.479  10.295  21.987  0.00  0.00    +0.000 A 
ATOM     20  C   UNL     1      -0.755  11.098  20.879  0.00  0.00    +0.000 A 
ATOM     21  C   UNL     1      -0.183  10.811  19.638  0.00  0.00    +0.000 A 
ATOM     22  C   UNL     1      -0.484  11.655  18.434  0.00  0.00    +0.000 C 
ATOM     23  C   UNL     1       0.678   9.706  19.518  0.00  0.00    +0.000 A 
ATOM     24  C   UNL     1       0.997   8.891  20.606  0.00  0.00    +0.000 A 
ATOM     25  C   UNL     1       0.389   9.195  21.836  0.00  0.00    +0.000 A 
ENDBRANCH  16  24
ENDBRANCH  15  16
ENDBRANCH   1  15
TORSDOF 4
ENDMDL
MODEL 7
REMARK VINA RESULT:      -7.9      2.600      6.754
REMARK  Name = 
REMARK  7 active torsions:
REMARK  status: ('A' for Active; 'I' for Inactive)
REMARK    1  A    between atoms: C_1  and  C_2
REMARK    2  A    between atoms: C_4  and  C_5
REMARK    3  A    between atoms: C_7  and  N_8
REMARK    4  A    between atoms: N_8  and  C_9
REMARK    5  A    between atoms: C_9  and  C_10
REMARK    6  A    between atoms: C_17  and  C_18
REMARK    7  A    between atoms: C_19  and  O_20
REMARK                            x       y       z     vdW  Elec       q    Type
REMARK                         _______ _______ _______ _____ _____    ______ ____
ROOT
ATOM      1  C   UNL     1       2.637   6.021  19.325  0.00  0.00    +0.000 A 
ATOM      2  C   UNL     1       1.900   5.128  20.005  0.00  0.00    +0.000 A 
ATOM      3  C   UNL     1       2.001   3.674  19.825  0.00  0.00    +0.000 A 
ATOM      4  O   UNL     1       1.332   2.909  20.511  0.00  0.00    +0.000 OA
ATOM      5  O   UNL     1       2.838   3.228  18.819  0.00  0.00    +0.000 OA
ATOM      6  C   UNL     1       3.601   4.135  18.059  0.00  0.00    +0.000 A 
ATOM      7  C   UNL     1       4.343   3.580  17.010  0.00  0.00    +0.000 A 
ATOM      8  C   UNL     1       5.094   4.407  16.174  0.00  0.00    +0.000 A 
ATOM      9  C   UNL     1       5.800   3.830  14.980  0.00  0.00    +0.000 C 
ATOM     10  C   UNL     1       5.130   5.776  16.471  0.00  0.00    +0.000 A 
ATOM     11  C   UNL     1       4.429   6.314  17.558  0.00  0.00    +0.000 A 
ATOM     12  C   UNL     1       3.589   5.506  18.327  0.00  0.00    +0.000 A 
ENDROOT
BRANCH  10  13
ATOM     13  O   UNL     1       5.806   6.675  15.695  0.00  0.00    +0.000 OA
ATOM     14  H   UNL     1       5.162   7.175  15.167  0.00  0.00    +0.000 HD
ENDBRANCH  10  13
BRANCH   1  15
ATOM     15  C   UNL     1       2.337   7.498  19.454  0.00  0.00    +0.000 C 
BRANCH  15  16
ATOM     16  N   UNL     1       1.685   7.759  20.730  0.00  0.00    +0.000 N 
ATOM     17  H   UNL     1       2.329   7.730  21.516  0.00  0.00    +0.000 HD
BRANCH  16  24
ATOM     18  C   UNL     1      -0.280  11.708  18.507  0.00  0.00    +0.000 C 
ATOM     19  C   UNL     1      -0.144  10.853  19.730  0.00  0.00    +0.000 A 
ATOM     20  C   UNL     1      -0.780  11.197  20.924  0.00  0.00    +0.000 A 
ATOM     21  C   UNL     1      -0.628  10.401  22.061  0.00  0.00    +0.000 A 
ATOM     22  C   UNL     1      -1.292  10.768  23.356  0.00  0.00    +0.000 C 
ATOM     23  C   UNL     1       0.167   9.244  21.987  0.00  0.00    +0.000 A 
ATOM     24  C   UNL     1       0.802   8.852  20.807  0.00  0.00    +0.000 A 
ATOM     25  C   UNL     1       0.647   9.687  19.687  0.00  0.00    +0.000 A 
ENDBRANCH  16  24
ENDBRANCH  15  16
ENDBRANCH   1  15
TORSDOF 4
ENDMDL
MODEL 8
REMARK VINA RESULT:      -7.9      2.565      6.525
REMARK  Name = 
REMARK  7 active torsions:
REMARK  status: ('A' for Active; 'I' for Inactive)
REMARK    1  A    between atoms: C_1  and  C_2
REMARK    2  A    between atoms: C_4  and  C_5
REMARK    3  A    between atoms: C_7  and  N_8
REMARK    4  A    between atoms: N_8  and  C_9
REMARK    5  A    between atoms: C_9  and  C_10
REMARK    6  A    between atoms: C_17  and  C_18
REMARK    7  A    between atoms: C_19  and  O_20
REMARK                            x       y       z     vdW  Elec       q    Type
REMARK                         _______ _______ _______ _____ _____    ______ ____
ROOT
ATOM      1  C   UNL     1       2.900   5.377  18.961  0.00  0.00    +0.000 A 
ATOM      2  C   UNL     1       1.898   4.482  18.974  0.00  0.00    +0.000 A 
ATOM      3  C   UNL     1       1.836   3.309  18.093  0.00  0.00    +0.000 A 
ATOM      4  O   UNL     1       0.917   2.503  18.185  0.00  0.00    +0.000 OA
ATOM      5  O   UNL     1       2.826   3.197  17.134  0.00  0.00    +0.000 OA
ATOM      6  C   UNL     1       3.874   4.135  17.064  0.00  0.00    +0.000 A 
ATOM      7  C   UNL     1       4.768   3.974  15.999  0.00  0.00    +0.000 A 
ATOM      8  C   UNL     1       5.812   4.883  15.823  0.00  0.00    +0.000 A 
ATOM      9  C   UNL     1       6.704   4.781  14.619  0.00  0.00    +0.000 C 
ATOM     10  C   UNL     1       5.964   5.896  16.780  0.00  0.00    +0.000 A 
ATOM     11  C   UNL     1       5.098   6.015  17.874  0.00  0.00    +0.000 A 
ATOM     12  C   UNL     1       3.988   5.175  17.991  0.00  0.00    +0.000 A 
ENDROOT
BRANCH  10  13
ATOM     13  O   UNL     1       6.931   6.856  16.680  0.00  0.00    +0.000 OA
ATOM     14  H   UNL     1       6.974   7.158  15.758  0.00  0.00    +0.000 HD
ENDBRANCH  10  13
BRANCH   1  15
ATOM     15  C   UNL     1       2.788   6.642  19.782  0.00  0.00    +0.000 C 
BRANCH  15  16
ATOM     16  N   UNL     1       2.221   7.709  18.969  0.00  0.00    +0.000 N 
ATOM     17  H   UNL     1       1.884   7.382  18.067  0.00  0.00    +0.000 HD
BRANCH  16  24
ATOM     18  C   UNL     1      -0.685  11.680  18.535  0.00  0.00    +0.000 C 
ATOM     19  C   UNL     1      -0.093  10.605  19.394  0.00  0.00    +0.000 A 
ATOM     20  C   UNL     1      -0.343  10.561  20.767  0.00  0.00    +0.000 A 
ATOM     21  C   UNL     1       0.231   9.564  21.558  0.00  0.00    +0.000 A 
ATOM     22  C   UNL     1      -0.014   9.515  23.038  0.00  0.00    +0.000 C 
ATOM     23  C   UNL     1       1.059   8.601  20.955  0.00  0.00    +0.000 A 
ATOM     24  C   UNL     1       1.317   8.596  19.583  0.00  0.00    +0.000 A 
ATOM     25  C   UNL     1       0.741   9.625  18.819  0.00  0.00    +0.000 A 
ENDBRANCH  16  24
ENDBRANCH  15  16
ENDBRANCH   1  15
TORSDOF 4
ENDMDL
MODEL 9
REMARK VINA RESULT:      -7.8      2.834      6.889
REMARK  Name = 
REMARK  7 active torsions:
REMARK  status: ('A' for Active; 'I' for Inactive)
REMARK    1  A    between atoms: C_1  and  C_2
REMARK    2  A    between atoms: C_4  and  C_5
REMARK    3  A    between atoms: C_7  and  N_8
REMARK    4  A    between atoms: N_8  and  C_9
REMARK    5  A    between atoms: C_9  and  C_10
REMARK    6  A    between atoms: C_17  and  C_18
REMARK    7  A    between atoms: C_19  and  O_20
REMARK                            x       y       z     vdW  Elec       q    Type
REMARK                         _______ _______ _______ _____ _____    ______ ____
ROOT
ATOM      1  C   UNL     1       5.358   4.212  16.722  0.00  0.00    +0.000 A 
ATOM      2  C   UNL     1       6.048   4.888  17.654  0.00  0.00    +0.000 A 
ATOM      3  C   UNL     1       7.175   5.781  17.353  0.00  0.00    +0.000 A 
ATOM      4  O   UNL     1       7.735   6.407  18.246  0.00  0.00    +0.000 OA
ATOM      5  O   UNL     1       7.595   5.831  16.037  0.00  0.00    +0.000 OA
ATOM      6  C   UNL     1       6.920   5.108  15.035  0.00  0.00    +0.000 A 
ATOM      7  C   UNL     1       7.486   5.161  13.756  0.00  0.00    +0.000 A 
ATOM      8  C   UNL     1       6.913   4.439  12.709  0.00  0.00    +0.000 A 
ATOM      9  C   UNL     1       7.580   4.403  11.365  0.00  0.00    +0.000 C 
ATOM     10  C   UNL     1       5.730   3.735  12.973  0.00  0.00    +0.000 A 
ATOM     11  C   UNL     1       5.140   3.733  14.243  0.00  0.00    +0.000 A 
ATOM     12  C   UNL     1       5.772   4.363  15.317  0.00  0.00    +0.000 A 
ENDROOT
BRANCH  10  13
ATOM     13  O   UNL     1       5.109   2.968  12.028  0.00  0.00    +0.000 OA
ATOM     14  H   UNL     1       5.679   2.921  11.243  0.00  0.00    +0.000 HD
ENDBRANCH  10  13
BRANCH   1  15
ATOM     15  C   UNL     1       4.330   3.186  17.145  0.00  0.00    +0.000 C 
BRANCH  15  16
ATOM     16  N   UNL     1       3.006   3.794  17.165  0.00  0.00    +0.000 N 
ATOM     17  H   UNL     1       2.326   3.276  16.614  0.00  0.00    +0.000 HD
BRANCH  16  24
ATOM     18  C   UNL     1       1.953   7.508  20.245  0.00  0.00    +0.000 C 
ATOM     19  C   UNL     1       2.005   6.036  19.974  0.00  0.00    +0.000 A 
ATOM     20  C   UNL     1       1.659   5.109  20.958  0.00  0.00    +0.000 A 
ATOM     21  C   UNL     1       1.731   3.739  20.696  0.00  0.00    +0.000 A 
ATOM     22  C   UNL     1       1.378   2.731  21.751  0.00  0.00    +0.000 C 
ATOM     23  C   UNL     1       2.151   3.304  19.427  0.00  0.00    +0.000 A 
ATOM     24  C   UNL     1       2.485   4.198  18.408  0.00  0.00    +0.000 A 
ATOM     25  C   UNL     1       2.422   5.569  18.711  0.00  0.00    +0.000 A 
ENDBRANCH  16  24
ENDBRANCH  15  16
ENDBRANCH   1  15
TORSDOF 4
ENDMDL
