MODEL 1
REMARK VINA RESULT:      -8.5      0.000      0.000
REMARK  Name = 
REMARK  9 active torsions:
REMARK  status: ('A' for Active; 'I' for Inactive)
REMARK    1  A    between atoms: C_1  and  C_2
REMARK    2  A    between atoms: C_8  and  N_9
REMARK    3  A    between atoms: N_9  and  C_10
REMARK    4  A    between atoms: C_10  and  C_11
REMARK    5  A    between atoms: C_12  and  C_13
REMARK    6  A    between atoms: C_16  and  S_17
REMARK    7  A    between atoms: S_17  and  N_18
REMARK    8  A    between atoms: C_23  and  C_24
REMARK    9  A    between atoms: C_23  and  C_25
REMARK                            x       y       z     vdW  Elec       q    Type
REMARK                         _______ _______ _______ _____ _____    ______ ____
ROOT
ATOM      1  C   UNL     1       3.008   3.914  18.823  0.00  0.00    +0.000 C 
ATOM      2  C   UNL     1       3.054   4.985  19.898  0.00  0.00    +0.000 C 
ATOM      3  C   UNL     1       2.255   3.709  20.136  0.00  0.00    +0.000 C 
ATOM      4  C   UNL     1       0.753   3.631  20.003  0.00  0.00    +0.000 C 
ATOM      5  C   UNL     1       2.785   2.832  21.249  0.00  0.00    +0.000 C 
ENDROOT
BRANCH   2   6
ATOM      6  C   UNL     1       2.445   6.346  19.651  0.00  0.00    +0.000 A 
ATOM      7  C   UNL     1       1.813   7.086  20.664  0.00  0.00    +0.000 A 
ATOM      8  C   UNL     1       1.343   8.385  20.439  0.00  0.00    +0.000 A 
ATOM      9  C   UNL     1       1.527   8.976  19.189  0.00  0.00    +0.000 A 
ATOM     10  C   UNL     1       2.146   8.269  18.161  0.00  0.00    +0.000 A 
ATOM     11  C   UNL     1       2.601   6.969  18.399  0.00  0.00    +0.000 A 
BRANCH   9  12
ATOM     12  S   UNL     1       0.936  10.615  18.889  0.00  0.00    +0.000 S 
ATOM     13  O   UNL     1      -0.318  10.546  18.172  0.00  0.00    +0.000 OA
ATOM     14  O   UNL     1       1.100  11.407  20.086  0.00  0.00    +0.000 OA
BRANCH  12  15
ATOM     15  N   UNL     1       2.062  11.200  17.789  0.00  0.00    +0.000 NA
ATOM     16  H   UNL     1       2.161  10.544  17.013  0.00  0.00    +0.000 HD
ATOM     17  H   UNL     1       1.804  12.144  17.499  0.00  0.00    +0.000 HD
ENDBRANCH  12  15
ENDBRANCH   9  12
ENDBRANCH   2   6
BRANCH   1  18
ATOM     18  C   UNL     1       4.255   3.156  18.449  0.00  0.00    +0.000 C 
BRANCH  18  19
ATOM     19  N   UNL     1       4.923   3.826  17.337  0.00  0.00    +0.000 N 
ATOM     20  H   UNL     1       4.241   4.124  16.642  0.00  0.00    +0.000 HD
BRANCH  19  28
ATOM     21  C   UNL     1       5.059   6.444  15.697  0.00  0.00    +0.000 C 
ATOM     22  C   UNL     1       5.959   6.064  16.840  0.00  0.00    +0.000 A 
ATOM     23  C   UNL     1       6.911   7.036  17.226  0.00  0.00    +0.000 A 
ATOM     24  C   UNL     1       7.770   6.829  18.302  0.00  0.00    +0.000 A 
ATOM     25  C   UNL     1       7.679   5.643  19.001  0.00  0.00    +0.000 A 
ATOM     26  F   UNL     1       8.488   5.429  20.047  0.00  0.00    +0.000 F 
ATOM     27  C   UNL     1       6.746   4.670  18.645  0.00  0.00    +0.000 A 
ATOM     28  C   UNL     1       5.879   4.838  17.539  0.00  0.00    +0.000 A 
ENDBRANCH  19  28
ENDBRANCH  18  19
ENDBRANCH   1  18
TORSDOF 6
ENDMDL
MODEL 2
REMARK VINA RESULT:      -8.5      1.581      2.087
REMARK  Name = 
REMARK  9 active torsions:
REMARK  status: ('A' for Active; 'I' for Inactive)
REMARK    1  A    between atoms: C_1  and  C_2
REMARK    2  A    between atoms: C_8  and  N_9
REMARK    3  A    between atoms: N_9  and  C_10
REMARK    4  A    between atoms: C_10  and  C_11
REMARK    5  A    between atoms: C_12  and  C_13
REMARK    6  A    between atoms: C_16  and  S_17
REMARK    7  A    between atoms: S_17  and  N_18
REMARK    8  A    between atoms: C_23  and  C_24
REMARK    9  A    between atoms: C_23  and  C_25
REMARK                            x       y       z     vdW  Elec       q    Type
REMARK                         _______ _______ _______ _____ _____    ______ ____
ROOT
ATOM      1  C   UNL     1       2.970   3.578  19.261  0.00  0.00    +0.000 C 
ATOM      2  C   UNL     1       2.933   4.713  20.270  0.00  0.00    +0.000 C 
ATOM      3  C   UNL     1       2.081   3.469  20.498  0.00  0.00    +0.000 C 
ATOM      4  C   UNL     1       0.600   3.412  20.214  0.00  0.00    +0.000 C 
ATOM      5  C   UNL     1       2.471   2.652  21.710  0.00  0.00    +0.000 C 
ENDROOT
BRANCH   2   6
ATOM      6  C   UNL     1       2.388   6.067  19.880  0.00  0.00    +0.000 A 
ATOM      7  C   UNL     1       1.759   6.922  20.802  0.00  0.00    +0.000 A 
ATOM      8  C   UNL     1       1.350   8.212  20.444  0.00  0.00    +0.000 A 
ATOM      9  C   UNL     1       1.593   8.677  19.152  0.00  0.00    +0.000 A 
ATOM     10  C   UNL     1       2.210   7.854  18.212  0.00  0.00    +0.000 A 
ATOM     11  C   UNL     1       2.604   6.565  18.582  0.00  0.00    +0.000 A 
BRANCH   9  12
ATOM     12  S   UNL     1       1.079  10.303  18.684  0.00  0.00    +0.000 S 
ATOM     13  O   UNL     1      -0.191  10.222  17.998  0.00  0.00    +0.000 OA
ATOM     14  O   UNL     1       1.306  11.209  19.786  0.00  0.00    +0.000 OA
BRANCH  12  15
ATOM     15  N   UNL     1       2.211  10.707  17.512  0.00  0.00    +0.000 NA
ATOM     16  H   UNL     1       3.152  10.542  17.868  0.00  0.00    +0.000 HD
ATOM     17  H   UNL     1       2.005  10.205  16.647  0.00  0.00    +0.000 HD
ENDBRANCH  12  15
ENDBRANCH   9  12
ENDBRANCH   2   6
BRANCH   1  18
ATOM     18  C   UNL     1       4.229   2.775  19.065  0.00  0.00    +0.000 C 
BRANCH  18  19
ATOM     19  N   UNL     1       5.389   3.660  19.107  0.00  0.00    +0.000 N 
ATOM     20  H   UNL     1       6.184   3.183  19.528  0.00  0.00    +0.000 HD
BRANCH  19  28
ATOM     21  C   UNL     1       7.593   5.829  19.172  0.00  0.00    +0.000 C 
ATOM     22  C   UNL     1       6.835   5.370  17.958  0.00  0.00    +0.000 A 
ATOM     23  C   UNL     1       7.225   5.952  16.730  0.00  0.00    +0.000 A 
ATOM     24  C   UNL     1       6.636   5.577  15.525  0.00  0.00    +0.000 A 
ATOM     25  C   UNL     1       5.651   4.610  15.544  0.00  0.00    +0.000 A 
ATOM     26  F   UNL     1       5.081   4.226  14.394  0.00  0.00    +0.000 F 
ATOM     27  C   UNL     1       5.252   4.016  16.740  0.00  0.00    +0.000 A 
ATOM     28  C   UNL     1       5.810   4.397  17.984  0.00  0.00    +0.000 A 
ENDBRANCH  19  28
ENDBRANCH  18  19
ENDBRANCH   1  18
TORSDOF 6
ENDMDL
MODEL 3
REMARK VINA RESULT:      -8.4      0.709      1.223
REMARK  Name = 
REMARK  9 active torsions:
REMARK  status: ('A' for Active; 'I' for Inactive)
REMARK    1  A    between atoms: C_1  and  C_2
REMARK    2  A    between atoms: C_8  and  N_9
REMARK    3  A    between atoms: N_9  and  C_10
REMARK    4  A    between atoms: C_10  and  C_11
REMARK    5  A    between atoms: C_12  and  C_13
REMARK    6  A    between atoms: C_16  and  S_17
REMARK    7  A    between atoms: S_17  and  N_18
REMARK    8  A    between atoms: C_23  and  C_24
REMARK    9  A    between atoms: C_23  and  C_25
REMARK                            x       y       z     vdW  Elec       q    Type
REMARK                         _______ _______ _______ _____ _____    ______ ____
ROOT
ATOM      1  C   UNL     1       3.036   3.921  18.788  0.00  0.00    +0.000 C 
ATOM      2  C   UNL     1       3.177   4.982  19.865  0.00  0.00    +0.000 C 
ATOM      3  C   UNL     1       2.297   3.763  20.115  0.00  0.00    +0.000 C 
ATOM      4  C   UNL     1       0.791   3.788  20.013  0.00  0.00    +0.000 C 
ATOM      5  C   UNL     1       2.787   2.847  21.215  0.00  0.00    +0.000 C 
ENDROOT
BRANCH   2   6
ATOM      6  C   UNL     1       2.658   6.382  19.634  0.00  0.00    +0.000 A 
ATOM      7  C   UNL     1       2.758   7.029  18.390  0.00  0.00    +0.000 A 
ATOM      8  C   UNL     1       2.183   8.286  18.169  0.00  0.00    +0.000 A 
ATOM      9  C   UNL     1       1.470   8.906  19.195  0.00  0.00    +0.000 A 
ATOM     10  C   UNL     1       1.355   8.295  20.442  0.00  0.00    +0.000 A 
ATOM     11  C   UNL     1       1.943   7.044  20.649  0.00  0.00    +0.000 A 
BRANCH   9  12
ATOM     12  S   UNL     1       0.741  10.496  18.932  0.00  0.00    +0.000 S 
ATOM     13  O   UNL     1      -0.070  10.844  20.077  0.00  0.00    +0.000 OA
ATOM     14  O   UNL     1       1.736  11.391  18.387  0.00  0.00    +0.000 OA
BRANCH  12  15
ATOM     15  N   UNL     1      -0.337  10.187  17.682  0.00  0.00    +0.000 NA
ATOM     16  H   UNL     1      -0.158   9.261  17.291  0.00  0.00    +0.000 HD
ATOM     17  H   UNL     1      -1.294  10.315  18.012  0.00  0.00    +0.000 HD
ENDBRANCH  12  15
ENDBRANCH   9  12
ENDBRANCH   2   6
BRANCH   1  18
ATOM     18  C   UNL     1       4.220   3.081  18.387  0.00  0.00    +0.000 C 
BRANCH  18  19
ATOM     19  N   UNL     1       4.932   3.727  17.288  0.00  0.00    +0.000 N 
ATOM     20  H   UNL     1       4.280   3.997  16.554  0.00  0.00    +0.000 HD
BRANCH  19  28
ATOM     21  C   UNL     1       5.089   6.318  15.606  0.00  0.00    +0.000 C 
ATOM     22  C   UNL     1       5.953   5.972  16.786  0.00  0.00    +0.000 A 
ATOM     23  C   UNL     1       6.877   6.964  17.187  0.00  0.00    +0.000 A 
ATOM     24  C   UNL     1       7.702   6.789  18.296  0.00  0.00    +0.000 A 
ATOM     25  C   UNL     1       7.602   5.614  19.014  0.00  0.00    +0.000 A 
ATOM     26  F   UNL     1       8.377   5.431  20.091  0.00  0.00    +0.000 F 
ATOM     27  C   UNL     1       6.696   4.621  18.643  0.00  0.00    +0.000 A 
ATOM     28  C   UNL     1       5.867   4.757  17.504  0.00  0.00    +0.000 A 
ENDBRANCH  19  28
ENDBRANCH  18  19
ENDBRANCH   1  18
TORSDOF 6
ENDMDL
MODEL 4
REMARK VINA RESULT:      -8.3      1.723      2.427
REMARK  Name = 
REMARK  9 active torsions:
REMARK  status: ('A' for Active; 'I' for Inactive)
REMARK    1  A    between atoms: C_1  and  C_2
REMARK    2  A    between atoms: C_8  and  N_9
REMARK    3  A    between atoms: N_9  and  C_10
REMARK    4  A    between atoms: C_10  and  C_11
REMARK    5  A    between atoms: C_12  and  C_13
REMARK    6  A    between atoms: C_16  and  S_17
REMARK    7  A    between atoms: S_17  and  N_18
REMARK    8  A    between atoms: C_23  and  C_24
REMARK    9  A    between atoms: C_23  and  C_25
REMARK                            x       y       z     vdW  Elec       q    Type
REMARK                         _______ _______ _______ _____ _____    ______ ____
ROOT
ATOM      1  C   UNL     1       3.004   3.659  19.248  0.00  0.00    +0.000 C 
ATOM      2  C   UNL     1       2.972   4.761  20.293  0.00  0.00    +0.000 C 
ATOM      3  C   UNL     1       1.995   3.595  20.394  0.00  0.00    +0.000 C 
ATOM      4  C   UNL     1       0.548   3.683  19.974  0.00  0.00    +0.000 C 
ATOM      5  C   UNL     1       2.195   2.710  21.605  0.00  0.00    +0.000 C 
ENDROOT
BRANCH   2   6
ATOM      6  C   UNL     1       2.589   6.171  19.907  0.00  0.00    +0.000 A 
ATOM      7  C   UNL     1       2.803   6.685  18.616  0.00  0.00    +0.000 A 
ATOM      8  C   UNL     1       2.351   7.959  18.250  0.00  0.00    +0.000 A 
ATOM      9  C   UNL     1       1.647   8.731  19.175  0.00  0.00    +0.000 A 
ATOM     10  C   UNL     1       1.421   8.253  20.464  0.00  0.00    +0.000 A 
ATOM     11  C   UNL     1       1.887   6.983  20.816  0.00  0.00    +0.000 A 
BRANCH   9  12
ATOM     12  S   UNL     1       1.073  10.343  18.728  0.00  0.00    +0.000 S 
ATOM     13  O   UNL     1       0.422  10.949  19.867  0.00  0.00    +0.000 OA
ATOM     14  O   UNL     1       2.101  11.021  17.973  0.00  0.00    +0.000 OA
BRANCH  12  15
ATOM     15  N   UNL     1      -0.150   9.990  17.633  0.00  0.00    +0.000 NA
ATOM     16  H   UNL     1      -0.894  10.684  17.711  0.00  0.00    +0.000 HD
ATOM     17  H   UNL     1       0.241   9.911  16.694  0.00  0.00    +0.000 HD
ENDBRANCH  12  15
ENDBRANCH   9  12
ENDBRANCH   2   6
BRANCH   1  18
ATOM     18  C   UNL     1       4.199   2.749  19.138  0.00  0.00    +0.000 C 
BRANCH  18  19
ATOM     19  N   UNL     1       5.423   3.545  19.132  0.00  0.00    +0.000 N 
ATOM     20  H   UNL     1       6.210   2.987  19.458  0.00  0.00    +0.000 HD
BRANCH  19  28
ATOM     21  C   UNL     1       7.576   5.763  19.216  0.00  0.00    +0.000 C 
ATOM     22  C   UNL     1       6.810   5.315  18.003  0.00  0.00    +0.000 A 
ATOM     23  C   UNL     1       7.166   5.936  16.783  0.00  0.00    +0.000 A 
ATOM     24  C   UNL     1       6.567   5.576  15.579  0.00  0.00    +0.000 A 
ATOM     25  C   UNL     1       5.606   4.586  15.589  0.00  0.00    +0.000 A 
ATOM     26  F   UNL     1       5.026   4.216  14.440  0.00  0.00    +0.000 F 
ATOM     27  C   UNL     1       5.240   3.954  16.777  0.00  0.00    +0.000 A 
ATOM     28  C   UNL     1       5.808   4.318  18.021  0.00  0.00    +0.000 A 
ENDBRANCH  19  28
ENDBRANCH  18  19
ENDBRANCH   1  18
TORSDOF 6
ENDMDL
MODEL 5
REMARK VINA RESULT:      -8.3      0.946      1.093
REMARK  Name = 
REMARK  9 active torsions:
REMARK  status: ('A' for Active; 'I' for Inactive)
REMARK    1  A    between atoms: C_1  and  C_2
REMARK    2  A    between atoms: C_8  and  N_9
REMARK    3  A    between atoms: N_9  and  C_10
REMARK    4  A    between atoms: C_10  and  C_11
REMARK    5  A    between atoms: C_12  and  C_13
REMARK    6  A    between atoms: C_16  and  S_17
REMARK    7  A    between atoms: S_17  and  N_18
REMARK    8  A    between atoms: C_23  and  C_24
REMARK    9  A    between atoms: C_23  and  C_25
REMARK                            x       y       z     vdW  Elec       q    Type
REMARK                         _______ _______ _______ _____ _____    ______ ____
ROOT
ATOM      1  C   UNL     1       3.239   3.934  19.759  0.00  0.00    +0.000 C 
ATOM      2  C   UNL     1       2.614   4.929  20.721  0.00  0.00    +0.000 C 
ATOM      3  C   UNL     1       1.912   3.605  20.441  0.00  0.00    +0.000 C 
ATOM      4  C   UNL     1       0.734   3.469  19.508  0.00  0.00    +0.000 C 
ATOM      5  C   UNL     1       1.818   2.677  21.632  0.00  0.00    +0.000 C 
ENDROOT
BRANCH   2   6
ATOM      6  C   UNL     1       2.136   6.275  20.228  0.00  0.00    +0.000 A 
ATOM      7  C   UNL     1       1.400   7.158  21.037  0.00  0.00    +0.000 A 
ATOM      8  C   UNL     1       1.053   8.440  20.595  0.00  0.00    +0.000 A 
ATOM      9  C   UNL     1       1.465   8.868  19.333  0.00  0.00    +0.000 A 
ATOM     10  C   UNL     1       2.192   8.016  18.504  0.00  0.00    +0.000 A 
ATOM     11  C   UNL     1       2.523   6.736  18.956  0.00  0.00    +0.000 A 
BRANCH   9  12
ATOM     12  S   UNL     1       1.030  10.483  18.760  0.00  0.00    +0.000 S 
ATOM     13  O   UNL     1      -0.275  10.434  18.141  0.00  0.00    +0.000 OA
ATOM     14  O   UNL     1       1.370  11.456  19.773  0.00  0.00    +0.000 OA
BRANCH  12  15
ATOM     15  N   UNL     1       2.124  10.719  17.508  0.00  0.00    +0.000 NA
ATOM     16  H   UNL     1       1.939  11.612  17.051  0.00  0.00    +0.000 HD
ATOM     17  H   UNL     1       3.077  10.627  17.860  0.00  0.00    +0.000 HD
ENDBRANCH  12  15
ENDBRANCH   9  12
ENDBRANCH   2   6
BRANCH   1  18
ATOM     18  C   UNL     1       4.542   3.261  20.101  0.00  0.00    +0.000 C 
BRANCH  18  19
ATOM     19  N   UNL     1       5.399   3.218  18.919  0.00  0.00    +0.000 N 
ATOM     20  H   UNL     1       5.044   2.539  18.248  0.00  0.00    +0.000 HD
BRANCH  19  28
ATOM     21  C   UNL     1       4.013   4.360  16.401  0.00  0.00    +0.000 C 
ATOM     22  C   UNL     1       5.187   4.965  17.120  0.00  0.00    +0.000 A 
ATOM     23  C   UNL     1       5.647   6.205  16.618  0.00  0.00    +0.000 A 
ATOM     24  C   UNL     1       6.695   6.894  17.224  0.00  0.00    +0.000 A 
ATOM     25  C   UNL     1       7.289   6.343  18.342  0.00  0.00    +0.000 A 
ATOM     26  F   UNL     1       8.290   6.995  18.946  0.00  0.00    +0.000 F 
ATOM     27  C   UNL     1       6.851   5.124  18.860  0.00  0.00    +0.000 A 
ATOM     28  C   UNL     1       5.809   4.386  18.250  0.00  0.00    +0.000 A 
ENDBRANCH  19  28
ENDBRANCH  18  19
ENDBRANCH   1  18
TORSDOF 6
ENDMDL
MODEL 6
REMARK VINA RESULT:      -8.0      1.419      2.206
REMARK  Name = 
REMARK  9 active torsions:
REMARK  status: ('A' for Active; 'I' for Inactive)
REMARK    1  A    between atoms: C_1  and  C_2
REMARK    2  A    between atoms: C_8  and  N_9
REMARK    3  A    between atoms: N_9  and  C_10
REMARK    4  A    between atoms: C_10  and  C_11
REMARK    5  A    between atoms: C_12  and  C_13
REMARK    6  A    between atoms: C_16  and  S_17
REMARK    7  A    between atoms: S_17  and  N_18
REMARK    8  A    between atoms: C_23  and  C_24
REMARK    9  A    between atoms: C_23  and  C_25
REMARK                            x       y       z     vdW  Elec       q    Type
REMARK                         _______ _______ _______ _____ _____    ______ ____
ROOT
ATOM      1  C   UNL     1       3.330   3.922  19.444  0.00  0.00    +0.000 C 
ATOM      2  C   UNL     1       2.963   4.977  20.474  0.00  0.00    +0.000 C 
ATOM      3  C   UNL     1       2.113   3.717  20.344  0.00  0.00    +0.000 C 
ATOM      4  C   UNL     1       0.788   3.678  19.623  0.00  0.00    +0.000 C 
ATOM      5  C   UNL     1       2.140   2.811  21.556  0.00  0.00    +0.000 C 
ENDROOT
BRANCH   2   6
ATOM      6  C   UNL     1       2.526   6.355  20.036  0.00  0.00    +0.000 A 
ATOM      7  C   UNL     1       2.772   6.850  18.743  0.00  0.00    +0.000 A 
ATOM      8  C   UNL     1       2.273   8.090  18.326  0.00  0.00    +0.000 A 
ATOM      9  C   UNL     1       1.490   8.845  19.198  0.00  0.00    +0.000 A 
ATOM     10  C   UNL     1       1.230   8.386  20.488  0.00  0.00    +0.000 A 
ATOM     11  C   UNL     1       1.743   7.151  20.893  0.00  0.00    +0.000 A 
BRANCH   9  12
ATOM     12  S   UNL     1       0.856  10.415  18.686  0.00  0.00    +0.000 S 
ATOM     13  O   UNL     1      -0.328  10.211  17.882  0.00  0.00    +0.000 OA
ATOM     14  O   UNL     1       0.884  11.327  19.806  0.00  0.00    +0.000 OA
BRANCH  12  15
ATOM     15  N   UNL     1       2.045  10.946  17.627  0.00  0.00    +0.000 NA
ATOM     16  H   UNL     1       1.613  11.383  16.812  0.00  0.00    +0.000 HD
ATOM     17  H   UNL     1       2.700  11.555  18.120  0.00  0.00    +0.000 HD
ENDBRANCH  12  15
ENDBRANCH   9  12
ENDBRANCH   2   6
BRANCH   1  18
ATOM     18  C   UNL     1       4.610   3.139  19.581  0.00  0.00    +0.000 C 
BRANCH  18  19
ATOM     19  N   UNL     1       5.469   3.395  18.428  0.00  0.00    +0.000 N 
ATOM     20  H   UNL     1       5.188   2.813  17.641  0.00  0.00    +0.000 HD
BRANCH  19  28
ATOM     21  C   UNL     1       7.469   5.304  19.813  0.00  0.00    +0.000 C 
ATOM     22  C   UNL     1       6.687   5.593  18.562  0.00  0.00    +0.000 A 
ATOM     23  C   UNL     1       6.951   6.836  17.941  0.00  0.00    +0.000 A 
ATOM     24  C   UNL     1       6.330   7.203  16.750  0.00  0.00    +0.000 A 
ATOM     25  C   UNL     1       5.439   6.323  16.171  0.00  0.00    +0.000 A 
ATOM     26  F   UNL     1       4.840   6.652  15.019  0.00  0.00    +0.000 F 
ATOM     27  C   UNL     1       5.164   5.089  16.760  0.00  0.00    +0.000 A 
ATOM     28  C   UNL     1       5.756   4.699  17.984  0.00  0.00    +0.000 A 
ENDBRANCH  19  28
ENDBRANCH  18  19
ENDBRANCH   1  18
TORSDOF 6
ENDMDL
MODEL 7
REMARK VINA RESULT:      -8.0      1.233      1.748
REMARK  Name = 
REMARK  9 active torsions:
REMARK  status: ('A' for Active; 'I' for Inactive)
REMARK    1  A    between atoms: C_1  and  C_2
REMARK    2  A    between atoms: C_8  and  N_9
REMARK    3  A    between atoms: N_9  and  C_10
REMARK    4  A    between atoms: C_10  and  C_11
REMARK    5  A    between atoms: C_12  and  C_13
REMARK    6  A    between atoms: C_16  and  S_17
REMARK    7  A    between atoms: S_17  and  N_18
REMARK    8  A    between atoms: C_23  and  C_24
REMARK    9  A    between atoms: C_23  and  C_25
REMARK                            x       y       z     vdW  Elec       q    Type
REMARK                         _______ _______ _______ _____ _____    ______ ____
ROOT
ATOM      1  C   UNL     1       3.505   4.608  19.204  0.00  0.00    +0.000 C 
ATOM      2  C   UNL     1       2.434   5.293  20.035  0.00  0.00    +0.000 C 
ATOM      3  C   UNL     1       2.048   4.166  19.083  0.00  0.00    +0.000 C 
ATOM      4  C   UNL     1       1.423   4.398  17.729  0.00  0.00    +0.000 C 
ATOM      5  C   UNL     1       1.516   2.922  19.762  0.00  0.00    +0.000 C 
ENDROOT
BRANCH   2   6
ATOM      6  C   UNL     1       2.109   6.752  19.813  0.00  0.00    +0.000 A 
ATOM      7  C   UNL     1       2.355   7.403  18.592  0.00  0.00    +0.000 A 
ATOM      8  C   UNL     1       1.956   8.728  18.375  0.00  0.00    +0.000 A 
ATOM      9  C   UNL     1       1.275   9.414  19.379  0.00  0.00    +0.000 A 
ATOM     10  C   UNL     1       1.019   8.800  20.603  0.00  0.00    +0.000 A 
ATOM     11  C   UNL     1       1.431   7.480  20.808  0.00  0.00    +0.000 A 
BRANCH   9  12
ATOM     12  S   UNL     1       0.768  11.089  19.121  0.00  0.00    +0.000 S 
ATOM     13  O   UNL     1      -0.005  11.534  20.258  0.00  0.00    +0.000 OA
ATOM     14  O   UNL     1       1.882  11.847  18.597  0.00  0.00    +0.000 OA
BRANCH  12  15
ATOM     15  N   UNL     1      -0.324  10.935  17.854  0.00  0.00    +0.000 NA
ATOM     16  H   UNL     1      -1.056  11.641  17.941  0.00  0.00    +0.000 HD
ATOM     17  H   UNL     1       0.174  10.967  16.964  0.00  0.00    +0.000 HD
ENDBRANCH  12  15
ENDBRANCH   9  12
ENDBRANCH   2   6
BRANCH   1  18
ATOM     18  C   UNL     1       4.574   3.783  19.871  0.00  0.00    +0.000 C 
BRANCH  18  19
ATOM     19  N   UNL     1       5.660   3.530  18.929  0.00  0.00    +0.000 N 
ATOM     20  H   UNL     1       5.426   2.749  18.319  0.00  0.00    +0.000 HD
BRANCH  19  28
ATOM     21  C   UNL     1       5.030   4.115  15.958  0.00  0.00    +0.000 C 
ATOM     22  C   UNL     1       5.975   4.889  16.834  0.00  0.00    +0.000 A 
ATOM     23  C   UNL     1       6.576   6.024  16.243  0.00  0.00    +0.000 A 
ATOM     24  C   UNL     1       7.433   6.855  16.963  0.00  0.00    +0.000 A 
ATOM     25  C   UNL     1       7.691   6.551  18.284  0.00  0.00    +0.000 A 
ATOM     26  F   UNL     1       8.502   7.344  18.997  0.00  0.00    +0.000 F 
ATOM     27  C   UNL     1       7.108   5.440  18.892  0.00  0.00    +0.000 A 
ATOM     28  C   UNL     1       6.258   4.561  18.180  0.00  0.00    +0.000 A 
ENDBRANCH  19  28
ENDBRANCH  18  19
ENDBRANCH   1  18
TORSDOF 6
ENDMDL
MODEL 8
REMARK VINA RESULT:      -7.8      2.557      4.857
REMARK  Name = 
REMARK  9 active torsions:
REMARK  status: ('A' for Active; 'I' for Inactive)
REMARK    1  A    between atoms: C_1  and  C_2
REMARK    2  A    between atoms: C_8  and  N_9
REMARK    3  A    between atoms: N_9  and  C_10
REMARK    4  A    between atoms: C_10  and  C_11
REMARK    5  A    between atoms: C_12  and  C_13
REMARK    6  A    between atoms: C_16  and  S_17
REMARK    7  A    between atoms: S_17  and  N_18
REMARK    8  A    between atoms: C_23  and  C_24
REMARK    9  A    between atoms: C_23  and  C_25
REMARK                            x       y       z     vdW  Elec       q    Type
REMARK                         _______ _______ _______ _____ _____    ______ ____
ROOT
ATOM      1  C   UNL     1       4.432   4.576  17.566  0.00  0.00    +0.000 C 
ATOM      2  C   UNL     1       3.688   5.832  17.145  0.00  0.00    +0.000 C 
ATOM      3  C   UNL     1       5.194   5.733  16.922  0.00  0.00    +0.000 C 
ATOM      4  C   UNL     1       6.212   6.400  17.814  0.00  0.00    +0.000 C 
ATOM      5  C   UNL     1       5.616   5.721  15.469  0.00  0.00    +0.000 C 
ENDROOT
BRANCH   2   6
ATOM      6  C   UNL     1       3.030   6.715  18.179  0.00  0.00    +0.000 A 
ATOM      7  C   UNL     1       2.564   8.008  17.882  0.00  0.00    +0.000 A 
ATOM      8  C   UNL     1       1.868   8.772  18.827  0.00  0.00    +0.000 A 
ATOM      9  C   UNL     1       1.605   8.234  20.087  0.00  0.00    +0.000 A 
ATOM     10  C   UNL     1       2.057   6.957  20.416  0.00  0.00    +0.000 A 
ATOM     11  C   UNL     1       2.758   6.211  19.464  0.00  0.00    +0.000 A 
BRANCH   9  12
ATOM     12  S   UNL     1       0.731   9.188  21.292  0.00  0.00    +0.000 S 
ATOM     13  O   UNL     1       0.660  10.563  20.852  0.00  0.00    +0.000 OA
ATOM     14  O   UNL     1      -0.434   8.453  21.727  0.00  0.00    +0.000 OA
BRANCH  12  15
ATOM     15  N   UNL     1       1.797   9.176  22.590  0.00  0.00    +0.000 NA
ATOM     16  H   UNL     1       1.274   9.181  23.467  0.00  0.00    +0.000 HD
ATOM     17  H   UNL     1       2.441   8.390  22.501  0.00  0.00    +0.000 HD
ENDBRANCH  12  15
ENDBRANCH   9  12
ENDBRANCH   2   6
BRANCH   1  18
ATOM     18  C   UNL     1       4.165   3.266  16.873  0.00  0.00    +0.000 C 
BRANCH  18  19
ATOM     19  N   UNL     1       3.992   2.210  17.868  0.00  0.00    +0.000 N 
ATOM     20  H   UNL     1       4.897   1.834  18.145  0.00  0.00    +0.000 HD
BRANCH  19  28
ATOM     21  C   UNL     1       4.989   1.997  20.787  0.00  0.00    +0.000 C 
ATOM     22  C   UNL     1       3.588   2.322  20.349  0.00  0.00    +0.000 A 
ATOM     23  C   UNL     1       2.669   2.615  21.383  0.00  0.00    +0.000 A 
ATOM     24  C   UNL     1       1.353   2.980  21.108  0.00  0.00    +0.000 A 
ATOM     25  C   UNL     1       0.950   3.055  19.790  0.00  0.00    +0.000 A 
ATOM     26  F   UNL     1      -0.308   3.416  19.505  0.00  0.00    +0.000 F 
ATOM     27  C   UNL     1       1.837   2.776  18.752  0.00  0.00    +0.000 A 
ATOM     28  C   UNL     1       3.171   2.374  18.999  0.00  0.00    +0.000 A 
ENDBRANCH  19  28
ENDBRANCH  18  19
ENDBRANCH   1  18
TORSDOF 6
ENDMDL
MODEL 9
REMARK VINA RESULT:      -7.8      2.300      4.638
REMARK  Name = 
REMARK  9 active torsions:
REMARK  status: ('A' for Active; 'I' for Inactive)
REMARK    1  A    between atoms: C_1  and  C_2
REMARK    2  A    between atoms: C_8  and  N_9
REMARK    3  A    between atoms: N_9  and  C_10
REMARK    4  A    between atoms: C_10  and  C_11
REMARK    5  A    between atoms: C_12  and  C_13
REMARK    6  A    between atoms: C_16  and  S_17
REMARK    7  A    between atoms: S_17  and  N_18
REMARK    8  A    between atoms: C_23  and  C_24
REMARK    9  A    between atoms: C_23  and  C_25
REMARK                            x       y       z     vdW  Elec       q    Type
REMARK                         _______ _______ _______ _____ _____    ______ ____
ROOT
ATOM      1  C   UNL     1       5.154   5.282  18.071  0.00  0.00    +0.000 C 
ATOM      2  C   UNL     1       3.967   5.997  17.448  0.00  0.00    +0.000 C 
ATOM      3  C   UNL     1       5.376   6.295  16.949  0.00  0.00    +0.000 C 
ATOM      4  C   UNL     1       6.158   7.523  17.347  0.00  0.00    +0.000 C 
ATOM      5  C   UNL     1       5.639   5.879  15.518  0.00  0.00    +0.000 C 
ENDROOT
BRANCH   2   6
ATOM      6  C   UNL     1       3.129   6.948  18.271  0.00  0.00    +0.000 A 
ATOM      7  C   UNL     1       2.670   8.178  17.767  0.00  0.00    +0.000 A 
ATOM      8  C   UNL     1       1.812   9.000  18.510  0.00  0.00    +0.000 A 
ATOM      9  C   UNL     1       1.379   8.582  19.768  0.00  0.00    +0.000 A 
ATOM     10  C   UNL     1       1.819   7.371  20.298  0.00  0.00    +0.000 A 
ATOM     11  C   UNL     1       2.681   6.567  19.549  0.00  0.00    +0.000 A 
BRANCH   9  12
ATOM     12  S   UNL     1       0.299   9.611  20.718  0.00  0.00    +0.000 S 
ATOM     13  O   UNL     1       1.089  10.478  21.563  0.00  0.00    +0.000 OA
ATOM     14  O   UNL     1      -0.755  10.111  19.866  0.00  0.00    +0.000 OA
BRANCH  12  15
ATOM     15  N   UNL     1      -0.427   8.502  21.749  0.00  0.00    +0.000 NA
ATOM     16  H   UNL     1      -0.413   7.574  21.324  0.00  0.00    +0.000 HD
ATOM     17  H   UNL     1       0.018   8.541  22.667  0.00  0.00    +0.000 HD
ENDBRANCH  12  15
ENDBRANCH   9  12
ENDBRANCH   2   6
BRANCH   1  18
ATOM     18  C   UNL     1       5.322   3.795  17.898  0.00  0.00    +0.000 C 
BRANCH  18  19
ATOM     19  N   UNL     1       4.784   3.100  19.064  0.00  0.00    +0.000 N 
ATOM     20  H   UNL     1       5.317   3.341  19.897  0.00  0.00    +0.000 HD
BRANCH  19  28
ATOM     21  C   UNL     1       2.551   2.816  16.943  0.00  0.00    +0.000 C 
ATOM     22  C   UNL     1       2.355   2.925  18.429  0.00  0.00    +0.000 A 
ATOM     23  C   UNL     1       1.021   2.824  18.886  0.00  0.00    +0.000 A 
ATOM     24  C   UNL     1       0.708   2.860  20.243  0.00  0.00    +0.000 A 
ATOM     25  C   UNL     1       1.736   2.996  21.153  0.00  0.00    +0.000 A 
ATOM     26  F   UNL     1       1.458   3.019  22.464  0.00  0.00    +0.000 F 
ATOM     27  C   UNL     1       3.061   3.092  20.731  0.00  0.00    +0.000 A 
ATOM     28  C   UNL     1       3.408   3.089  19.359  0.00  0.00    +0.000 A 
ENDBRANCH  19  28
ENDBRANCH  18  19
ENDBRANCH   1  18
TORSDOF 6
ENDMDL
