MODEL 1
REMARK VINA RESULT:      -7.6      0.000      0.000
REMARK  Name = 
REMARK  6 active torsions:
REMARK  status: ('A' for Active; 'I' for Inactive)
REMARK    1  A    between atoms: C_1  and  C_2
REMARK    2  A    between atoms: C_2  and  O_3
REMARK    3  A    between atoms: O_3  and  C_4
REMARK    4  A    between atoms: C_4  and  C_5
REMARK    5  A    between atoms: C_4  and  C_16
REMARK    6  A    between atoms: N_7  and  C_8
REMARK                            x       y       z     vdW  Elec       q    Type
REMARK                         _______ _______ _______ _____ _____    ______ ____
ROOT
ATOM      1  C   UNL     1       5.118   5.135  16.428  0.00  0.00    +0.000 C 
ATOM      2  O   UNL     1       4.956   6.310  16.103  0.00  0.00    +0.000 OA
ATOM      3  N   UNL     1       4.170   4.410  17.143  0.00  0.00    +0.000 N 
ATOM      4  H   UNL     1       4.240   3.403  17.016  0.00  0.00    +0.000 HD
ENDROOT
BRANCH   3   5
ATOM      5  C   UNL     1       2.897   4.997  17.559  0.00  0.00    +0.000 C 
ATOM      6  C   UNL     1       3.012   5.771  18.889  0.00  0.00    +0.000 C 
ATOM      7  C   UNL     1       3.470   4.879  20.031  0.00  0.00    +0.000 C 
ATOM      8  S   UNL     1       2.255   3.624  20.366  0.00  0.00    +0.000 S 
ATOM      9  O   UNL     1       2.858   2.621  21.216  0.00  0.00    +0.000 OA
ATOM     10  O   UNL     1       1.022   4.287  20.757  0.00  0.00    +0.000 OA
ATOM     11  C   UNL     1       1.996   2.899  18.762  0.00  0.00    +0.000 C 
ATOM     12  C   UNL     1       1.789   3.933  17.660  0.00  0.00    +0.000 C 
ENDBRANCH   3   5
BRANCH   1  13
ATOM     13  C   UNL     1       6.417   4.367  16.074  0.00  0.00    +0.000 C 
BRANCH  13  14
ATOM     14  C   UNL     1       6.643   4.347  14.567  0.00  0.00    +0.000 A 
ATOM     15  C   UNL     1       7.577   5.226  13.987  0.00  0.00    +0.000 A 
ATOM     16  C   UNL     1       7.805   5.214  12.609  0.00  0.00    +0.000 A 
ATOM     17  C   UNL     1       7.106   4.328  11.791  0.00  0.00    +0.000 A 
ATOM     18  C   UNL     1       6.179   3.452  12.351  0.00  0.00    +0.000 A 
ATOM     19  C   UNL     1       5.950   3.462  13.728  0.00  0.00    +0.000 A 
ENDBRANCH  13  14
BRANCH  13  20
ATOM     20  O   UNL     1       7.571   4.904  16.726  0.00  0.00    +0.000 OA
BRANCH  20  22
ATOM     21  C   UNL     1       7.814   6.288  18.653  0.00  0.00    +0.000 C 
ATOM     22  C   UNL     1       7.456   4.902  18.148  0.00  0.00    +0.000 C 
ENDBRANCH  20  22
ENDBRANCH  13  20
ENDBRANCH   1  13
TORSDOF 5
ENDMDL
MODEL 2
REMARK VINA RESULT:      -7.4      0.590      1.238
REMARK  Name = 
REMARK  6 active torsions:
REMARK  status: ('A' for Active; 'I' for Inactive)
REMARK    1  A    between atoms: C_1  and  C_2
REMARK    2  A    between atoms: C_2  and  O_3
REMARK    3  A    between atoms: O_3  and  C_4
REMARK    4  A    between atoms: C_4  and  C_5
REMARK    5  A    between atoms: C_4  and  C_16
REMARK    6  A    between atoms: N_7  and  C_8
REMARK                            x       y       z     vdW  Elec       q    Type
REMARK                         _______ _______ _______ _____ _____    ______ ____
ROOT
ATOM      1  C   UNL     1       5.065   5.616  16.496  0.00  0.00    +0.000 C 
ATOM      2  O   UNL     1       4.605   6.695  16.127  0.00  0.00    +0.000 OA
ATOM      3  N   UNL     1       4.328   4.689  17.226  0.00  0.00    +0.000 N 
ATOM      4  H   UNL     1       4.664   3.733  17.136  0.00  0.00    +0.000 HD
ENDROOT
BRANCH   3   5
ATOM      5  C   UNL     1       2.937   4.931  17.608  0.00  0.00    +0.000 C 
ATOM      6  C   UNL     1       2.816   5.679  18.951  0.00  0.00    +0.000 C 
ATOM      7  C   UNL     1       3.449   4.904  20.095  0.00  0.00    +0.000 C 
ATOM      8  S   UNL     1       2.576   3.379  20.371  0.00  0.00    +0.000 S 
ATOM      9  O   UNL     1       3.386   2.539  21.226  0.00  0.00    +0.000 OA
ATOM     10  O   UNL     1       1.207   3.705  20.729  0.00  0.00    +0.000 OA
ATOM     11  C   UNL     1       2.554   2.648  18.748  0.00  0.00    +0.000 C 
ATOM     12  C   UNL     1       2.127   3.623  17.655  0.00  0.00    +0.000 C 
ENDBRANCH   3   5
BRANCH   1  13
ATOM     13  C   UNL     1       6.528   5.208  16.184  0.00  0.00    +0.000 C 
BRANCH  13  14
ATOM     14  C   UNL     1       6.681   4.814  14.719  0.00  0.00    +0.000 A 
ATOM     15  C   UNL     1       5.847   3.822  14.169  0.00  0.00    +0.000 A 
ATOM     16  C   UNL     1       5.967   3.456  12.827  0.00  0.00    +0.000 A 
ATOM     17  C   UNL     1       6.917   4.072  12.015  0.00  0.00    +0.000 A 
ATOM     18  C   UNL     1       7.748   5.056  12.544  0.00  0.00    +0.000 A 
ATOM     19  C   UNL     1       7.631   5.424  13.886  0.00  0.00    +0.000 A 
ENDBRANCH  13  14
BRANCH  13  20
ATOM     20  O   UNL     1       7.468   6.237  16.505  0.00  0.00    +0.000 OA
BRANCH  20  22
ATOM     21  C   UNL     1       7.780   5.553  18.768  0.00  0.00    +0.000 C 
ATOM     22  C   UNL     1       7.356   6.688  17.854  0.00  0.00    +0.000 C 
ENDBRANCH  20  22
ENDBRANCH  13  20
ENDBRANCH   1  13
TORSDOF 5
ENDMDL
MODEL 3
REMARK VINA RESULT:      -7.3      1.658      3.640
REMARK  Name = 
REMARK  6 active torsions:
REMARK  status: ('A' for Active; 'I' for Inactive)
REMARK    1  A    between atoms: C_1  and  C_2
REMARK    2  A    between atoms: C_2  and  O_3
REMARK    3  A    between atoms: O_3  and  C_4
REMARK    4  A    between atoms: C_4  and  C_5
REMARK    5  A    between atoms: C_4  and  C_16
REMARK    6  A    between atoms: N_7  and  C_8
REMARK                            x       y       z     vdW  Elec       q    Type
REMARK                         _______ _______ _______ _____ _____    ______ ____
ROOT
ATOM      1  C   UNL     1       3.548   5.480  17.500  0.00  0.00    +0.000 C 
ATOM      2  O   UNL     1       3.127   6.602  17.778  0.00  0.00    +0.000 OA
ATOM      3  N   UNL     1       2.906   4.310  17.894  0.00  0.00    +0.000 N 
ATOM      4  H   UNL     1       3.116   3.508  17.306  0.00  0.00    +0.000 HD
ENDROOT
BRANCH   3   5
ATOM      5  C   UNL     1       1.667   4.330  18.671  0.00  0.00    +0.000 C 
ATOM      6  C   UNL     1       1.840   5.023  20.038  0.00  0.00    +0.000 C 
ATOM      7  C   UNL     1       2.881   4.330  20.902  0.00  0.00    +0.000 C 
ATOM      8  S   UNL     1       2.348   2.684  21.316  0.00  0.00    +0.000 S 
ATOM      9  O   UNL     1       3.480   1.959  21.850  0.00  0.00    +0.000 OA
ATOM     10  O   UNL     1       1.111   2.790  22.071  0.00  0.00    +0.000 OA
ATOM     11  C   UNL     1       1.956   1.992  19.724  0.00  0.00    +0.000 C 
ATOM     12  C   UNL     1       1.097   2.914  18.863  0.00  0.00    +0.000 C 
ENDBRANCH   3   5
BRANCH   1  13
ATOM     13  C   UNL     1       4.856   5.283  16.691  0.00  0.00    +0.000 C 
BRANCH  13  14
ATOM     14  C   UNL     1       6.046   5.893  17.423  0.00  0.00    +0.000 A 
ATOM     15  C   UNL     1       6.582   7.120  16.988  0.00  0.00    +0.000 A 
ATOM     16  C   UNL     1       7.665   7.699  17.654  0.00  0.00    +0.000 A 
ATOM     17  C   UNL     1       8.228   7.064  18.758  0.00  0.00    +0.000 A 
ATOM     18  C   UNL     1       7.709   5.849  19.200  0.00  0.00    +0.000 A 
ATOM     19  C   UNL     1       6.627   5.269  18.537  0.00  0.00    +0.000 A 
ENDBRANCH  13  14
BRANCH  13  20
ATOM     20  O   UNL     1       5.124   3.908  16.402  0.00  0.00    +0.000 OA
BRANCH  20  22
ATOM     21  C   UNL     1       5.598   4.246  14.090  0.00  0.00    +0.000 C 
ATOM     22  C   UNL     1       6.138   3.737  15.414  0.00  0.00    +0.000 C 
ENDBRANCH  20  22
ENDBRANCH  13  20
ENDBRANCH   1  13
TORSDOF 5
ENDMDL
MODEL 4
REMARK VINA RESULT:      -7.1      1.601      3.779
REMARK  Name = 
REMARK  6 active torsions:
REMARK  status: ('A' for Active; 'I' for Inactive)
REMARK    1  A    between atoms: C_1  and  C_2
REMARK    2  A    between atoms: C_2  and  O_3
REMARK    3  A    between atoms: O_3  and  C_4
REMARK    4  A    between atoms: C_4  and  C_5
REMARK    5  A    between atoms: C_4  and  C_16
REMARK    6  A    between atoms: N_7  and  C_8
REMARK                            x       y       z     vdW  Elec       q    Type
REMARK                         _______ _______ _______ _____ _____    ______ ____
ROOT
ATOM      1  C   UNL     1       3.460   5.711  17.525  0.00  0.00    +0.000 C 
ATOM      2  O   UNL     1       3.018   6.798  17.891  0.00  0.00    +0.000 OA
ATOM      3  N   UNL     1       2.866   4.499  17.862  0.00  0.00    +0.000 N 
ATOM      4  H   UNL     1       3.077   3.743  17.216  0.00  0.00    +0.000 HD
ENDROOT
BRANCH   3   5
ATOM      5  C   UNL     1       1.656   4.431  18.681  0.00  0.00    +0.000 C 
ATOM      6  C   UNL     1       1.853   5.056  20.077  0.00  0.00    +0.000 C 
ATOM      7  C   UNL     1       2.948   4.358  20.866  0.00  0.00    +0.000 C 
ATOM      8  S   UNL     1       2.490   2.673  21.209  0.00  0.00    +0.000 S 
ATOM      9  O   UNL     1       3.666   1.965  21.663  0.00  0.00    +0.000 OA
ATOM     10  O   UNL     1       1.278   2.693  22.009  0.00  0.00    +0.000 OA
ATOM     11  C   UNL     1       2.066   2.053  19.596  0.00  0.00    +0.000 C 
ATOM     12  C   UNL     1       1.144   2.985  18.816  0.00  0.00    +0.000 C 
ENDBRANCH   3   5
BRANCH   1  13
ATOM     13  C   UNL     1       4.743   5.606  16.660  0.00  0.00    +0.000 C 
BRANCH  13  14
ATOM     14  C   UNL     1       5.966   6.070  17.443  0.00  0.00    +0.000 A 
ATOM     15  C   UNL     1       6.418   5.321  18.546  0.00  0.00    +0.000 A 
ATOM     16  C   UNL     1       7.544   5.726  19.267  0.00  0.00    +0.000 A 
ATOM     17  C   UNL     1       8.231   6.881  18.902  0.00  0.00    +0.000 A 
ATOM     18  C   UNL     1       7.796   7.633  17.813  0.00  0.00    +0.000 A 
ATOM     19  C   UNL     1       6.672   7.230  17.090  0.00  0.00    +0.000 A 
ENDBRANCH  13  14
BRANCH  13  20
ATOM     20  O   UNL     1       4.966   4.284  16.162  0.00  0.00    +0.000 OA
BRANCH  20  22
ATOM     21  C   UNL     1       5.725   3.890  13.936  0.00  0.00    +0.000 C 
ATOM     22  C   UNL     1       6.144   4.184  15.365  0.00  0.00    +0.000 C 
ENDBRANCH  20  22
ENDBRANCH  13  20
ENDBRANCH   1  13
TORSDOF 5
ENDMDL
MODEL 5
REMARK VINA RESULT:      -6.9      3.097      7.271
REMARK  Name = 
REMARK  6 active torsions:
REMARK  status: ('A' for Active; 'I' for Inactive)
REMARK    1  A    between atoms: C_1  and  C_2
REMARK    2  A    between atoms: C_2  and  O_3
REMARK    3  A    between atoms: O_3  and  C_4
REMARK    4  A    between atoms: C_4  and  C_5
REMARK    5  A    between atoms: C_4  and  C_16
REMARK    6  A    between atoms: N_7  and  C_8
REMARK                            x       y       z     vdW  Elec       q    Type
REMARK                         _______ _______ _______ _____ _____    ______ ____
ROOT
ATOM      1  C   UNL     1       2.673   6.039  18.649  0.00  0.00    +0.000 C 
ATOM      2  O   UNL     1       1.877   5.461  17.911  0.00  0.00    +0.000 OA
ATOM      3  N   UNL     1       3.973   6.351  18.265  0.00  0.00    +0.000 N 
ATOM      4  H   UNL     1       4.379   7.128  18.779  0.00  0.00    +0.000 HD
ENDROOT
BRANCH   3   5
ATOM      5  C   UNL     1       4.492   6.014  16.940  0.00  0.00    +0.000 C 
ATOM      6  C   UNL     1       4.792   4.508  16.789  0.00  0.00    +0.000 C 
ATOM      7  C   UNL     1       5.826   4.028  17.793  0.00  0.00    +0.000 C 
ATOM      8  S   UNL     1       7.395   4.811  17.492  0.00  0.00    +0.000 S 
ATOM      9  O   UNL     1       8.245   4.583  18.640  0.00  0.00    +0.000 OA
ATOM     10  O   UNL     1       7.832   4.439  16.157  0.00  0.00    +0.000 OA
ATOM     11  C   UNL     1       6.965   6.537  17.462  0.00  0.00    +0.000 C 
ATOM     12  C   UNL     1       5.746   6.839  16.596  0.00  0.00    +0.000 C 
ENDBRANCH   3   5
BRANCH   1  13
ATOM     13  C   UNL     1       2.285   6.457  20.090  0.00  0.00    +0.000 C 
BRANCH  13  14
ATOM     14  C   UNL     1       1.637   7.837  20.101  0.00  0.00    +0.000 A 
ATOM     15  C   UNL     1       0.986   8.296  21.261  0.00  0.00    +0.000 A 
ATOM     16  C   UNL     1       0.396   9.562  21.292  0.00  0.00    +0.000 A 
ATOM     17  C   UNL     1       0.446  10.385  20.169  0.00  0.00    +0.000 A 
ATOM     18  C   UNL     1       1.086   9.944  19.014  0.00  0.00    +0.000 A 
ATOM     19  C   UNL     1       1.677   8.680  18.980  0.00  0.00    +0.000 A 
ENDBRANCH  13  14
BRANCH  13  20
ATOM     20  O   UNL     1       1.416   5.514  20.724  0.00  0.00    +0.000 OA
BRANCH  20  22
ATOM     21  C   UNL     1       1.244   3.139  20.859  0.00  0.00    +0.000 C 
ATOM     22  C   UNL     1       2.102   4.350  21.181  0.00  0.00    +0.000 C 
ENDBRANCH  20  22
ENDBRANCH  13  20
ENDBRANCH   1  13
TORSDOF 5
ENDMDL
MODEL 6
REMARK VINA RESULT:      -6.9      3.093      7.238
REMARK  Name = 
REMARK  6 active torsions:
REMARK  status: ('A' for Active; 'I' for Inactive)
REMARK    1  A    between atoms: C_1  and  C_2
REMARK    2  A    between atoms: C_2  and  O_3
REMARK    3  A    between atoms: O_3  and  C_4
REMARK    4  A    between atoms: C_4  and  C_5
REMARK    5  A    between atoms: C_4  and  C_16
REMARK    6  A    between atoms: N_7  and  C_8
REMARK                            x       y       z     vdW  Elec       q    Type
REMARK                         _______ _______ _______ _____ _____    ______ ____
ROOT
ATOM      1  C   UNL     1       2.650   5.981  18.671  0.00  0.00    +0.000 C 
ATOM      2  O   UNL     1       1.855   5.389  17.943  0.00  0.00    +0.000 OA
ATOM      3  N   UNL     1       3.943   6.309  18.273  0.00  0.00    +0.000 N 
ATOM      4  H   UNL     1       4.343   7.094  18.780  0.00  0.00    +0.000 HD
ENDROOT
BRANCH   3   5
ATOM      5  C   UNL     1       4.453   5.973  16.944  0.00  0.00    +0.000 C 
ATOM      6  C   UNL     1       4.770   4.471  16.796  0.00  0.00    +0.000 C 
ATOM      7  C   UNL     1       5.820   4.008  17.792  0.00  0.00    +0.000 C 
ATOM      8  S   UNL     1       7.375   4.809  17.473  0.00  0.00    +0.000 S 
ATOM      9  O   UNL     1       8.240   4.597  18.613  0.00  0.00    +0.000 OA
ATOM     10  O   UNL     1       7.804   4.438  16.135  0.00  0.00    +0.000 OA
ATOM     11  C   UNL     1       6.924   6.530  17.440  0.00  0.00    +0.000 C 
ATOM     12  C   UNL     1       5.692   6.813  16.585  0.00  0.00    +0.000 C 
ENDBRANCH   3   5
BRANCH   1  13
ATOM     13  C   UNL     1       2.271   6.399  20.115  0.00  0.00    +0.000 C 
BRANCH  13  14
ATOM     14  C   UNL     1       1.643   7.789  20.131  0.00  0.00    +0.000 A 
ATOM     15  C   UNL     1       1.706   8.599  18.981  0.00  0.00    +0.000 A 
ATOM     16  C   UNL     1       1.127   9.870  18.975  0.00  0.00    +0.000 A 
ATOM     17  C   UNL     1       0.479  10.350  20.111  0.00  0.00    +0.000 A 
ATOM     18  C   UNL     1       0.409   9.560  21.255  0.00  0.00    +0.000 A 
ATOM     19  C   UNL     1       0.987   8.289  21.265  0.00  0.00    +0.000 A 
ENDBRANCH  13  14
BRANCH  13  20
ATOM     20  O   UNL     1       1.390   5.467  20.746  0.00  0.00    +0.000 OA
BRANCH  20  22
ATOM     21  C   UNL     1       1.267   3.086  20.777  0.00  0.00    +0.000 C 
ATOM     22  C   UNL     1       2.063   4.301  21.217  0.00  0.00    +0.000 C 
ENDBRANCH  20  22
ENDBRANCH  13  20
ENDBRANCH   1  13
TORSDOF 5
ENDMDL
MODEL 7
REMARK VINA RESULT:      -6.8      1.061      1.195
REMARK  Name = 
REMARK  6 active torsions:
REMARK  status: ('A' for Active; 'I' for Inactive)
REMARK    1  A    between atoms: C_1  and  C_2
REMARK    2  A    between atoms: C_2  and  O_3
REMARK    3  A    between atoms: O_3  and  C_4
REMARK    4  A    between atoms: C_4  and  C_5
REMARK    5  A    between atoms: C_4  and  C_16
REMARK    6  A    between atoms: N_7  and  C_8
REMARK                            x       y       z     vdW  Elec       q    Type
REMARK                         _______ _______ _______ _____ _____    ______ ____
ROOT
ATOM      1  C   UNL     1       4.537   5.757  16.948  0.00  0.00    +0.000 C 
ATOM      2  O   UNL     1       3.939   6.814  16.754  0.00  0.00    +0.000 OA
ATOM      3  N   UNL     1       3.932   4.635  17.505  0.00  0.00    +0.000 N 
ATOM      4  H   UNL     1       4.388   3.759  17.264  0.00  0.00    +0.000 HD
ENDROOT
BRANCH   3   5
ATOM      5  C   UNL     1       2.524   4.630  17.900  0.00  0.00    +0.000 C 
ATOM      6  C   UNL     1       2.290   5.325  19.257  0.00  0.00    +0.000 C 
ATOM      7  C   UNL     1       3.057   4.653  20.383  0.00  0.00    +0.000 C 
ATOM      8  S   UNL     1       2.461   2.997  20.639  0.00  0.00    +0.000 S 
ATOM      9  O   UNL     1       3.410   2.295  21.475  0.00  0.00    +0.000 OA
ATOM     10  O   UNL     1       1.059   3.078  21.013  0.00  0.00    +0.000 OA
ATOM     11  C   UNL     1       2.547   2.298  19.005  0.00  0.00    +0.000 C 
ATOM     12  C   UNL     1       1.950   3.202  17.932  0.00  0.00    +0.000 C 
ENDBRANCH   3   5
BRANCH   1  13
ATOM     13  C   UNL     1       6.038   5.598  16.595  0.00  0.00    +0.000 C 
BRANCH  13  14
ATOM     14  C   UNL     1       6.209   5.002  15.201  0.00  0.00    +0.000 A 
ATOM     15  C   UNL     1       7.347   5.322  14.437  0.00  0.00    +0.000 A 
ATOM     16  C   UNL     1       7.525   4.778  13.163  0.00  0.00    +0.000 A 
ATOM     17  C   UNL     1       6.573   3.910  12.634  0.00  0.00    +0.000 A 
ATOM     18  C   UNL     1       5.442   3.584  13.378  0.00  0.00    +0.000 A 
ATOM     19  C   UNL     1       5.261   4.126  14.652  0.00  0.00    +0.000 A 
ENDBRANCH  13  14
BRANCH  13  20
ATOM     20  O   UNL     1       6.760   6.830  16.682  0.00  0.00    +0.000 OA
BRANCH  20  22
ATOM     21  C   UNL     1       8.109   8.327  17.956  0.00  0.00    +0.000 C 
ATOM     22  C   UNL     1       7.588   6.906  17.841  0.00  0.00    +0.000 C 
ENDBRANCH  20  22
ENDBRANCH  13  20
ENDBRANCH   1  13
TORSDOF 5
ENDMDL
MODEL 8
REMARK VINA RESULT:      -6.7      1.304      1.590
REMARK  Name = 
REMARK  6 active torsions:
REMARK  status: ('A' for Active; 'I' for Inactive)
REMARK    1  A    between atoms: C_1  and  C_2
REMARK    2  A    between atoms: C_2  and  O_3
REMARK    3  A    between atoms: O_3  and  C_4
REMARK    4  A    between atoms: C_4  and  C_5
REMARK    5  A    between atoms: C_4  and  C_16
REMARK    6  A    between atoms: N_7  and  C_8
REMARK                            x       y       z     vdW  Elec       q    Type
REMARK                         _______ _______ _______ _____ _____    ______ ____
ROOT
ATOM      1  C   UNL     1       4.896   6.311  17.303  0.00  0.00    +0.000 C 
ATOM      2  O   UNL     1       4.308   7.282  16.830  0.00  0.00    +0.000 OA
ATOM      3  N   UNL     1       4.333   5.481  18.267  0.00  0.00    +0.000 N 
ATOM      4  H   UNL     1       4.730   4.546  18.288  0.00  0.00    +0.000 HD
ENDROOT
BRANCH   3   5
ATOM      5  C   UNL     1       2.985   5.703  18.790  0.00  0.00    +0.000 C 
ATOM      6  C   UNL     1       2.800   5.128  20.209  0.00  0.00    +0.000 C 
ATOM      7  C   UNL     1       3.039   3.628  20.253  0.00  0.00    +0.000 C 
ATOM      8  S   UNL     1       1.818   2.775  19.281  0.00  0.00    +0.000 S 
ATOM      9  O   UNL     1       2.262   1.412  19.086  0.00  0.00    +0.000 OA
ATOM     10  O   UNL     1       0.513   3.057  19.854  0.00  0.00    +0.000 OA
ATOM     11  C   UNL     1       1.916   3.614  17.715  0.00  0.00    +0.000 C 
ATOM     12  C   UNL     1       1.911   5.134  17.845  0.00  0.00    +0.000 C 
ENDBRANCH   3   5
BRANCH   1  13
ATOM     13  C   UNL     1       6.336   5.942  16.865  0.00  0.00    +0.000 C 
BRANCH  13  14
ATOM     14  C   UNL     1       6.329   5.226  15.520  0.00  0.00    +0.000 A 
ATOM     15  C   UNL     1       7.401   5.404  14.625  0.00  0.00    +0.000 A 
ATOM     16  C   UNL     1       7.416   4.747  13.393  0.00  0.00    +0.000 A 
ATOM     17  C   UNL     1       6.365   3.906  13.035  0.00  0.00    +0.000 A 
ATOM     18  C   UNL     1       5.297   3.720  13.909  0.00  0.00    +0.000 A 
ATOM     19  C   UNL     1       5.280   4.375  15.142  0.00  0.00    +0.000 A 
ENDBRANCH  13  14
BRANCH  13  20
ATOM     20  O   UNL     1       7.201   7.079  16.799  0.00  0.00    +0.000 OA
BRANCH  20  22
ATOM     21  C   UNL     1       7.882   6.089  18.859  0.00  0.00    +0.000 C 
ATOM     22  C   UNL     1       7.830   7.370  18.046  0.00  0.00    +0.000 C 
ENDBRANCH  20  22
ENDBRANCH  13  20
ENDBRANCH   1  13
TORSDOF 5
ENDMDL
MODEL 9
REMARK VINA RESULT:      -6.7      3.008      7.046
REMARK  Name = 
REMARK  6 active torsions:
REMARK  status: ('A' for Active; 'I' for Inactive)
REMARK    1  A    between atoms: C_1  and  C_2
REMARK    2  A    between atoms: C_2  and  O_3
REMARK    3  A    between atoms: O_3  and  C_4
REMARK    4  A    between atoms: C_4  and  C_5
REMARK    5  A    between atoms: C_4  and  C_16
REMARK    6  A    between atoms: N_7  and  C_8
REMARK                            x       y       z     vdW  Elec       q    Type
REMARK                         _______ _______ _______ _____ _____    ______ ____
ROOT
ATOM      1  C   UNL     1       3.090   5.019  18.994  0.00  0.00    +0.000 C 
ATOM      2  O   UNL     1       2.336   4.557  18.140  0.00  0.00    +0.000 OA
ATOM      3  N   UNL     1       4.476   4.991  18.878  0.00  0.00    +0.000 N 
ATOM      4  H   UNL     1       4.949   5.710  19.419  0.00  0.00    +0.000 HD
ENDROOT
BRANCH   3   5
ATOM      5  C   UNL     1       5.144   4.405  17.716  0.00  0.00    +0.000 C 
ATOM      6  C   UNL     1       6.671   4.298  17.906  0.00  0.00    +0.000 C 
ATOM      7  C   UNL     1       7.314   5.655  18.136  0.00  0.00    +0.000 C 
ATOM      8  S   UNL     1       7.131   6.683  16.696  0.00  0.00    +0.000 S 
ATOM      9  O   UNL     1       7.458   8.043  17.062  0.00  0.00    +0.000 OA
ATOM     10  O   UNL     1       7.806   6.027  15.589  0.00  0.00    +0.000 OA
ATOM     11  C   UNL     1       5.380   6.605  16.386  0.00  0.00    +0.000 C 
ATOM     12  C   UNL     1       4.825   5.185  16.427  0.00  0.00    +0.000 C 
ENDBRANCH   3   5
BRANCH   1  13
ATOM     13  C   UNL     1       2.543   5.667  20.293  0.00  0.00    +0.000 C 
BRANCH  13  14
ATOM     14  C   UNL     1       2.031   7.077  20.023  0.00  0.00    +0.000 A 
ATOM     15  C   UNL     1       2.233   7.667  18.761  0.00  0.00    +0.000 A 
ATOM     16  C   UNL     1       1.761   8.954  18.493  0.00  0.00    +0.000 A 
ATOM     17  C   UNL     1       1.083   9.670  19.477  0.00  0.00    +0.000 A 
ATOM     18  C   UNL     1       0.875   9.100  20.730  0.00  0.00    +0.000 A 
ATOM     19  C   UNL     1       1.345   7.814  21.001  0.00  0.00    +0.000 A 
ENDBRANCH  13  14
BRANCH  13  20
ATOM     20  O   UNL     1       1.511   4.890  20.905  0.00  0.00    +0.000 OA
BRANCH  20  22
ATOM     21  C   UNL     1       1.411   2.507  20.933  0.00  0.00    +0.000 C 
ATOM     22  C   UNL     1       2.012   3.740  21.584  0.00  0.00    +0.000 C 
ENDBRANCH  20  22
ENDBRANCH  13  20
ENDBRANCH   1  13
TORSDOF 5
ENDMDL
