MODEL 1
REMARK VINA RESULT:      -7.4      0.000      0.000
REMARK  Name = 
REMARK  8 active torsions:
REMARK  status: ('A' for Active; 'I' for Inactive)
REMARK    1  A    between atoms: C_1  and  C_2
REMARK    2  A    between atoms: C_2  and  C_3
REMARK    3  A    between atoms: C_2  and  C_18
REMARK    4  A    between atoms: C_3  and  N_4
REMARK    5  A    between atoms: N_4  and  C_5
REMARK    6  A    between atoms: C_8  and  O_9
REMARK    7  A    between atoms: O_9  and  C_10
REMARK    8  A    between atoms: C_18  and  O_20
REMARK                            x       y       z     vdW  Elec       q    Type
REMARK                         _______ _______ _______ _____ _____    ______ ____
ROOT
ATOM      1  C   UNL     1       4.568   5.646  18.847  0.00  0.00    +0.000 A 
ATOM      2  C   UNL     1       5.801   4.984  18.903  0.00  0.00    +0.000 A 
ATOM      3  C   UNL     1       6.684   5.000  17.821  0.00  0.00    +0.000 A 
ATOM      4  C   UNL     1       6.366   5.717  16.672  0.00  0.00    +0.000 A 
ATOM      5  C   UNL     1       5.199   6.480  16.643  0.00  0.00    +0.000 A 
ATOM      6  C   UNL     1       4.298   6.423  17.712  0.00  0.00    +0.000 A 
ENDROOT
BRANCH   1   7
ATOM      7  N   UNL     1       3.646   5.665  19.902  0.00  0.00    +0.000 N 
ATOM      8  H   UNL     1       3.573   6.594  20.310  0.00  0.00    +0.000 HD
BRANCH   7   9
ATOM      9  C   UNL     1       2.381   4.952  19.732  0.00  0.00    +0.000 C 
BRANCH   9  11
ATOM     10  C   UNL     1       1.832   2.746  18.581  0.00  0.00    +0.000 C 
ATOM     11  C   UNL     1       2.570   3.433  19.726  0.00  0.00    +0.000 C 
BRANCH  11  12
ATOM     12  C   UNL     1       2.053   2.903  21.048  0.00  0.00    +0.000 C 
ATOM     13  O   UNL     1       2.757   2.530  21.975  0.00  0.00    +0.000 OA
BRANCH  12  14
ATOM     14  O   UNL     1       0.703   2.887  21.131  0.00  0.00    +0.000 OA
ATOM     15  H   UNL     1       0.245   2.724  20.284  0.00  0.00    +0.000 HD
ENDBRANCH  12  14
ENDBRANCH  11  12
ENDBRANCH   9  11
ENDBRANCH   7   9
ENDBRANCH   1   7
BRANCH   4  16
ATOM     16  O   UNL     1       7.292   5.668  15.658  0.00  0.00    +0.000 OA
BRANCH  16  17
ATOM     17  C   UNL     1       7.002   4.982  14.500  0.00  0.00    +0.000 A 
ATOM     18  C   UNL     1       7.760   5.339  13.384  0.00  0.00    +0.000 A 
ATOM     19  C   UNL     1       7.532   4.721  12.154  0.00  0.00    +0.000 A 
ATOM     20  C   UNL     1       6.546   3.742  12.039  0.00  0.00    +0.000 A 
ATOM     21  C   UNL     1       5.817   3.352  13.162  0.00  0.00    +0.000 A 
ATOM     22  C   UNL     1       6.067   3.949  14.398  0.00  0.00    +0.000 A 
ENDBRANCH  16  17
ENDBRANCH   4  16
TORSDOF 7
ENDMDL
MODEL 2
REMARK VINA RESULT:      -7.2      1.298      2.191
REMARK  Name = 
REMARK  8 active torsions:
REMARK  status: ('A' for Active; 'I' for Inactive)
REMARK    1  A    between atoms: C_1  and  C_2
REMARK    2  A    between atoms: C_2  and  C_3
REMARK    3  A    between atoms: C_2  and  C_18
REMARK    4  A    between atoms: C_3  and  N_4
REMARK    5  A    between atoms: N_4  and  C_5
REMARK    6  A    between atoms: C_8  and  O_9
REMARK    7  A    between atoms: O_9  and  C_10
REMARK    8  A    between atoms: C_18  and  O_20
REMARK                            x       y       z     vdW  Elec       q    Type
REMARK                         _______ _______ _______ _____ _____    ______ ____
ROOT
ATOM      1  C   UNL     1       4.771   5.552  18.646  0.00  0.00    +0.000 A 
ATOM      2  C   UNL     1       4.446   6.116  17.405  0.00  0.00    +0.000 A 
ATOM      3  C   UNL     1       5.370   6.149  16.358  0.00  0.00    +0.000 A 
ATOM      4  C   UNL     1       6.628   5.579  16.521  0.00  0.00    +0.000 A 
ATOM      5  C   UNL     1       6.928   4.909  17.706  0.00  0.00    +0.000 A 
ATOM      6  C   UNL     1       6.016   4.919  18.767  0.00  0.00    +0.000 A 
ENDROOT
BRANCH   1   7
ATOM      7  N   UNL     1       3.884   5.490  19.728  0.00  0.00    +0.000 N 
ATOM      8  H   UNL     1       3.279   6.307  19.757  0.00  0.00    +0.000 HD
BRANCH   7   9
ATOM      9  C   UNL     1       3.229   4.214  20.016  0.00  0.00    +0.000 C 
BRANCH   9  11
ATOM     10  C   UNL     1       0.754   3.707  20.347  0.00  0.00    +0.000 C 
ATOM     11  C   UNL     1       1.847   4.114  19.364  0.00  0.00    +0.000 C 
BRANCH  11  12
ATOM     12  C   UNL     1       1.939   3.083  18.257  0.00  0.00    +0.000 C 
ATOM     13  O   UNL     1       2.169   3.336  17.084  0.00  0.00    +0.000 OA
BRANCH  12  14
ATOM     14  O   UNL     1       1.754   1.814  18.686  0.00  0.00    +0.000 OA
ATOM     15  H   UNL     1       1.014   1.343  18.254  0.00  0.00    +0.000 HD
ENDBRANCH  12  14
ENDBRANCH  11  12
ENDBRANCH   9  11
ENDBRANCH   7   9
ENDBRANCH   1   7
BRANCH   4  16
ATOM     16  O   UNL     1       7.470   5.668  15.439  0.00  0.00    +0.000 OA
BRANCH  16  17
ATOM     17  C   UNL     1       7.153   5.012  14.270  0.00  0.00    +0.000 A 
ATOM     18  C   UNL     1       6.121   4.077  14.366  0.00  0.00    +0.000 A 
ATOM     19  C   UNL     1       5.735   3.341  13.245  0.00  0.00    +0.000 A 
ATOM     20  C   UNL     1       6.380   3.540  12.026  0.00  0.00    +0.000 A 
ATOM     21  C   UNL     1       7.383   4.504  11.916  0.00  0.00    +0.000 A 
ATOM     22  C   UNL     1       7.747   5.261  13.030  0.00  0.00    +0.000 A 
ENDBRANCH  16  17
ENDBRANCH   4  16
TORSDOF 7
ENDMDL
MODEL 3
REMARK VINA RESULT:      -7.2      0.673      1.766
REMARK  Name = 
REMARK  8 active torsions:
REMARK  status: ('A' for Active; 'I' for Inactive)
REMARK    1  A    between atoms: C_1  and  C_2
REMARK    2  A    between atoms: C_2  and  C_3
REMARK    3  A    between atoms: C_2  and  C_18
REMARK    4  A    between atoms: C_3  and  N_4
REMARK    5  A    between atoms: N_4  and  C_5
REMARK    6  A    between atoms: C_8  and  O_9
REMARK    7  A    between atoms: O_9  and  C_10
REMARK    8  A    between atoms: C_18  and  O_20
REMARK                            x       y       z     vdW  Elec       q    Type
REMARK                         _______ _______ _______ _____ _____    ______ ____
ROOT
ATOM      1  C   UNL     1       4.649   5.474  18.793  0.00  0.00    +0.000 A 
ATOM      2  C   UNL     1       4.478   6.415  17.769  0.00  0.00    +0.000 A 
ATOM      3  C   UNL     1       5.366   6.485  16.693  0.00  0.00    +0.000 A 
ATOM      4  C   UNL     1       6.422   5.585  16.600  0.00  0.00    +0.000 A 
ATOM      5  C   UNL     1       6.538   4.567  17.545  0.00  0.00    +0.000 A 
ATOM      6  C   UNL     1       5.673   4.529  18.644  0.00  0.00    +0.000 A 
ENDROOT
BRANCH   1   7
ATOM      7  N   UNL     1       3.788   5.356  19.893  0.00  0.00    +0.000 N 
ATOM      8  H   UNL     1       3.914   6.128  20.543  0.00  0.00    +0.000 HD
BRANCH   7   9
ATOM      9  C   UNL     1       2.402   4.959  19.650  0.00  0.00    +0.000 C 
BRANCH   9  11
ATOM     10  C   UNL     1       0.753   3.020  19.757  0.00  0.00    +0.000 C 
ATOM     11  C   UNL     1       2.218   3.440  19.698  0.00  0.00    +0.000 C 
BRANCH  11  12
ATOM     12  C   UNL     1       2.938   2.932  20.931  0.00  0.00    +0.000 C 
ATOM     13  O   UNL     1       2.555   3.094  22.080  0.00  0.00    +0.000 OA
BRANCH  12  14
ATOM     14  O   UNL     1       4.070   2.248  20.650  0.00  0.00    +0.000 OA
ATOM     15  H   UNL     1       3.962   1.277  20.622  0.00  0.00    +0.000 HD
ENDBRANCH  12  14
ENDBRANCH  11  12
ENDBRANCH   9  11
ENDBRANCH   7   9
ENDBRANCH   1   7
BRANCH   4  16
ATOM     16  O   UNL     1       7.246   5.738  15.511  0.00  0.00    +0.000 OA
BRANCH  16  17
ATOM     17  C   UNL     1       6.980   5.047  14.351  0.00  0.00    +0.000 A 
ATOM     18  C   UNL     1       5.836   4.247  14.375  0.00  0.00    +0.000 A 
ATOM     19  C   UNL     1       5.488   3.487  13.258  0.00  0.00    +0.000 A 
ATOM     20  C   UNL     1       6.282   3.527  12.113  0.00  0.00    +0.000 A 
ATOM     21  C   UNL     1       7.401   4.359  12.069  0.00  0.00    +0.000 A 
ATOM     22  C   UNL     1       7.731   5.141  13.177  0.00  0.00    +0.000 A 
ENDBRANCH  16  17
ENDBRANCH   4  16
TORSDOF 7
ENDMDL
MODEL 4
REMARK VINA RESULT:      -7.2      1.259      1.743
REMARK  Name = 
REMARK  8 active torsions:
REMARK  status: ('A' for Active; 'I' for Inactive)
REMARK    1  A    between atoms: C_1  and  C_2
REMARK    2  A    between atoms: C_2  and  C_3
REMARK    3  A    between atoms: C_2  and  C_18
REMARK    4  A    between atoms: C_3  and  N_4
REMARK    5  A    between atoms: N_4  and  C_5
REMARK    6  A    between atoms: C_8  and  O_9
REMARK    7  A    between atoms: O_9  and  C_10
REMARK    8  A    between atoms: C_18  and  O_20
REMARK                            x       y       z     vdW  Elec       q    Type
REMARK                         _______ _______ _______ _____ _____    ______ ____
ROOT
ATOM      1  C   UNL     1       4.698   5.593  18.782  0.00  0.00    +0.000 A 
ATOM      2  C   UNL     1       4.435   6.349  17.632  0.00  0.00    +0.000 A 
ATOM      3  C   UNL     1       5.328   6.372  16.558  0.00  0.00    +0.000 A 
ATOM      4  C   UNL     1       6.486   5.602  16.598  0.00  0.00    +0.000 A 
ATOM      5  C   UNL     1       6.706   4.752  17.681  0.00  0.00    +0.000 A 
ATOM      6  C   UNL     1       5.831   4.768  18.773  0.00  0.00    +0.000 A 
ENDROOT
BRANCH   1   7
ATOM      7  N   UNL     1       3.838   5.531  19.886  0.00  0.00    +0.000 N 
ATOM      8  H   UNL     1       3.193   6.318  19.894  0.00  0.00    +0.000 HD
BRANCH   7   9
ATOM      9  C   UNL     1       3.256   4.238  20.241  0.00  0.00    +0.000 C 
BRANCH   9  11
ATOM     10  C   UNL     1       0.837   3.512  19.904  0.00  0.00    +0.000 C 
ATOM     11  C   UNL     1       2.183   3.793  19.244  0.00  0.00    +0.000 C 
BRANCH  11  12
ATOM     12  C   UNL     1       2.683   2.534  18.565  0.00  0.00    +0.000 C 
ATOM     13  O   UNL     1       3.804   2.065  18.701  0.00  0.00    +0.000 OA
BRANCH  12  14
ATOM     14  O   UNL     1       1.756   1.940  17.781  0.00  0.00    +0.000 OA
ATOM     15  H   UNL     1       0.832   2.169  17.999  0.00  0.00    +0.000 HD
ENDBRANCH  12  14
ENDBRANCH  11  12
ENDBRANCH   9  11
ENDBRANCH   7   9
ENDBRANCH   1   7
BRANCH   4  16
ATOM     16  O   UNL     1       7.306   5.695  15.500  0.00  0.00    +0.000 OA
BRANCH  16  17
ATOM     17  C   UNL     1       7.002   4.989  14.358  0.00  0.00    +0.000 A 
ATOM     18  C   UNL     1       7.777   5.295  13.237  0.00  0.00    +0.000 A 
ATOM     19  C   UNL     1       7.537   4.652  12.022  0.00  0.00    +0.000 A 
ATOM     20  C   UNL     1       6.523   3.701  11.926  0.00  0.00    +0.000 A 
ATOM     21  C   UNL     1       5.775   3.362  13.053  0.00  0.00    +0.000 A 
ATOM     22  C   UNL     1       6.036   3.983  14.275  0.00  0.00    +0.000 A 
ENDBRANCH  16  17
ENDBRANCH   4  16
TORSDOF 7
ENDMDL
MODEL 5
REMARK VINA RESULT:      -7.1      1.165      1.757
REMARK  Name = 
REMARK  8 active torsions:
REMARK  status: ('A' for Active; 'I' for Inactive)
REMARK    1  A    between atoms: C_1  and  C_2
REMARK    2  A    between atoms: C_2  and  C_3
REMARK    3  A    between atoms: C_2  and  C_18
REMARK    4  A    between atoms: C_3  and  N_4
REMARK    5  A    between atoms: N_4  and  C_5
REMARK    6  A    between atoms: C_8  and  O_9
REMARK    7  A    between atoms: O_9  and  C_10
REMARK    8  A    between atoms: C_18  and  O_20
REMARK                            x       y       z     vdW  Elec       q    Type
REMARK                         _______ _______ _______ _____ _____    ______ ____
ROOT
ATOM      1  C   UNL     1       4.189   4.914  18.789  0.00  0.00    +0.000 A 
ATOM      2  C   UNL     1       5.431   4.283  18.633  0.00  0.00    +0.000 A 
ATOM      3  C   UNL     1       6.275   4.597  17.566  0.00  0.00    +0.000 A 
ATOM      4  C   UNL     1       5.910   5.582  16.654  0.00  0.00    +0.000 A 
ATOM      5  C   UNL     1       4.736   6.304  16.861  0.00  0.00    +0.000 A 
ATOM      6  C   UNL     1       3.872   5.954  17.905  0.00  0.00    +0.000 A 
ENDROOT
BRANCH   1   7
ATOM      7  N   UNL     1       3.305   4.640  19.841  0.00  0.00    +0.000 N 
ATOM      8  H   UNL     1       3.608   5.088  20.703  0.00  0.00    +0.000 HD
BRANCH   7   9
ATOM      9  C   UNL     1       1.868   4.699  19.574  0.00  0.00    +0.000 C 
BRANCH   9  11
ATOM     10  C   UNL     1       1.582   3.017  21.466  0.00  0.00    +0.000 C 
ATOM     11  C   UNL     1       1.136   3.450  20.073  0.00  0.00    +0.000 C 
BRANCH  11  12
ATOM     12  C   UNL     1       1.412   2.334  19.087  0.00  0.00    +0.000 C 
ATOM     13  O   UNL     1       2.505   1.817  18.903  0.00  0.00    +0.000 OA
BRANCH  12  14
ATOM     14  O   UNL     1       0.313   1.928  18.411  0.00  0.00    +0.000 OA
ATOM     15  H   UNL     1       0.453   1.789  17.454  0.00  0.00    +0.000 HD
ENDBRANCH  12  14
ENDBRANCH  11  12
ENDBRANCH   9  11
ENDBRANCH   7   9
ENDBRANCH   1   7
BRANCH   4  16
ATOM     16  O   UNL     1       6.801   5.816  15.635  0.00  0.00    +0.000 OA
BRANCH  16  17
ATOM     17  C   UNL     1       6.705   5.097  14.465  0.00  0.00    +0.000 A 
ATOM     18  C   UNL     1       5.572   4.289  14.346  0.00  0.00    +0.000 A 
ATOM     19  C   UNL     1       5.389   3.502  13.209  0.00  0.00    +0.000 A 
ATOM     20  C   UNL     1       6.337   3.522  12.187  0.00  0.00    +0.000 A 
ATOM     21  C   UNL     1       7.448   4.360  12.283  0.00  0.00    +0.000 A 
ATOM     22  C   UNL     1       7.615   5.169  13.407  0.00  0.00    +0.000 A 
ENDBRANCH  16  17
ENDBRANCH   4  16
TORSDOF 7
ENDMDL
MODEL 6
REMARK VINA RESULT:      -7.1      0.908      1.441
REMARK  Name = 
REMARK  8 active torsions:
REMARK  status: ('A' for Active; 'I' for Inactive)
REMARK    1  A    between atoms: C_1  and  C_2
REMARK    2  A    between atoms: C_2  and  C_3
REMARK    3  A    between atoms: C_2  and  C_18
REMARK    4  A    between atoms: C_3  and  N_4
REMARK    5  A    between atoms: N_4  and  C_5
REMARK    6  A    between atoms: C_8  and  O_9
REMARK    7  A    between atoms: O_9  and  C_10
REMARK    8  A    between atoms: C_18  and  O_20
REMARK                            x       y       z     vdW  Elec       q    Type
REMARK                         _______ _______ _______ _____ _____    ______ ____
ROOT
ATOM      1  C   UNL     1       4.640   5.688  18.784  0.00  0.00    +0.000 A 
ATOM      2  C   UNL     1       5.794   4.894  18.823  0.00  0.00    +0.000 A 
ATOM      3  C   UNL     1       6.691   4.862  17.753  0.00  0.00    +0.000 A 
ATOM      4  C   UNL     1       6.470   5.658  16.635  0.00  0.00    +0.000 A 
ATOM      5  C   UNL     1       5.393   6.544  16.627  0.00  0.00    +0.000 A 
ATOM      6  C   UNL     1       4.474   6.538  17.682  0.00  0.00    +0.000 A 
ENDROOT
BRANCH   1   7
ATOM      7  N   UNL     1       3.710   5.760  19.828  0.00  0.00    +0.000 N 
ATOM      8  H   UNL     1       3.860   6.590  20.398  0.00  0.00    +0.000 HD
BRANCH   7   9
ATOM      9  C   UNL     1       2.312   5.443  19.537  0.00  0.00    +0.000 C 
BRANCH   9  11
ATOM     10  C   UNL     1       1.529   4.274  17.413  0.00  0.00    +0.000 C 
ATOM     11  C   UNL     1       2.165   4.114  18.790  0.00  0.00    +0.000 C 
BRANCH  11  12
ATOM     12  C   UNL     1       1.302   3.206  19.641  0.00  0.00    +0.000 C 
ATOM     13  O   UNL     1       1.272   1.987  19.554  0.00  0.00    +0.000 OA
BRANCH  12  14
ATOM     14  O   UNL     1       0.550   3.870  20.548  0.00  0.00    +0.000 OA
ATOM     15  H   UNL     1      -0.143   4.440  20.161  0.00  0.00    +0.000 HD
ENDBRANCH  12  14
ENDBRANCH  11  12
ENDBRANCH   9  11
ENDBRANCH   7   9
ENDBRANCH   1   7
BRANCH   4  16
ATOM     16  O   UNL     1       7.402   5.553  15.630  0.00  0.00    +0.000 OA
BRANCH  16  17
ATOM     17  C   UNL     1       7.061   4.945  14.443  0.00  0.00    +0.000 A 
ATOM     18  C   UNL     1       5.920   4.142  14.484  0.00  0.00    +0.000 A 
ATOM     19  C   UNL     1       5.499   3.462  13.341  0.00  0.00    +0.000 A 
ATOM     20  C   UNL     1       6.219   3.584  12.153  0.00  0.00    +0.000 A 
ATOM     21  C   UNL     1       7.335   4.419  12.097  0.00  0.00    +0.000 A 
ATOM     22  C   UNL     1       7.737   5.123  13.233  0.00  0.00    +0.000 A 
ENDBRANCH  16  17
ENDBRANCH   4  16
TORSDOF 7
ENDMDL
MODEL 7
REMARK VINA RESULT:      -7.1      0.860      1.582
REMARK  Name = 
REMARK  8 active torsions:
REMARK  status: ('A' for Active; 'I' for Inactive)
REMARK    1  A    between atoms: C_1  and  C_2
REMARK    2  A    between atoms: C_2  and  C_3
REMARK    3  A    between atoms: C_2  and  C_18
REMARK    4  A    between atoms: C_3  and  N_4
REMARK    5  A    between atoms: N_4  and  C_5
REMARK    6  A    between atoms: C_8  and  O_9
REMARK    7  A    between atoms: O_9  and  C_10
REMARK    8  A    between atoms: C_18  and  O_20
REMARK                            x       y       z     vdW  Elec       q    Type
REMARK                         _______ _______ _______ _____ _____    ______ ____
ROOT
ATOM      1  C   UNL     1       4.749   5.650  18.747  0.00  0.00    +0.000 A 
ATOM      2  C   UNL     1       4.409   6.243  17.523  0.00  0.00    +0.000 A 
ATOM      3  C   UNL     1       5.306   6.261  16.452  0.00  0.00    +0.000 A 
ATOM      4  C   UNL     1       6.548   5.647  16.572  0.00  0.00    +0.000 A 
ATOM      5  C   UNL     1       6.856   4.948  17.739  0.00  0.00    +0.000 A 
ATOM      6  C   UNL     1       5.973   4.973  18.824  0.00  0.00    +0.000 A 
ENDROOT
BRANCH   1   7
ATOM      7  N   UNL     1       3.889   5.601  19.852  0.00  0.00    +0.000 N 
ATOM      8  H   UNL     1       3.613   6.534  20.146  0.00  0.00    +0.000 HD
BRANCH   7   9
ATOM      9  C   UNL     1       2.822   4.600  19.858  0.00  0.00    +0.000 C 
BRANCH   9  11
ATOM     10  C   UNL     1       2.143   2.500  18.585  0.00  0.00    +0.000 C 
ATOM     11  C   UNL     1       3.277   3.267  19.258  0.00  0.00    +0.000 C 
BRANCH  11  12
ATOM     12  C   UNL     1       3.850   2.432  20.384  0.00  0.00    +0.000 C 
ATOM     13  O   UNL     1       3.363   2.335  21.501  0.00  0.00    +0.000 OA
BRANCH  12  14
ATOM     14  O   UNL     1       4.976   1.765  20.041  0.00  0.00    +0.000 OA
ATOM     15  H   UNL     1       5.422   2.105  19.241  0.00  0.00    +0.000 HD
ENDBRANCH  12  14
ENDBRANCH  11  12
ENDBRANCH   9  11
ENDBRANCH   7   9
ENDBRANCH   1   7
BRANCH   4  16
ATOM     16  O   UNL     1       7.363   5.723  15.469  0.00  0.00    +0.000 OA
BRANCH  16  17
ATOM     17  C   UNL     1       7.052   5.004  14.337  0.00  0.00    +0.000 A 
ATOM     18  C   UNL     1       7.799   5.317  13.200  0.00  0.00    +0.000 A 
ATOM     19  C   UNL     1       7.549   4.663  11.994  0.00  0.00    +0.000 A 
ATOM     20  C   UNL     1       6.551   3.692  11.923  0.00  0.00    +0.000 A 
ATOM     21  C   UNL     1       5.832   3.345  13.066  0.00  0.00    +0.000 A 
ATOM     22  C   UNL     1       6.104   3.979  14.279  0.00  0.00    +0.000 A 
ENDBRANCH  16  17
ENDBRANCH   4  16
TORSDOF 7
ENDMDL
MODEL 8
REMARK VINA RESULT:      -7.1      1.087      1.300
REMARK  Name = 
REMARK  8 active torsions:
REMARK  status: ('A' for Active; 'I' for Inactive)
REMARK    1  A    between atoms: C_1  and  C_2
REMARK    2  A    between atoms: C_2  and  C_3
REMARK    3  A    between atoms: C_2  and  C_18
REMARK    4  A    between atoms: C_3  and  N_4
REMARK    5  A    between atoms: N_4  and  C_5
REMARK    6  A    between atoms: C_8  and  O_9
REMARK    7  A    between atoms: O_9  and  C_10
REMARK    8  A    between atoms: C_18  and  O_20
REMARK                            x       y       z     vdW  Elec       q    Type
REMARK                         _______ _______ _______ _____ _____    ______ ____
ROOT
ATOM      1  C   UNL     1       4.929   5.561  18.695  0.00  0.00    +0.000 A 
ATOM      2  C   UNL     1       6.123   4.831  18.626  0.00  0.00    +0.000 A 
ATOM      3  C   UNL     1       6.927   4.862  17.485  0.00  0.00    +0.000 A 
ATOM      4  C   UNL     1       6.572   5.661  16.403  0.00  0.00    +0.000 A 
ATOM      5  C   UNL     1       5.453   6.486  16.500  0.00  0.00    +0.000 A 
ATOM      6  C   UNL     1       4.626   6.416  17.627  0.00  0.00    +0.000 A 
ENDROOT
BRANCH   1   7
ATOM      7  N   UNL     1       4.086   5.569  19.814  0.00  0.00    +0.000 N 
ATOM      8  H   UNL     1       3.958   6.512  20.172  0.00  0.00    +0.000 HD
BRANCH   7   9
ATOM      9  C   UNL     1       2.881   4.740  19.782  0.00  0.00    +0.000 C 
BRANCH   9  11
ATOM     10  C   UNL     1       1.528   3.590  17.956  0.00  0.00    +0.000 C 
ATOM     11  C   UNL     1       2.894   3.748  18.617  0.00  0.00    +0.000 C 
BRANCH  11  12
ATOM     12  C   UNL     1       3.347   2.409  19.161  0.00  0.00    +0.000 C 
ATOM     13  O   UNL     1       3.366   1.366  18.525  0.00  0.00    +0.000 OA
BRANCH  12  14
ATOM     14  O   UNL     1       3.758   2.462  20.449  0.00  0.00    +0.000 OA
ATOM     15  H   UNL     1       4.095   1.616  20.802  0.00  0.00    +0.000 HD
ENDBRANCH  12  14
ENDBRANCH  11  12
ENDBRANCH   9  11
ENDBRANCH   7   9
ENDBRANCH   1   7
BRANCH   4  16
ATOM     16  O   UNL     1       7.421   5.620  15.323  0.00  0.00    +0.000 OA
BRANCH  16  17
ATOM     17  C   UNL     1       7.058   4.923  14.194  0.00  0.00    +0.000 A 
ATOM     18  C   UNL     1       7.796   5.213  13.044  0.00  0.00    +0.000 A 
ATOM     19  C   UNL     1       7.495   4.577  11.839  0.00  0.00    +0.000 A 
ATOM     20  C   UNL     1       6.456   3.649  11.781  0.00  0.00    +0.000 A 
ATOM     21  C   UNL     1       5.746   3.325  12.937  0.00  0.00    +0.000 A 
ATOM     22  C   UNL     1       6.068   3.938  14.148  0.00  0.00    +0.000 A 
ENDBRANCH  16  17
ENDBRANCH   4  16
TORSDOF 7
ENDMDL
MODEL 9
REMARK VINA RESULT:      -7.0      0.816      1.298
REMARK  Name = 
REMARK  8 active torsions:
REMARK  status: ('A' for Active; 'I' for Inactive)
REMARK    1  A    between atoms: C_1  and  C_2
REMARK    2  A    between atoms: C_2  and  C_3
REMARK    3  A    between atoms: C_2  and  C_18
REMARK    4  A    between atoms: C_3  and  N_4
REMARK    5  A    between atoms: N_4  and  C_5
REMARK    6  A    between atoms: C_8  and  O_9
REMARK    7  A    between atoms: O_9  and  C_10
REMARK    8  A    between atoms: C_18  and  O_20
REMARK                            x       y       z     vdW  Elec       q    Type
REMARK                         _______ _______ _______ _____ _____    ______ ____
ROOT
ATOM      1  C   UNL     1       4.941   5.470  18.743  0.00  0.00    +0.000 A 
ATOM      2  C   UNL     1       6.254   4.979  18.748  0.00  0.00    +0.000 A 
ATOM      3  C   UNL     1       7.063   5.057  17.612  0.00  0.00    +0.000 A 
ATOM      4  C   UNL     1       6.585   5.667  16.457  0.00  0.00    +0.000 A 
ATOM      5  C   UNL     1       5.327   6.268  16.471  0.00  0.00    +0.000 A 
ATOM      6  C   UNL     1       4.505   6.147  17.596  0.00  0.00    +0.000 A 
ENDROOT
BRANCH   1   7
ATOM      7  N   UNL     1       4.089   5.420  19.853  0.00  0.00    +0.000 N 
ATOM      8  H   UNL     1       3.623   6.313  20.000  0.00  0.00    +0.000 HD
BRANCH   7   9
ATOM      9  C   UNL     1       3.248   4.237  20.031  0.00  0.00    +0.000 C 
BRANCH   9  11
ATOM     10  C   UNL     1       1.178   5.603  20.617  0.00  0.00    +0.000 C 
ATOM     11  C   UNL     1       1.776   4.522  19.721  0.00  0.00    +0.000 C 
BRANCH  11  12
ATOM     12  C   UNL     1       1.010   3.230  19.911  0.00  0.00    +0.000 C 
ATOM     13  O   UNL     1       0.584   2.529  19.005  0.00  0.00    +0.000 OA
BRANCH  12  14
ATOM     14  O   UNL     1       0.840   2.890  21.209  0.00  0.00    +0.000 OA
ATOM     15  H   UNL     1       0.085   3.329  21.649  0.00  0.00    +0.000 HD
ENDBRANCH  12  14
ENDBRANCH  11  12
ENDBRANCH   9  11
ENDBRANCH   7   9
ENDBRANCH   1   7
BRANCH   4  16
ATOM     16  O   UNL     1       7.450   5.690  15.389  0.00  0.00    +0.000 OA
BRANCH  16  17
ATOM     17  C   UNL     1       7.137   4.995  14.242  0.00  0.00    +0.000 A 
ATOM     18  C   UNL     1       7.848   5.369  13.100  0.00  0.00    +0.000 A 
ATOM     19  C   UNL     1       7.593   4.744  11.880  0.00  0.00    +0.000 A 
ATOM     20  C   UNL     1       6.628   3.741  11.799  0.00  0.00    +0.000 A 
ATOM     21  C   UNL     1       5.947   3.335  12.946  0.00  0.00    +0.000 A 
ATOM     22  C   UNL     1       6.224   3.940  14.172  0.00  0.00    +0.000 A 
ENDBRANCH  16  17
ENDBRANCH   4  16
TORSDOF 7
ENDMDL
