MODEL 1
REMARK VINA RESULT:      -8.2      0.000      0.000
REMARK  Name = 
REMARK  6 active torsions:
REMARK  status: ('A' for Active; 'I' for Inactive)
REMARK    1  A    between atoms: C_1  and  C_2
REMARK    2  A    between atoms: C_2  and  C_4
REMARK    3  A    between atoms: C_7  and  O_8
REMARK    4  A    between atoms: O_8  and  C_9
REMARK    5  A    between atoms: C_9  and  C_10
REMARK    6  A    between atoms: C_16  and  C_17
REMARK                            x       y       z     vdW  Elec       q    Type
REMARK                         _______ _______ _______ _____ _____    ______ ____
ROOT
ATOM      1  C   UNL     1       5.621   5.267  16.681  0.00  0.00    +0.000 A 
ATOM      2  C   UNL     1       5.363   6.605  16.410  0.00  0.00    +0.000 A 
ATOM      3  C   UNL     1       4.248   7.224  16.965  0.00  0.00    +0.000 A 
ATOM      4  C   UNL     1       3.333   6.509  17.762  0.00  0.00    +0.000 A 
ATOM      5  C   UNL     1       3.597   5.155  18.100  0.00  0.00    +0.000 A 
ATOM      6  C   UNL     1       4.764   4.567  17.542  0.00  0.00    +0.000 A 
ENDROOT
BRANCH   5   7
ATOM      7  C   UNL     1       2.717   4.325  18.977  0.00  0.00    +0.000 A 
ATOM      8  C   UNL     1       2.791   4.411  20.385  0.00  0.00    +0.000 A 
ATOM      9  C   UNL     1       1.973   3.645  21.222  0.00  0.00    +0.000 A 
ATOM     10  C   UNL     1       1.056   2.756  20.674  0.00  0.00    +0.000 A 
ATOM     11  C   UNL     1       0.944   2.657  19.293  0.00  0.00    +0.000 A 
ATOM     12  C   UNL     1       1.753   3.441  18.459  0.00  0.00    +0.000 A 
ENDBRANCH   5   7
BRANCH   1  14
ATOM     13  C   UNL     1       6.733   4.299  14.560  0.00  0.00    +0.000 C 
ATOM     14  C   UNL     1       6.807   4.643  16.022  0.00  0.00    +0.000 C 
ATOM     15  O   UNL     1       7.830   4.434  16.669  0.00  0.00    +0.000 OA
ENDBRANCH   1  14
BRANCH   4  16
ATOM     16  O   UNL     1       2.153   7.080  18.203  0.00  0.00    +0.000 OA
BRANCH  16  17
ATOM     17  C   UNL     1       2.186   8.508  18.351  0.00  0.00    +0.000 C 
BRANCH  17  18
ATOM     18  C   UNL     1       1.425   9.053  19.535  0.00  0.00    +0.000 A 
ATOM     19  C   UNL     1       1.318   8.363  20.735  0.00  0.00    +0.000 A 
ATOM     20  C   UNL     1       0.456   8.856  21.713  0.00  0.00    +0.000 A 
ATOM     21  C   UNL     1      -0.272  10.016  21.469  0.00  0.00    +0.000 A 
ATOM     22  C   UNL     1      -0.097  10.651  20.255  0.00  0.00    +0.000 A 
ATOM     23  N   UNL     1       0.729  10.199  19.290  0.00  0.00    +0.000 NA
ENDBRANCH  17  18
ENDBRANCH  16  17
ENDBRANCH   4  16
TORSDOF 5
ENDMDL
MODEL 2
REMARK VINA RESULT:      -8.1      0.883      1.323
REMARK  Name = 
REMARK  6 active torsions:
REMARK  status: ('A' for Active; 'I' for Inactive)
REMARK    1  A    between atoms: C_1  and  C_2
REMARK    2  A    between atoms: C_2  and  C_4
REMARK    3  A    between atoms: C_7  and  O_8
REMARK    4  A    between atoms: O_8  and  C_9
REMARK    5  A    between atoms: C_9  and  C_10
REMARK    6  A    between atoms: C_16  and  C_17
REMARK                            x       y       z     vdW  Elec       q    Type
REMARK                         _______ _______ _______ _____ _____    ______ ____
ROOT
ATOM      1  C   UNL     1       5.375   5.343  16.336  0.00  0.00    +0.000 A 
ATOM      2  C   UNL     1       5.241   6.720  16.202  0.00  0.00    +0.000 A 
ATOM      3  C   UNL     1       4.266   7.397  16.926  0.00  0.00    +0.000 A 
ATOM      4  C   UNL     1       3.366   6.711  17.764  0.00  0.00    +0.000 A 
ATOM      5  C   UNL     1       3.512   5.312  17.963  0.00  0.00    +0.000 A 
ATOM      6  C   UNL     1       4.541   4.661  17.233  0.00  0.00    +0.000 A 
ENDROOT
BRANCH   5   7
ATOM      7  C   UNL     1       2.641   4.501  18.868  0.00  0.00    +0.000 A 
ATOM      8  C   UNL     1       2.741   4.607  20.273  0.00  0.00    +0.000 A 
ATOM      9  C   UNL     1       1.933   3.860  21.136  0.00  0.00    +0.000 A 
ATOM     10  C   UNL     1       1.001   2.969  20.617  0.00  0.00    +0.000 A 
ATOM     11  C   UNL     1       0.863   2.850  19.240  0.00  0.00    +0.000 A 
ATOM     12  C   UNL     1       1.663   3.617  18.380  0.00  0.00    +0.000 A 
ENDBRANCH   5   7
BRANCH   1  14
ATOM     13  C   UNL     1       5.988   3.994  14.220  0.00  0.00    +0.000 C 
ATOM     14  C   UNL     1       6.409   4.663  15.500  0.00  0.00    +0.000 C 
ATOM     15  O   UNL     1       7.585   4.669  15.851  0.00  0.00    +0.000 OA
ENDBRANCH   1  14
BRANCH   4  16
ATOM     16  O   UNL     1       2.310   7.358  18.380  0.00  0.00    +0.000 OA
BRANCH  16  17
ATOM     17  C   UNL     1       2.230   8.769  18.128  0.00  0.00    +0.000 C 
BRANCH  17  18
ATOM     18  C   UNL     1       0.964   9.440  18.603  0.00  0.00    +0.000 A 
ATOM     19  C   UNL     1      -0.108   9.692  17.757  0.00  0.00    +0.000 A 
ATOM     20  C   UNL     1      -1.164  10.469  18.231  0.00  0.00    +0.000 A 
ATOM     21  C   UNL     1      -1.121  10.972  19.528  0.00  0.00    +0.000 A 
ATOM     22  C   UNL     1      -0.025  10.663  20.310  0.00  0.00    +0.000 A 
ATOM     23  N   UNL     1       1.010   9.915  19.879  0.00  0.00    +0.000 NA
ENDBRANCH  17  18
ENDBRANCH  16  17
ENDBRANCH   4  16
TORSDOF 5
ENDMDL
MODEL 3
REMARK VINA RESULT:      -8.1      0.446      1.090
REMARK  Name = 
REMARK  6 active torsions:
REMARK  status: ('A' for Active; 'I' for Inactive)
REMARK    1  A    between atoms: C_1  and  C_2
REMARK    2  A    between atoms: C_2  and  C_4
REMARK    3  A    between atoms: C_7  and  O_8
REMARK    4  A    between atoms: O_8  and  C_9
REMARK    5  A    between atoms: C_9  and  C_10
REMARK    6  A    between atoms: C_16  and  C_17
REMARK                            x       y       z     vdW  Elec       q    Type
REMARK                         _______ _______ _______ _____ _____    ______ ____
ROOT
ATOM      1  C   UNL     1       5.372   5.249  16.279  0.00  0.00    +0.000 A 
ATOM      2  C   UNL     1       5.188   6.625  16.233  0.00  0.00    +0.000 A 
ATOM      3  C   UNL     1       4.191   7.219  16.998  0.00  0.00    +0.000 A 
ATOM      4  C   UNL     1       3.317   6.449  17.790  0.00  0.00    +0.000 A 
ATOM      5  C   UNL     1       3.513   5.047  17.899  0.00  0.00    +0.000 A 
ATOM      6  C   UNL     1       4.563   4.480  17.129  0.00  0.00    +0.000 A 
ENDROOT
BRANCH   5   7
ATOM      7  C   UNL     1       2.673   4.149  18.749  0.00  0.00    +0.000 A 
ATOM      8  C   UNL     1       1.650   3.352  18.188  0.00  0.00    +0.000 A 
ATOM      9  C   UNL     1       0.857   2.503  18.967  0.00  0.00    +0.000 A 
ATOM     10  C   UNL     1       1.056   2.431  20.340  0.00  0.00    +0.000 A 
ATOM     11  C   UNL     1       2.064   3.187  20.924  0.00  0.00    +0.000 A 
ATOM     12  C   UNL     1       2.869   4.023  20.136  0.00  0.00    +0.000 A 
ENDBRANCH   5   7
BRANCH   1  14
ATOM     13  C   UNL     1       6.019   3.985  14.121  0.00  0.00    +0.000 C 
ATOM     14  C   UNL     1       6.427   4.661  15.401  0.00  0.00    +0.000 C 
ATOM     15  O   UNL     1       7.609   4.748  15.720  0.00  0.00    +0.000 OA
ENDBRANCH   1  14
BRANCH   4  16
ATOM     16  O   UNL     1       2.240   7.017  18.445  0.00  0.00    +0.000 OA
BRANCH  16  17
ATOM     17  C   UNL     1       2.200   8.452  18.422  0.00  0.00    +0.000 C 
BRANCH  17  18
ATOM     18  C   UNL     1       1.367   9.094  19.505  0.00  0.00    +0.000 A 
ATOM     19  C   UNL     1       1.327   8.605  20.804  0.00  0.00    +0.000 A 
ATOM     20  C   UNL     1       0.402   9.149  21.693  0.00  0.00    +0.000 A 
ATOM     21  C   UNL     1      -0.453  10.160  21.265  0.00  0.00    +0.000 A 
ATOM     22  C   UNL     1      -0.339  10.600  19.961  0.00  0.00    +0.000 A 
ATOM     23  N   UNL     1       0.545  10.094  19.079  0.00  0.00    +0.000 NA
ENDBRANCH  17  18
ENDBRANCH  16  17
ENDBRANCH   4  16
TORSDOF 5
ENDMDL
MODEL 4
REMARK VINA RESULT:      -8.0      2.133      4.971
REMARK  Name = 
REMARK  6 active torsions:
REMARK  status: ('A' for Active; 'I' for Inactive)
REMARK    1  A    between atoms: C_1  and  C_2
REMARK    2  A    between atoms: C_2  and  C_4
REMARK    3  A    between atoms: C_7  and  O_8
REMARK    4  A    between atoms: O_8  and  C_9
REMARK    5  A    between atoms: C_9  and  C_10
REMARK    6  A    between atoms: C_16  and  C_17
REMARK                            x       y       z     vdW  Elec       q    Type
REMARK                         _______ _______ _______ _____ _____    ______ ____
ROOT
ATOM      1  C   UNL     1       5.668   6.129  17.076  0.00  0.00    +0.000 A 
ATOM      2  C   UNL     1       5.230   4.905  16.584  0.00  0.00    +0.000 A 
ATOM      3  C   UNL     1       3.897   4.535  16.729  0.00  0.00    +0.000 A 
ATOM      4  C   UNL     1       2.979   5.354  17.415  0.00  0.00    +0.000 A 
ATOM      5  C   UNL     1       3.384   6.632  17.883  0.00  0.00    +0.000 A 
ATOM      6  C   UNL     1       4.745   6.990  17.686  0.00  0.00    +0.000 A 
ENDROOT
BRANCH   5   7
ATOM      7  C   UNL     1       2.476   7.595  18.578  0.00  0.00    +0.000 A 
ATOM      8  C   UNL     1       1.899   8.686  17.892  0.00  0.00    +0.000 A 
ATOM      9  C   UNL     1       1.044   9.595  18.525  0.00  0.00    +0.000 A 
ATOM     10  C   UNL     1       0.746   9.446  19.874  0.00  0.00    +0.000 A 
ATOM     11  C   UNL     1       1.283   8.374  20.577  0.00  0.00    +0.000 A 
ATOM     12  C   UNL     1       2.124   7.455  19.932  0.00  0.00    +0.000 A 
ENDBRANCH   5   7
BRANCH   1  14
ATOM     13  C   UNL     1       7.808   7.217  18.030  0.00  0.00    +0.000 C 
ATOM     14  C   UNL     1       7.119   6.454  16.932  0.00  0.00    +0.000 C 
ATOM     15  O   UNL     1       7.735   6.084  15.937  0.00  0.00    +0.000 OA
ENDBRANCH   1  14
BRANCH   4  16
ATOM     16  O   UNL     1       1.689   4.933  17.682  0.00  0.00    +0.000 OA
BRANCH  16  17
ATOM     17  C   UNL     1       1.543   3.522  17.905  0.00  0.00    +0.000 C 
BRANCH  17  18
ATOM     18  C   UNL     1       1.806   3.060  19.318  0.00  0.00    +0.000 A 
ATOM     19  C   UNL     1       0.902   3.271  20.352  0.00  0.00    +0.000 A 
ATOM     20  C   UNL     1       1.297   2.969  21.654  0.00  0.00    +0.000 A 
ATOM     21  C   UNL     1       2.574   2.470  21.889  0.00  0.00    +0.000 A 
ATOM     22  C   UNL     1       3.407   2.275  20.804  0.00  0.00    +0.000 A 
ATOM     23  N   UNL     1       3.053   2.557  19.534  0.00  0.00    +0.000 NA
ENDBRANCH  17  18
ENDBRANCH  16  17
ENDBRANCH   4  16
TORSDOF 5
ENDMDL
MODEL 5
REMARK VINA RESULT:      -8.0      0.612      1.418
REMARK  Name = 
REMARK  6 active torsions:
REMARK  status: ('A' for Active; 'I' for Inactive)
REMARK    1  A    between atoms: C_1  and  C_2
REMARK    2  A    between atoms: C_2  and  C_4
REMARK    3  A    between atoms: C_7  and  O_8
REMARK    4  A    between atoms: O_8  and  C_9
REMARK    5  A    between atoms: C_9  and  C_10
REMARK    6  A    between atoms: C_16  and  C_17
REMARK                            x       y       z     vdW  Elec       q    Type
REMARK                         _______ _______ _______ _____ _____    ______ ____
ROOT
ATOM      1  C   UNL     1       5.589   5.205  16.668  0.00  0.00    +0.000 A 
ATOM      2  C   UNL     1       5.327   6.549  16.431  0.00  0.00    +0.000 A 
ATOM      3  C   UNL     1       4.225   7.156  17.022  0.00  0.00    +0.000 A 
ATOM      4  C   UNL     1       3.326   6.426  17.824  0.00  0.00    +0.000 A 
ATOM      5  C   UNL     1       3.596   5.066  18.128  0.00  0.00    +0.000 A 
ATOM      6  C   UNL     1       4.750   4.488  17.533  0.00  0.00    +0.000 A 
ENDROOT
BRANCH   5   7
ATOM      7  C   UNL     1       2.734   4.218  19.007  0.00  0.00    +0.000 A 
ATOM      8  C   UNL     1       1.766   3.344  18.464  0.00  0.00    +0.000 A 
ATOM      9  C   UNL     1       0.953   2.541  19.270  0.00  0.00    +0.000 A 
ATOM     10  C   UNL     1       1.075   2.594  20.653  0.00  0.00    +0.000 A 
ATOM     11  C   UNL     1       2.028   3.430  21.222  0.00  0.00    +0.000 A 
ATOM     12  C   UNL     1       2.854   4.219  20.408  0.00  0.00    +0.000 A 
ENDBRANCH   5   7
BRANCH   1  14
ATOM     13  C   UNL     1       6.648   4.266  14.507  0.00  0.00    +0.000 C 
ATOM     14  C   UNL     1       6.760   4.593  15.971  0.00  0.00    +0.000 C 
ATOM     15  O   UNL     1       7.799   4.380  16.588  0.00  0.00    +0.000 OA
ENDBRANCH   1  14
BRANCH   4  16
ATOM     16  O   UNL     1       2.158   6.989  18.302  0.00  0.00    +0.000 OA
BRANCH  16  17
ATOM     17  C   UNL     1       2.217   8.403  18.543  0.00  0.00    +0.000 C 
BRANCH  17  18
ATOM     18  C   UNL     1       1.286   8.917  19.615  0.00  0.00    +0.000 A 
ATOM     19  C   UNL     1       0.434   9.994  19.409  0.00  0.00    +0.000 A 
ATOM     20  C   UNL     1      -0.263  10.511  20.500  0.00  0.00    +0.000 A 
ATOM     21  C   UNL     1      -0.089   9.946  21.759  0.00  0.00    +0.000 A 
ATOM     22  C   UNL     1       0.766   8.868  21.877  0.00  0.00    +0.000 A 
ATOM     23  N   UNL     1       1.452   8.345  20.841  0.00  0.00    +0.000 NA
ENDBRANCH  17  18
ENDBRANCH  16  17
ENDBRANCH   4  16
TORSDOF 5
ENDMDL
MODEL 6
REMARK VINA RESULT:      -8.0      0.837      1.478
REMARK  Name = 
REMARK  6 active torsions:
REMARK  status: ('A' for Active; 'I' for Inactive)
REMARK    1  A    between atoms: C_1  and  C_2
REMARK    2  A    between atoms: C_2  and  C_4
REMARK    3  A    between atoms: C_7  and  O_8
REMARK    4  A    between atoms: O_8  and  C_9
REMARK    5  A    between atoms: C_9  and  C_10
REMARK    6  A    between atoms: C_16  and  C_17
REMARK                            x       y       z     vdW  Elec       q    Type
REMARK                         _______ _______ _______ _____ _____    ______ ____
ROOT
ATOM      1  C   UNL     1       5.506   5.197  16.487  0.00  0.00    +0.000 A 
ATOM      2  C   UNL     1       5.395   6.574  16.335  0.00  0.00    +0.000 A 
ATOM      3  C   UNL     1       4.412   7.272  17.028  0.00  0.00    +0.000 A 
ATOM      4  C   UNL     1       3.482   6.607  17.851  0.00  0.00    +0.000 A 
ATOM      5  C   UNL     1       3.603   5.209  18.068  0.00  0.00    +0.000 A 
ATOM      6  C   UNL     1       4.640   4.535  17.369  0.00  0.00    +0.000 A 
ENDROOT
BRANCH   5   7
ATOM      7  C   UNL     1       2.699   4.419  18.959  0.00  0.00    +0.000 A 
ATOM      8  C   UNL     1       1.699   3.575  18.428  0.00  0.00    +0.000 A 
ATOM      9  C   UNL     1       0.846   2.825  19.245  0.00  0.00    +0.000 A 
ATOM     10  C   UNL     1       0.960   2.906  20.628  0.00  0.00    +0.000 A 
ATOM     11  C   UNL     1       1.944   3.714  21.185  0.00  0.00    +0.000 A 
ATOM     12  C   UNL     1       2.808   4.448  20.360  0.00  0.00    +0.000 A 
ENDBRANCH   5   7
BRANCH   1  14
ATOM     13  C   UNL     1       6.171   3.901  14.353  0.00  0.00    +0.000 C 
ATOM     14  C   UNL     1       6.550   4.493  15.683  0.00  0.00    +0.000 C 
ATOM     15  O   UNL     1       7.701   4.419  16.102  0.00  0.00    +0.000 OA
ENDBRANCH   1  14
BRANCH   4  16
ATOM     16  O   UNL     1       2.421   7.275  18.434  0.00  0.00    +0.000 OA
BRANCH  16  17
ATOM     17  C   UNL     1       1.991   8.457  17.741  0.00  0.00    +0.000 C 
BRANCH  17  18
ATOM     18  C   UNL     1       1.612   9.622  18.623  0.00  0.00    +0.000 A 
ATOM     19  C   UNL     1       0.788   9.481  19.732  0.00  0.00    +0.000 A 
ATOM     20  C   UNL     1       0.349  10.631  20.387  0.00  0.00    +0.000 A 
ATOM     21  C   UNL     1       0.740  11.882  19.920  0.00  0.00    +0.000 A 
ATOM     22  C   UNL     1       1.573  11.935  18.820  0.00  0.00    +0.000 A 
ATOM     23  N   UNL     1       2.014  10.842  18.166  0.00  0.00    +0.000 NA
ENDBRANCH  17  18
ENDBRANCH  16  17
ENDBRANCH   4  16
TORSDOF 5
ENDMDL
MODEL 7
REMARK VINA RESULT:      -8.0      0.861      1.635
REMARK  Name = 
REMARK  6 active torsions:
REMARK  status: ('A' for Active; 'I' for Inactive)
REMARK    1  A    between atoms: C_1  and  C_2
REMARK    2  A    between atoms: C_2  and  C_4
REMARK    3  A    between atoms: C_7  and  O_8
REMARK    4  A    between atoms: O_8  and  C_9
REMARK    5  A    between atoms: C_9  and  C_10
REMARK    6  A    between atoms: C_16  and  C_17
REMARK                            x       y       z     vdW  Elec       q    Type
REMARK                         _______ _______ _______ _____ _____    ______ ____
ROOT
ATOM      1  C   UNL     1       5.505   5.226  16.624  0.00  0.00    +0.000 A 
ATOM      2  C   UNL     1       5.363   6.595  16.436  0.00  0.00    +0.000 A 
ATOM      3  C   UNL     1       4.364   7.289  17.110  0.00  0.00    +0.000 A 
ATOM      4  C   UNL     1       3.449   6.625  17.950  0.00  0.00    +0.000 A 
ATOM      5  C   UNL     1       3.601   5.237  18.204  0.00  0.00    +0.000 A 
ATOM      6  C   UNL     1       4.654   4.568  17.524  0.00  0.00    +0.000 A 
ENDROOT
BRANCH   5   7
ATOM      7  C   UNL     1       2.715   4.451  19.116  0.00  0.00    +0.000 A 
ATOM      8  C   UNL     1       1.656   3.663  18.612  0.00  0.00    +0.000 A 
ATOM      9  C   UNL     1       0.818   2.919  19.448  0.00  0.00    +0.000 A 
ATOM     10  C   UNL     1       1.008   2.946  20.825  0.00  0.00    +0.000 A 
ATOM     11  C   UNL     1       2.050   3.696  21.355  0.00  0.00    +0.000 A 
ATOM     12  C   UNL     1       2.899   4.426  20.510  0.00  0.00    +0.000 A 
ENDBRANCH   5   7
BRANCH   1  14
ATOM     13  C   UNL     1       6.216   3.942  14.498  0.00  0.00    +0.000 C 
ATOM     14  C   UNL     1       6.566   4.524  15.840  0.00  0.00    +0.000 C 
ATOM     15  O   UNL     1       7.707   4.446  16.284  0.00  0.00    +0.000 OA
ENDBRANCH   1  14
BRANCH   4  16
ATOM     16  O   UNL     1       2.372   7.285  18.515  0.00  0.00    +0.000 OA
BRANCH  16  17
ATOM     17  C   UNL     1       1.943   8.462  17.814  0.00  0.00    +0.000 C 
BRANCH  17  18
ATOM     18  C   UNL     1       1.491   9.607  18.688  0.00  0.00    +0.000 A 
ATOM     19  C   UNL     1       1.699  10.935  18.343  0.00  0.00    +0.000 A 
ATOM     20  C   UNL     1       1.407  11.922  19.283  0.00  0.00    +0.000 A 
ATOM     21  C   UNL     1       0.922  11.559  20.535  0.00  0.00    +0.000 A 
ATOM     22  C   UNL     1       0.730  10.216  20.795  0.00  0.00    +0.000 A 
ATOM     23  N   UNL     1       1.001   9.240  19.906  0.00  0.00    +0.000 NA
ENDBRANCH  17  18
ENDBRANCH  16  17
ENDBRANCH   4  16
TORSDOF 5
ENDMDL
MODEL 8
REMARK VINA RESULT:      -8.0      2.194      4.819
REMARK  Name = 
REMARK  6 active torsions:
REMARK  status: ('A' for Active; 'I' for Inactive)
REMARK    1  A    between atoms: C_1  and  C_2
REMARK    2  A    between atoms: C_2  and  C_4
REMARK    3  A    between atoms: C_7  and  O_8
REMARK    4  A    between atoms: O_8  and  C_9
REMARK    5  A    between atoms: C_9  and  C_10
REMARK    6  A    between atoms: C_16  and  C_17
REMARK                            x       y       z     vdW  Elec       q    Type
REMARK                         _______ _______ _______ _____ _____    ______ ____
ROOT
ATOM      1  C   UNL     1       5.747   5.451  17.449  0.00  0.00    +0.000 A 
ATOM      2  C   UNL     1       5.226   4.326  16.821  0.00  0.00    +0.000 A 
ATOM      3  C   UNL     1       3.851   4.125  16.785  0.00  0.00    +0.000 A 
ATOM      4  C   UNL     1       2.962   5.015  17.419  0.00  0.00    +0.000 A 
ATOM      5  C   UNL     1       3.460   6.200  18.022  0.00  0.00    +0.000 A 
ATOM      6  C   UNL     1       4.868   6.388  18.010  0.00  0.00    +0.000 A 
ENDROOT
BRANCH   5   7
ATOM      7  C   UNL     1       2.598   7.231  18.678  0.00  0.00    +0.000 A 
ATOM      8  C   UNL     1       2.201   7.106  20.028  0.00  0.00    +0.000 A 
ATOM      9  C   UNL     1       1.399   8.061  20.659  0.00  0.00    +0.000 A 
ATOM     10  C   UNL     1       0.955   9.173  19.953  0.00  0.00    +0.000 A 
ATOM     11  C   UNL     1       1.339   9.338  18.628  0.00  0.00    +0.000 A 
ATOM     12  C   UNL     1       2.161   8.386  18.006  0.00  0.00    +0.000 A 
ENDBRANCH   5   7
BRANCH   1  14
ATOM     13  C   UNL     1       7.829   6.935  17.822  0.00  0.00    +0.000 C 
ATOM     14  C   UNL     1       7.233   5.592  17.497  0.00  0.00    +0.000 C 
ATOM     15  O   UNL     1       7.950   4.617  17.291  0.00  0.00    +0.000 OA
ENDBRANCH   1  14
BRANCH   4  16
ATOM     16  O   UNL     1       1.608   4.750  17.504  0.00  0.00    +0.000 OA
BRANCH  16  17
ATOM     17  C   UNL     1       1.272   3.411  17.895  0.00  0.00    +0.000 C 
BRANCH  17  18
ATOM     18  C   UNL     1       1.654   3.033  19.306  0.00  0.00    +0.000 A 
ATOM     19  C   UNL     1       0.911   3.430  20.411  0.00  0.00    +0.000 A 
ATOM     20  C   UNL     1       1.427   3.187  21.683  0.00  0.00    +0.000 A 
ATOM     21  C   UNL     1       2.662   2.561  21.818  0.00  0.00    +0.000 A 
ATOM     22  C   UNL     1       3.330   2.185  20.669  0.00  0.00    +0.000 A 
ATOM     23  N   UNL     1       2.857   2.406  19.426  0.00  0.00    +0.000 NA
ENDBRANCH  17  18
ENDBRANCH  16  17
ENDBRANCH   4  16
TORSDOF 5
ENDMDL
MODEL 9
REMARK VINA RESULT:      -7.9      1.169      1.478
REMARK  Name = 
REMARK  6 active torsions:
REMARK  status: ('A' for Active; 'I' for Inactive)
REMARK    1  A    between atoms: C_1  and  C_2
REMARK    2  A    between atoms: C_2  and  C_4
REMARK    3  A    between atoms: C_7  and  O_8
REMARK    4  A    between atoms: O_8  and  C_9
REMARK    5  A    between atoms: C_9  and  C_10
REMARK    6  A    between atoms: C_16  and  C_17
REMARK                            x       y       z     vdW  Elec       q    Type
REMARK                         _______ _______ _______ _____ _____    ______ ____
ROOT
ATOM      1  C   UNL     1       5.658   5.283  15.670  0.00  0.00    +0.000 A 
ATOM      2  C   UNL     1       5.721   6.641  15.962  0.00  0.00    +0.000 A 
ATOM      3  C   UNL     1       4.960   7.164  17.001  0.00  0.00    +0.000 A 
ATOM      4  C   UNL     1       4.077   6.356  17.742  0.00  0.00    +0.000 A 
ATOM      5  C   UNL     1       4.030   4.957  17.503  0.00  0.00    +0.000 A 
ATOM      6  C   UNL     1       4.847   4.453  16.456  0.00  0.00    +0.000 A 
ENDROOT
BRANCH   5   7
ATOM      7  C   UNL     1       3.164   4.006  18.266  0.00  0.00    +0.000 A 
ATOM      8  C   UNL     1       3.590   3.447  19.491  0.00  0.00    +0.000 A 
ATOM      9  C   UNL     1       2.793   2.560  20.222  0.00  0.00    +0.000 A 
ATOM     10  C   UNL     1       1.541   2.193  19.742  0.00  0.00    +0.000 A 
ATOM     11  C   UNL     1       1.082   2.737  18.548  0.00  0.00    +0.000 A 
ATOM     12  C   UNL     1       1.878   3.642  17.830  0.00  0.00    +0.000 A 
ENDBRANCH   5   7
BRANCH   1  14
ATOM     13  C   UNL     1       5.855   3.768  13.587  0.00  0.00    +0.000 C 
ATOM     14  C   UNL     1       6.462   4.785  14.514  0.00  0.00    +0.000 C 
ATOM     15  O   UNL     1       7.595   5.217  14.322  0.00  0.00    +0.000 OA
ENDBRANCH   1  14
BRANCH   4  16
ATOM     16  O   UNL     1       3.219   6.893  18.684  0.00  0.00    +0.000 OA
BRANCH  16  17
ATOM     17  C   UNL     1       2.288   7.862  18.178  0.00  0.00    +0.000 C 
BRANCH  17  18
ATOM     18  C   UNL     1       1.538   8.648  19.226  0.00  0.00    +0.000 A 
ATOM     19  C   UNL     1       0.970   9.888  18.963  0.00  0.00    +0.000 A 
ATOM     20  C   UNL     1       0.448  10.621  20.028  0.00  0.00    +0.000 A 
ATOM     21  C   UNL     1       0.510  10.103  21.317  0.00  0.00    +0.000 A 
ATOM     22  C   UNL     1       1.079   8.857  21.492  0.00  0.00    +0.000 A 
ATOM     23  N   UNL     1       1.591   8.124  20.483  0.00  0.00    +0.000 NA
ENDBRANCH  17  18
ENDBRANCH  16  17
ENDBRANCH   4  16
TORSDOF 5
ENDMDL
