MODEL 1
REMARK VINA RESULT:      -8.0      0.000      0.000
REMARK  Name = 
REMARK  7 active torsions:
REMARK  status: ('A' for Active; 'I' for Inactive)
REMARK    1  A    between atoms: C_1  and  O_2
REMARK    2  A    between atoms: O_2  and  C_3
REMARK    3  A    between atoms: N_9  and  C_10
REMARK    4  A    between atoms: C_19  and  O_20
REMARK    5  A    between atoms: O_20  and  C_21
REMARK    6  A    between atoms: C_22  and  O_23
REMARK    7  A    between atoms: O_23  and  C_24
REMARK                            x       y       z     vdW  Elec       q    Type
REMARK                         _______ _______ _______ _____ _____    ______ ____
ROOT
ATOM      1  C   UNL     1       2.831   4.346  20.382  0.00  0.00    +0.000 A 
ATOM      2  C   UNL     1       2.399   5.683  20.393  0.00  0.00    +0.000 A 
ATOM      3  C   UNL     1       2.755   6.541  19.340  0.00  0.00    +0.000 A 
ATOM      4  C   UNL     1       3.591   6.079  18.316  0.00  0.00    +0.000 A 
ATOM      5  C   UNL     1       3.715   7.138  17.377  0.00  0.00    +0.000 A 
ATOM      6  C   UNL     1       2.917   8.171  17.798  0.00  0.00    +0.000 A 
ATOM      7  N   UNL     1       2.336   7.835  19.007  0.00  0.00    +0.000 N 
ATOM      8  C   UNL     1       4.109   4.759  18.349  0.00  0.00    +0.000 A 
ATOM      9  C   UNL     1       3.699   3.874  19.381  0.00  0.00    +0.000 A 
ENDROOT
BRANCH   7  10
ATOM     10  C   UNL     1       1.403   8.668  19.707  0.00  0.00    +0.000 A 
ATOM     11  C   UNL     1       0.657   9.646  19.033  0.00  0.00    +0.000 A 
ATOM     12  C   UNL     1      -0.230  10.492  19.716  0.00  0.00    +0.000 A 
ATOM     13  C   UNL     1      -0.345  10.297  21.088  0.00  0.00    +0.000 A 
ATOM     14  O   UNL     1      -1.153  11.010  21.924  0.00  0.00    +0.000 OA
ATOM     15  C   UNL     1      -0.969  10.504  23.172  0.00  0.00    +0.000 A 
ATOM     16  C   UNL     1      -0.055   9.478  23.150  0.00  0.00    +0.000 A 
ATOM     17  C   UNL     1       0.353   9.332  21.797  0.00  0.00    +0.000 A 
ATOM     18  C   UNL     1       1.243   8.493  21.099  0.00  0.00    +0.000 A 
ENDBRANCH   7  10
BRANCH   1  20
ATOM     19  C   UNL     1       1.156   2.843  21.145  0.00  0.00    +0.000 C 
ATOM     20  O   UNL     1       2.407   3.493  21.375  0.00  0.00    +0.000 OA
ENDBRANCH   1  20
BRANCH   8  21
ATOM     21  O   UNL     1       4.865   4.393  17.257  0.00  0.00    +0.000 OA
ATOM     22  C   UNL     1       6.275   4.572  17.359  0.00  0.00    +0.000 C 
ENDBRANCH   8  21
BRANCH   9  23
ATOM     23  O   UNL     1       4.175   2.592  19.266  0.00  0.00    +0.000 OA
ATOM     24  C   UNL     1       3.461   1.624  18.517  0.00  0.00    +0.000 C 
ENDBRANCH   9  23
TORSDOF 4
ENDMDL
MODEL 2
REMARK VINA RESULT:      -7.6      0.957      1.577
REMARK  Name = 
REMARK  7 active torsions:
REMARK  status: ('A' for Active; 'I' for Inactive)
REMARK    1  A    between atoms: C_1  and  O_2
REMARK    2  A    between atoms: O_2  and  C_3
REMARK    3  A    between atoms: N_9  and  C_10
REMARK    4  A    between atoms: C_19  and  O_20
REMARK    5  A    between atoms: O_20  and  C_21
REMARK    6  A    between atoms: C_22  and  O_23
REMARK    7  A    between atoms: O_23  and  C_24
REMARK                            x       y       z     vdW  Elec       q    Type
REMARK                         _______ _______ _______ _____ _____    ______ ____
ROOT
ATOM      1  C   UNL     1       2.627   4.672  20.360  0.00  0.00    +0.000 A 
ATOM      2  C   UNL     1       2.202   5.985  20.621  0.00  0.00    +0.000 A 
ATOM      3  C   UNL     1       2.326   6.971  19.629  0.00  0.00    +0.000 A 
ATOM      4  C   UNL     1       2.931   6.657  18.406  0.00  0.00    +0.000 A 
ATOM      5  C   UNL     1       2.850   7.822  17.597  0.00  0.00    +0.000 A 
ATOM      6  C   UNL     1       2.154   8.774  18.295  0.00  0.00    +0.000 A 
ATOM      7  N   UNL     1       1.841   8.282  19.549  0.00  0.00    +0.000 N 
ATOM      8  C   UNL     1       3.449   5.357  18.171  0.00  0.00    +0.000 A 
ATOM      9  C   UNL     1       3.268   4.347  19.151  0.00  0.00    +0.000 A 
ENDROOT
BRANCH   7  10
ATOM     10  C   UNL     1       1.072   8.999  20.523  0.00  0.00    +0.000 A 
ATOM     11  C   UNL     1       1.126   8.659  21.883  0.00  0.00    +0.000 A 
ATOM     12  C   UNL     1       0.348   9.331  22.838  0.00  0.00    +0.000 A 
ATOM     13  C   UNL     1      -0.462  10.360  22.371  0.00  0.00    +0.000 A 
ATOM     14  O   UNL     1      -1.284  11.131  23.138  0.00  0.00    +0.000 OA
ATOM     15  C   UNL     1      -1.890  12.012  22.298  0.00  0.00    +0.000 A 
ATOM     16  C   UNL     1      -1.469  11.819  21.004  0.00  0.00    +0.000 A 
ATOM     17  C   UNL     1      -0.536  10.748  21.042  0.00  0.00    +0.000 A 
ATOM     18  C   UNL     1       0.249  10.062  20.094  0.00  0.00    +0.000 A 
ENDBRANCH   7  10
BRANCH   1  20
ATOM     19  C   UNL     1       1.192   2.980  21.212  0.00  0.00    +0.000 C 
ATOM     20  O   UNL     1       2.425   3.696  21.309  0.00  0.00    +0.000 OA
ENDBRANCH   1  20
BRANCH   8  21
ATOM     21  O   UNL     1       3.962   5.144  16.910  0.00  0.00    +0.000 OA
ATOM     22  C   UNL     1       5.355   5.381  16.731  0.00  0.00    +0.000 C 
ENDBRANCH   8  21
BRANCH   9  23
ATOM     23  O   UNL     1       3.716   3.101  18.786  0.00  0.00    +0.000 OA
ATOM     24  C   UNL     1       2.871   2.214  18.074  0.00  0.00    +0.000 C 
ENDBRANCH   9  23
TORSDOF 4
ENDMDL
MODEL 3
REMARK VINA RESULT:      -7.5      1.068      1.675
REMARK  Name = 
REMARK  7 active torsions:
REMARK  status: ('A' for Active; 'I' for Inactive)
REMARK    1  A    between atoms: C_1  and  O_2
REMARK    2  A    between atoms: O_2  and  C_3
REMARK    3  A    between atoms: N_9  and  C_10
REMARK    4  A    between atoms: C_19  and  O_20
REMARK    5  A    between atoms: O_20  and  C_21
REMARK    6  A    between atoms: C_22  and  O_23
REMARK    7  A    between atoms: O_23  and  C_24
REMARK                            x       y       z     vdW  Elec       q    Type
REMARK                         _______ _______ _______ _____ _____    ______ ____
ROOT
ATOM      1  C   UNL     1       1.839   3.802  19.293  0.00  0.00    +0.000 A 
ATOM      2  C   UNL     1       1.732   5.161  19.630  0.00  0.00    +0.000 A 
ATOM      3  C   UNL     1       2.430   6.124  18.884  0.00  0.00    +0.000 A 
ATOM      4  C   UNL     1       3.280   5.721  17.847  0.00  0.00    +0.000 A 
ATOM      5  C   UNL     1       3.784   6.905  17.245  0.00  0.00    +0.000 A 
ATOM      6  C   UNL     1       3.193   7.977  17.862  0.00  0.00    +0.000 A 
ATOM      7  N   UNL     1       2.376   7.523  18.882  0.00  0.00    +0.000 N 
ATOM      8  C   UNL     1       3.468   4.344  17.563  0.00  0.00    +0.000 A 
ATOM      9  C   UNL     1       2.714   3.375  18.279  0.00  0.00    +0.000 A 
ENDROOT
BRANCH   7  10
ATOM     10  C   UNL     1       1.567   8.377  19.701  0.00  0.00    +0.000 A 
ATOM     11  C   UNL     1       1.399   8.121  21.070  0.00  0.00    +0.000 A 
ATOM     12  C   UNL     1       0.579   8.928  21.872  0.00  0.00    +0.000 A 
ATOM     13  C   UNL     1      -0.041  10.004  21.245  0.00  0.00    +0.000 A 
ATOM     14  O   UNL     1      -0.870  10.902  21.849  0.00  0.00    +0.000 OA
ATOM     15  C   UNL     1      -1.255  11.785  20.890  0.00  0.00    +0.000 A 
ATOM     16  C   UNL     1      -0.689  11.467  19.680  0.00  0.00    +0.000 A 
ATOM     17  C   UNL     1       0.107  10.311  19.902  0.00  0.00    +0.000 A 
ATOM     18  C   UNL     1       0.932   9.489  19.108  0.00  0.00    +0.000 A 
ENDBRANCH   7  10
BRANCH   1  20
ATOM     19  C   UNL     1       1.462   2.652  21.338  0.00  0.00    +0.000 C 
ATOM     20  O   UNL     1       1.086   2.875  19.978  0.00  0.00    +0.000 OA
ENDBRANCH   1  20
BRANCH   8  21
ATOM     21  O   UNL     1       4.274   4.067  16.481  0.00  0.00    +0.000 OA
ATOM     22  C   UNL     1       5.679   4.043  16.712  0.00  0.00    +0.000 C 
ENDBRANCH   8  21
BRANCH   9  23
ATOM     23  O   UNL     1       2.894   2.080  17.860  0.00  0.00    +0.000 OA
ATOM     24  C   UNL     1       3.738   1.201  18.583  0.00  0.00    +0.000 C 
ENDBRANCH   9  23
TORSDOF 4
ENDMDL
MODEL 4
REMARK VINA RESULT:      -7.4      0.822      1.744
REMARK  Name = 
REMARK  7 active torsions:
REMARK  status: ('A' for Active; 'I' for Inactive)
REMARK    1  A    between atoms: C_1  and  O_2
REMARK    2  A    between atoms: O_2  and  C_3
REMARK    3  A    between atoms: N_9  and  C_10
REMARK    4  A    between atoms: C_19  and  O_20
REMARK    5  A    between atoms: O_20  and  C_21
REMARK    6  A    between atoms: C_22  and  O_23
REMARK    7  A    between atoms: O_23  and  C_24
REMARK                            x       y       z     vdW  Elec       q    Type
REMARK                         _______ _______ _______ _____ _____    ______ ____
ROOT
ATOM      1  C   UNL     1       2.799   4.378  20.233  0.00  0.00    +0.000 A 
ATOM      2  C   UNL     1       2.395   5.720  20.142  0.00  0.00    +0.000 A 
ATOM      3  C   UNL     1       2.883   6.528  19.103  0.00  0.00    +0.000 A 
ATOM      4  C   UNL     1       3.820   6.013  18.198  0.00  0.00    +0.000 A 
ATOM      5  C   UNL     1       4.068   7.030  17.239  0.00  0.00    +0.000 A 
ATOM      6  C   UNL     1       3.248   8.091  17.525  0.00  0.00    +0.000 A 
ATOM      7  N   UNL     1       2.529   7.814  18.674  0.00  0.00    +0.000 N 
ATOM      8  C   UNL     1       4.305   4.687  18.342  0.00  0.00    +0.000 A 
ATOM      9  C   UNL     1       3.764   3.852  19.356  0.00  0.00    +0.000 A 
ENDROOT
BRANCH   7  10
ATOM     10  C   UNL     1       1.540   8.688  19.231  0.00  0.00    +0.000 A 
ATOM     11  C   UNL     1       1.262   8.687  20.606  0.00  0.00    +0.000 A 
ATOM     12  C   UNL     1       0.269   9.512  21.155  0.00  0.00    +0.000 A 
ATOM     13  C   UNL     1      -0.410  10.343  20.271  0.00  0.00    +0.000 A 
ATOM     14  O   UNL     1      -1.401  11.217  20.607  0.00  0.00    +0.000 OA
ATOM     15  C   UNL     1      -1.789  11.830  19.458  0.00  0.00    +0.000 A 
ATOM     16  C   UNL     1      -1.064  11.362  18.388  0.00  0.00    +0.000 A 
ATOM     17  C   UNL     1      -0.159  10.398  18.908  0.00  0.00    +0.000 A 
ATOM     18  C   UNL     1       0.838   9.561  18.371  0.00  0.00    +0.000 A 
ENDBRANCH   7  10
BRANCH   1  20
ATOM     19  C   UNL     1       1.000   2.964  20.875  0.00  0.00    +0.000 C 
ATOM     20  O   UNL     1       2.250   3.573  21.204  0.00  0.00    +0.000 OA
ENDBRANCH   1  20
BRANCH   8  21
ATOM     21  O   UNL     1       5.172   4.265  17.358  0.00  0.00    +0.000 OA
ATOM     22  C   UNL     1       6.556   4.535  17.558  0.00  0.00    +0.000 C 
ENDBRANCH   8  21
BRANCH   9  23
ATOM     23  O   UNL     1       4.226   2.560  19.346  0.00  0.00    +0.000 OA
ATOM     24  C   UNL     1       3.553   1.561  18.599  0.00  0.00    +0.000 C 
ENDBRANCH   9  23
TORSDOF 4
ENDMDL
MODEL 5
REMARK VINA RESULT:      -7.3      1.603      6.865
REMARK  Name = 
REMARK  7 active torsions:
REMARK  status: ('A' for Active; 'I' for Inactive)
REMARK    1  A    between atoms: C_1  and  O_2
REMARK    2  A    between atoms: O_2  and  C_3
REMARK    3  A    between atoms: N_9  and  C_10
REMARK    4  A    between atoms: C_19  and  O_20
REMARK    5  A    between atoms: O_20  and  C_21
REMARK    6  A    between atoms: C_22  and  O_23
REMARK    7  A    between atoms: O_23  and  C_24
REMARK                            x       y       z     vdW  Elec       q    Type
REMARK                         _______ _______ _______ _____ _____    ______ ____
ROOT
ATOM      1  C   UNL     1       0.930   9.895  21.733  0.00  0.00    +0.000 A 
ATOM      2  C   UNL     1       1.320   8.677  21.151  0.00  0.00    +0.000 A 
ATOM      3  C   UNL     1       1.643   8.626  19.786  0.00  0.00    +0.000 A 
ATOM      4  C   UNL     1       1.515   9.774  18.995  0.00  0.00    +0.000 A 
ATOM      5  C   UNL     1       1.972   9.431  17.695  0.00  0.00    +0.000 A 
ATOM      6  C   UNL     1       2.425   8.137  17.734  0.00  0.00    +0.000 A 
ATOM      7  N   UNL     1       2.215   7.619  18.999  0.00  0.00    +0.000 N 
ATOM      8  C   UNL     1       1.029  10.984  19.555  0.00  0.00    +0.000 A 
ATOM      9  C   UNL     1       0.761  11.050  20.948  0.00  0.00    +0.000 A 
ENDROOT
BRANCH   7  10
ATOM     10  C   UNL     1       2.616   6.304  19.403  0.00  0.00    +0.000 A 
ATOM     11  C   UNL     1       3.773   5.706  18.880  0.00  0.00    +0.000 A 
ATOM     12  C   UNL     1       4.153   4.405  19.241  0.00  0.00    +0.000 A 
ATOM     13  C   UNL     1       3.337   3.748  20.155  0.00  0.00    +0.000 A 
ATOM     14  O   UNL     1       3.537   2.486  20.632  0.00  0.00    +0.000 OA
ATOM     15  C   UNL     1       2.521   2.229  21.497  0.00  0.00    +0.000 A 
ATOM     16  C   UNL     1       1.671   3.305  21.582  0.00  0.00    +0.000 A 
ATOM     17  C   UNL     1       2.196   4.301  20.716  0.00  0.00    +0.000 A 
ATOM     18  C   UNL     1       1.825   5.607  20.342  0.00  0.00    +0.000 A 
ENDBRANCH   7  10
BRANCH   1  20
ATOM     19  C   UNL     1      -0.654   9.724  23.496  0.00  0.00    +0.000 C 
ATOM     20  O   UNL     1       0.696   9.952  23.087  0.00  0.00    +0.000 OA
ENDBRANCH   1  20
BRANCH   8  21
ATOM     21  O   UNL     1       1.007  12.064  18.700  0.00  0.00    +0.000 OA
ATOM     22  C   UNL     1       2.180  12.871  18.649  0.00  0.00    +0.000 C 
ENDBRANCH   8  21
BRANCH   9  23
ATOM     23  O   UNL     1       0.394  12.290  21.407  0.00  0.00    +0.000 OA
ATOM     24  C   UNL     1      -0.962  12.699  21.369  0.00  0.00    +0.000 C 
ENDBRANCH   9  23
TORSDOF 4
ENDMDL
MODEL 6
REMARK VINA RESULT:      -7.3      1.696      7.075
REMARK  Name = 
REMARK  7 active torsions:
REMARK  status: ('A' for Active; 'I' for Inactive)
REMARK    1  A    between atoms: C_1  and  O_2
REMARK    2  A    between atoms: O_2  and  C_3
REMARK    3  A    between atoms: N_9  and  C_10
REMARK    4  A    between atoms: C_19  and  O_20
REMARK    5  A    between atoms: O_20  and  C_21
REMARK    6  A    between atoms: C_22  and  O_23
REMARK    7  A    between atoms: O_23  and  C_24
REMARK                            x       y       z     vdW  Elec       q    Type
REMARK                         _______ _______ _______ _____ _____    ______ ____
ROOT
ATOM      1  C   UNL     1       0.817  10.064  21.698  0.00  0.00    +0.000 A 
ATOM      2  C   UNL     1       1.138   8.805  21.163  0.00  0.00    +0.000 A 
ATOM      3  C   UNL     1       1.523   8.695  19.817  0.00  0.00    +0.000 A 
ATOM      4  C   UNL     1       1.524   9.829  18.996  0.00  0.00    +0.000 A 
ATOM      5  C   UNL     1       2.015   9.419  17.729  0.00  0.00    +0.000 A 
ATOM      6  C   UNL     1       2.362   8.095  17.818  0.00  0.00    +0.000 A 
ATOM      7  N   UNL     1       2.050   7.626  19.082  0.00  0.00    +0.000 N 
ATOM      8  C   UNL     1       1.109  11.087  19.505  0.00  0.00    +0.000 A 
ATOM      9  C   UNL     1       0.779  11.208  20.881  0.00  0.00    +0.000 A 
ENDROOT
BRANCH   7  10
ATOM     10  C   UNL     1       2.326   6.295  19.534  0.00  0.00    +0.000 A 
ATOM     11  C   UNL     1       1.522   5.677  20.502  0.00  0.00    +0.000 A 
ATOM     12  C   UNL     1       1.806   4.388  20.979  0.00  0.00    +0.000 A 
ATOM     13  C   UNL     1       2.913   3.750  20.428  0.00  0.00    +0.000 A 
ATOM     14  O   UNL     1       3.350   2.501  20.754  0.00  0.00    +0.000 OA
ATOM     15  C   UNL     1       4.448   2.259  19.991  0.00  0.00    +0.000 A 
ATOM     16  C   UNL     1       4.724   3.334  19.181  0.00  0.00    +0.000 A 
ATOM     17  C   UNL     1       3.727   4.308  19.455  0.00  0.00    +0.000 A 
ATOM     18  C   UNL     1       3.430   5.605  18.989  0.00  0.00    +0.000 A 
ENDBRANCH   7  10
BRANCH   1  20
ATOM     19  C   UNL     1      -0.857  10.037  23.384  0.00  0.00    +0.000 C 
ATOM     20  O   UNL     1       0.523  10.173  23.037  0.00  0.00    +0.000 OA
ENDBRANCH   1  20
BRANCH   8  21
ATOM     21  O   UNL     1       1.214  12.143  18.627  0.00  0.00    +0.000 OA
ATOM     22  C   UNL     1       2.438  12.874  18.639  0.00  0.00    +0.000 C 
ENDBRANCH   8  21
BRANCH   9  23
ATOM     23  O   UNL     1       0.489  12.485  21.294  0.00  0.00    +0.000 OA
ATOM     24  C   UNL     1      -0.834  12.985  21.211  0.00  0.00    +0.000 C 
ENDBRANCH   9  23
TORSDOF 4
ENDMDL
MODEL 7
REMARK VINA RESULT:      -7.2      1.407      3.610
REMARK  Name = 
REMARK  7 active torsions:
REMARK  status: ('A' for Active; 'I' for Inactive)
REMARK    1  A    between atoms: C_1  and  O_2
REMARK    2  A    between atoms: O_2  and  C_3
REMARK    3  A    between atoms: N_9  and  C_10
REMARK    4  A    between atoms: C_19  and  O_20
REMARK    5  A    between atoms: O_20  and  C_21
REMARK    6  A    between atoms: C_22  and  O_23
REMARK    7  A    between atoms: O_23  and  C_24
REMARK                            x       y       z     vdW  Elec       q    Type
REMARK                         _______ _______ _______ _____ _____    ______ ____
ROOT
ATOM      1  C   UNL     1       4.930   6.290  17.454  0.00  0.00    +0.000 A 
ATOM      2  C   UNL     1       3.893   6.949  18.136  0.00  0.00    +0.000 A 
ATOM      3  C   UNL     1       3.064   6.230  19.011  0.00  0.00    +0.000 A 
ATOM      4  C   UNL     1       3.231   4.847  19.153  0.00  0.00    +0.000 A 
ATOM      5  C   UNL     1       2.305   4.420  20.141  0.00  0.00    +0.000 A 
ATOM      6  C   UNL     1       1.658   5.530  20.622  0.00  0.00    +0.000 A 
ATOM      7  N   UNL     1       2.092   6.646  19.930  0.00  0.00    +0.000 N 
ATOM      8  C   UNL     1       4.213   4.159  18.396  0.00  0.00    +0.000 A 
ATOM      9  C   UNL     1       5.091   4.896  17.557  0.00  0.00    +0.000 A 
ENDROOT
BRANCH   7  10
ATOM     10  C   UNL     1       1.657   7.982  20.210  0.00  0.00    +0.000 A 
ATOM     11  C   UNL     1       1.406   8.403  21.524  0.00  0.00    +0.000 A 
ATOM     12  C   UNL     1       0.943   9.697  21.805  0.00  0.00    +0.000 A 
ATOM     13  C   UNL     1       0.765  10.545  20.717  0.00  0.00    +0.000 A 
ATOM     14  O   UNL     1       0.328  11.835  20.782  0.00  0.00    +0.000 OA
ATOM     15  C   UNL     1       0.296  12.302  19.505  0.00  0.00    +0.000 A 
ATOM     16  C   UNL     1       0.705  11.331  18.623  0.00  0.00    +0.000 A 
ATOM     17  C   UNL     1       1.017  10.185  19.403  0.00  0.00    +0.000 A 
ATOM     18  C   UNL     1       1.478   8.881  19.136  0.00  0.00    +0.000 A 
ENDBRANCH   7  10
BRANCH   1  20
ATOM     19  C   UNL     1       7.011   7.423  17.282  0.00  0.00    +0.000 C 
ATOM     20  O   UNL     1       5.788   7.019  16.664  0.00  0.00    +0.000 OA
ENDBRANCH   1  20
BRANCH   8  21
ATOM     21  O   UNL     1       4.333   2.814  18.665  0.00  0.00    +0.000 OA
ATOM     22  C   UNL     1       3.477   1.932  17.944  0.00  0.00    +0.000 C 
ENDBRANCH   8  21
BRANCH   9  23
ATOM     23  O   UNL     1       6.068   4.151  16.947  0.00  0.00    +0.000 OA
ATOM     24  C   UNL     1       5.948   3.786  15.582  0.00  0.00    +0.000 C 
ENDBRANCH   9  23
TORSDOF 4
ENDMDL
MODEL 8
REMARK VINA RESULT:      -7.1      2.964      8.053
REMARK  Name = 
REMARK  7 active torsions:
REMARK  status: ('A' for Active; 'I' for Inactive)
REMARK    1  A    between atoms: C_1  and  O_2
REMARK    2  A    between atoms: O_2  and  C_3
REMARK    3  A    between atoms: N_9  and  C_10
REMARK    4  A    between atoms: C_19  and  O_20
REMARK    5  A    between atoms: O_20  and  C_21
REMARK    6  A    between atoms: C_22  and  O_23
REMARK    7  A    between atoms: O_23  and  C_24
REMARK                            x       y       z     vdW  Elec       q    Type
REMARK                         _______ _______ _______ _____ _____    ______ ____
ROOT
ATOM      1  C   UNL     1      -2.451  10.318  17.292  0.00  0.00    +0.000 A 
ATOM      2  C   UNL     1      -1.185   9.830  17.658  0.00  0.00    +0.000 A 
ATOM      3  C   UNL     1      -0.527  10.364  18.778  0.00  0.00    +0.000 A 
ATOM      4  C   UNL     1      -1.105  11.423  19.488  0.00  0.00    +0.000 A 
ATOM      5  C   UNL     1      -0.250  11.696  20.588  0.00  0.00    +0.000 A 
ATOM      6  C   UNL     1       0.768  10.777  20.570  0.00  0.00    +0.000 A 
ATOM      7  N   UNL     1       0.629   9.964  19.459  0.00  0.00    +0.000 N 
ATOM      8  C   UNL     1      -2.338  11.985  19.067  0.00  0.00    +0.000 A 
ATOM      9  C   UNL     1      -3.031  11.404  17.972  0.00  0.00    +0.000 A 
ENDROOT
BRANCH   7  10
ATOM     10  C   UNL     1       1.495   8.863  19.158  0.00  0.00    +0.000 A 
ATOM     11  C   UNL     1       2.258   8.841  17.981  0.00  0.00    +0.000 A 
ATOM     12  C   UNL     1       3.079   7.751  17.659  0.00  0.00    +0.000 A 
ATOM     13  C   UNL     1       3.113   6.705  18.575  0.00  0.00    +0.000 A 
ATOM     14  O   UNL     1       3.849   5.564  18.447  0.00  0.00    +0.000 OA
ATOM     15  C   UNL     1       3.600   4.811  19.551  0.00  0.00    +0.000 A 
ATOM     16  C   UNL     1       2.715   5.451  20.385  0.00  0.00    +0.000 A 
ATOM     17  C   UNL     1       2.396   6.687  19.761  0.00  0.00    +0.000 A 
ATOM     18  C   UNL     1       1.572   7.788  20.069  0.00  0.00    +0.000 A 
ENDBRANCH   7  10
BRANCH   1  20
ATOM     19  C   UNL     1      -2.951  10.353  14.970  0.00  0.00    +0.000 C 
ATOM     20  O   UNL     1      -3.123   9.732  16.245  0.00  0.00    +0.000 OA
ENDBRANCH   1  20
BRANCH   8  21
ATOM     21  O   UNL     1      -2.844  12.976  19.878  0.00  0.00    +0.000 OA
ATOM     22  C   UNL     1      -3.613  12.561  21.003  0.00  0.00    +0.000 C 
ENDBRANCH   8  21
BRANCH   9  23
ATOM     23  O   UNL     1      -4.260  11.956  17.708  0.00  0.00    +0.000 OA
ATOM     24  C   UNL     1      -5.448  11.270  18.066  0.00  0.00    +0.000 C 
ENDBRANCH   9  23
TORSDOF 4
ENDMDL
MODEL 9
REMARK VINA RESULT:      -7.0      1.269      3.189
REMARK  Name = 
REMARK  7 active torsions:
REMARK  status: ('A' for Active; 'I' for Inactive)
REMARK    1  A    between atoms: C_1  and  O_2
REMARK    2  A    between atoms: O_2  and  C_3
REMARK    3  A    between atoms: N_9  and  C_10
REMARK    4  A    between atoms: C_19  and  O_20
REMARK    5  A    between atoms: O_20  and  C_21
REMARK    6  A    between atoms: C_22  and  O_23
REMARK    7  A    between atoms: O_23  and  C_24
REMARK                            x       y       z     vdW  Elec       q    Type
REMARK                         _______ _______ _______ _____ _____    ______ ____
ROOT
ATOM      1  C   UNL     1       4.751   6.226  17.516  0.00  0.00    +0.000 A 
ATOM      2  C   UNL     1       3.687   6.872  18.166  0.00  0.00    +0.000 A 
ATOM      3  C   UNL     1       2.910   6.171  19.103  0.00  0.00    +0.000 A 
ATOM      4  C   UNL     1       3.158   4.813  19.338  0.00  0.00    +0.000 A 
ATOM      5  C   UNL     1       2.270   4.405  20.368  0.00  0.00    +0.000 A 
ATOM      6  C   UNL     1       1.566   5.507  20.780  0.00  0.00    +0.000 A 
ATOM      7  N   UNL     1       1.927   6.595  20.005  0.00  0.00    +0.000 N 
ATOM      8  C   UNL     1       4.169   4.130  18.614  0.00  0.00    +0.000 A 
ATOM      9  C   UNL     1       4.993   4.855  17.713  0.00  0.00    +0.000 A 
ENDROOT
BRANCH   7  10
ATOM     10  C   UNL     1       1.419   7.921  20.198  0.00  0.00    +0.000 A 
ATOM     11  C   UNL     1       1.519   8.890  19.188  0.00  0.00    +0.000 A 
ATOM     12  C   UNL     1       1.059  10.201  19.381  0.00  0.00    +0.000 A 
ATOM     13  C   UNL     1       0.484  10.484  20.616  0.00  0.00    +0.000 A 
ATOM     14  O   UNL     1      -0.024  11.692  20.994  0.00  0.00    +0.000 OA
ATOM     15  C   UNL     1      -0.487  11.541  22.263  0.00  0.00    +0.000 A 
ATOM     16  C   UNL     1      -0.284  10.256  22.705  0.00  0.00    +0.000 A 
ATOM     17  C   UNL     1       0.343   9.559  21.638  0.00  0.00    +0.000 A 
ATOM     18  C   UNL     1       0.813   8.247  21.430  0.00  0.00    +0.000 A 
ENDBRANCH   7  10
BRANCH   1  20
ATOM     19  C   UNL     1       6.802   7.386  17.207  0.00  0.00    +0.000 C 
ATOM     20  O   UNL     1       5.557   6.944  16.663  0.00  0.00    +0.000 OA
ENDBRANCH   1  20
BRANCH   8  21
ATOM     21  O   UNL     1       4.369   2.816  18.975  0.00  0.00    +0.000 OA
ATOM     22  C   UNL     1       3.580   1.835  18.307  0.00  0.00    +0.000 C 
ENDBRANCH   8  21
BRANCH   9  23
ATOM     23  O   UNL     1       6.004   4.124  17.140  0.00  0.00    +0.000 OA
ATOM     24  C   UNL     1       5.933   3.742  15.777  0.00  0.00    +0.000 C 
ENDBRANCH   9  23
TORSDOF 4
ENDMDL
