MODEL 1
REMARK VINA RESULT:      -3.6      0.000      0.000
REMARK  Name = 
REMARK  3 active torsions:
REMARK  status: ('A' for Active; 'I' for Inactive)
REMARK    1  A    between atoms: C_1  and  C_2
REMARK    2  A    between atoms: C_2  and  O_3
REMARK    3  A    between atoms: O_3  and  C_4
REMARK                            x       y       z     vdW  Elec       q    Type
REMARK                         _______ _______ _______ _____ _____    ______ ____
ROOT
ATOM      1  O   UNL     1       7.880   4.493  16.615  0.00  0.00    +0.000 OA
ENDROOT
BRANCH   1   2
ATOM      2  C   UNL     1       7.129   4.744  15.498  0.00  0.00    +0.000 C 
ATOM      3  O   UNL     1       7.569   5.355  14.530  0.00  0.00    +0.000 OA
ATOM      4 CL   UNL     1       5.509   4.121  15.618  0.00  0.00    +0.000 Cl
ENDBRANCH   1   2
BRANCH   1   6
ATOM      5  C   UNL     1       7.626   6.085  18.423  0.00  0.00    +0.000 C 
ATOM      6  C   UNL     1       7.234   4.725  17.875  0.00  0.00    +0.000 C 
ENDBRANCH   1   6
TORSDOF 2
ENDMDL
MODEL 2
REMARK VINA RESULT:      -3.5      1.423      1.966
REMARK  Name = 
REMARK  3 active torsions:
REMARK  status: ('A' for Active; 'I' for Inactive)
REMARK    1  A    between atoms: C_1  and  C_2
REMARK    2  A    between atoms: C_2  and  O_3
REMARK    3  A    between atoms: O_3  and  C_4
REMARK                            x       y       z     vdW  Elec       q    Type
REMARK                         _______ _______ _______ _____ _____    ______ ____
ROOT
ATOM      1  O   UNL     1       7.370   6.023  16.179  0.00  0.00    +0.000 OA
ENDROOT
BRANCH   1   2
ATOM      2  C   UNL     1       7.301   4.700  16.527  0.00  0.00    +0.000 C 
ATOM      3  O   UNL     1       8.134   4.163  17.248  0.00  0.00    +0.000 OA
ATOM      4 CL   UNL     1       5.929   3.888  15.830  0.00  0.00    +0.000 Cl
ENDBRANCH   1   2
BRANCH   1   6
ATOM      5  C   UNL     1       7.781   7.938  17.604  0.00  0.00    +0.000 C 
ATOM      6  C   UNL     1       6.755   6.947  17.087  0.00  0.00    +0.000 C 
ENDBRANCH   1   6
TORSDOF 2
ENDMDL
MODEL 3
REMARK VINA RESULT:      -3.4      1.959      3.232
REMARK  Name = 
REMARK  3 active torsions:
REMARK  status: ('A' for Active; 'I' for Inactive)
REMARK    1  A    between atoms: C_1  and  C_2
REMARK    2  A    between atoms: C_2  and  O_3
REMARK    3  A    between atoms: O_3  and  C_4
REMARK                            x       y       z     vdW  Elec       q    Type
REMARK                         _______ _______ _______ _____ _____    ______ ____
ROOT
ATOM      1  O   UNL     1       7.868   4.472  16.562  0.00  0.00    +0.000 OA
ENDROOT
BRANCH   1   2
ATOM      2  C   UNL     1       7.441   5.065  17.719  0.00  0.00    +0.000 C 
ATOM      3  O   UNL     1       7.031   4.422  18.679  0.00  0.00    +0.000 OA
ATOM      4 CL   UNL     1       7.533   6.802  17.663  0.00  0.00    +0.000 Cl
ENDBRANCH   1   2
BRANCH   1   6
ATOM      5  C   UNL     1       5.860   3.888  15.339  0.00  0.00    +0.000 C 
ATOM      6  C   UNL     1       7.101   4.761  15.384  0.00  0.00    +0.000 C 
ENDBRANCH   1   6
TORSDOF 2
ENDMDL
MODEL 4
REMARK VINA RESULT:      -3.3      2.613      3.090
REMARK  Name = 
REMARK  3 active torsions:
REMARK  status: ('A' for Active; 'I' for Inactive)
REMARK    1  A    between atoms: C_1  and  C_2
REMARK    2  A    between atoms: C_2  and  O_3
REMARK    3  A    between atoms: O_3  and  C_4
REMARK                            x       y       z     vdW  Elec       q    Type
REMARK                         _______ _______ _______ _____ _____    ______ ____
ROOT
ATOM      1  O   UNL     1       6.446   4.397  18.761  0.00  0.00    +0.000 OA
ENDROOT
BRANCH   1   2
ATOM      2  C   UNL     1       7.464   4.949  18.031  0.00  0.00    +0.000 C 
ATOM      3  O   UNL     1       8.032   4.346  17.127  0.00  0.00    +0.000 OA
ATOM      4 CL   UNL     1       7.857   6.568  18.534  0.00  0.00    +0.000 Cl
ENDBRANCH   1   2
BRANCH   1   6
ATOM      5  C   UNL     1       4.427   5.509  18.017  0.00  0.00    +0.000 C 
ATOM      6  C   UNL     1       5.399   5.293  19.162  0.00  0.00    +0.000 C 
ENDBRANCH   1   6
TORSDOF 2
ENDMDL
MODEL 5
REMARK VINA RESULT:      -3.3      2.578      4.137
REMARK  Name = 
REMARK  3 active torsions:
REMARK  status: ('A' for Active; 'I' for Inactive)
REMARK    1  A    between atoms: C_1  and  C_2
REMARK    2  A    between atoms: C_2  and  O_3
REMARK    3  A    between atoms: O_3  and  C_4
REMARK                            x       y       z     vdW  Elec       q    Type
REMARK                         _______ _______ _______ _____ _____    ______ ____
ROOT
ATOM      1  O   UNL     1       6.335   3.661  13.899  0.00  0.00    +0.000 OA
ENDROOT
BRANCH   1   2
ATOM      2  C   UNL     1       6.669   4.868  14.452  0.00  0.00    +0.000 C 
ATOM      3  O   UNL     1       7.784   5.364  14.332  0.00  0.00    +0.000 OA
ATOM      4 CL   UNL     1       5.358   5.594  15.336  0.00  0.00    +0.000 Cl
ENDBRANCH   1   2
BRANCH   1   6
ATOM      5  C   UNL     1       5.007   3.240  11.917  0.00  0.00    +0.000 C 
ATOM      6  C   UNL     1       6.378   3.590  12.467  0.00  0.00    +0.000 C 
ENDBRANCH   1   6
TORSDOF 2
ENDMDL
MODEL 6
REMARK VINA RESULT:      -3.3      1.532      3.117
REMARK  Name = 
REMARK  3 active torsions:
REMARK  status: ('A' for Active; 'I' for Inactive)
REMARK    1  A    between atoms: C_1  and  C_2
REMARK    2  A    between atoms: C_2  and  O_3
REMARK    3  A    between atoms: O_3  and  C_4
REMARK                            x       y       z     vdW  Elec       q    Type
REMARK                         _______ _______ _______ _____ _____    ______ ____
ROOT
ATOM      1  O   UNL     1       7.436   4.746  15.718  0.00  0.00    +0.000 OA
ENDROOT
BRANCH   1   2
ATOM      2  C   UNL     1       7.357   4.558  17.072  0.00  0.00    +0.000 C 
ATOM      3  O   UNL     1       8.301   4.146  17.738  0.00  0.00    +0.000 OA
ATOM      4 CL   UNL     1       5.790   4.948  17.719  0.00  0.00    +0.000 Cl
ENDBRANCH   1   2
BRANCH   1   6
ATOM      5  C   UNL     1       6.167   3.917  13.829  0.00  0.00    +0.000 C 
ATOM      6  C   UNL     1       6.186   4.853  15.022  0.00  0.00    +0.000 C 
ENDBRANCH   1   6
TORSDOF 2
ENDMDL
MODEL 7
REMARK VINA RESULT:      -3.2     11.425     11.726
REMARK  Name = 
REMARK  3 active torsions:
REMARK  status: ('A' for Active; 'I' for Inactive)
REMARK    1  A    between atoms: C_1  and  C_2
REMARK    2  A    between atoms: C_2  and  O_3
REMARK    3  A    between atoms: O_3  and  C_4
REMARK                            x       y       z     vdW  Elec       q    Type
REMARK                         _______ _______ _______ _____ _____    ______ ____
ROOT
ATOM      1  O   UNL     1       9.440   4.694  27.217  0.00  0.00    +0.000 OA
ENDROOT
BRANCH   1   2
ATOM      2  C   UNL     1       8.127   4.624  27.595  0.00  0.00    +0.000 C 
ATOM      3  O   UNL     1       7.365   3.758  27.180  0.00  0.00    +0.000 OA
ATOM      4 CL   UNL     1       7.672   5.889  28.700  0.00  0.00    +0.000 Cl
ENDBRANCH   1   2
BRANCH   1   6
ATOM      5  C   UNL     1      11.798   4.463  27.724  0.00  0.00    +0.000 C 
ATOM      6  C   UNL     1      10.383   4.054  28.088  0.00  0.00    +0.000 C 
ENDBRANCH   1   6
TORSDOF 2
ENDMDL
MODEL 8
REMARK VINA RESULT:      -3.2      6.403      6.656
REMARK  Name = 
REMARK  3 active torsions:
REMARK  status: ('A' for Active; 'I' for Inactive)
REMARK    1  A    between atoms: C_1  and  C_2
REMARK    2  A    between atoms: C_2  and  O_3
REMARK    3  A    between atoms: O_3  and  C_4
REMARK                            x       y       z     vdW  Elec       q    Type
REMARK                         _______ _______ _______ _____ _____    ______ ____
ROOT
ATOM      1  O   UNL     1       1.029   2.429  19.224  0.00  0.00    +0.000 OA
ENDROOT
BRANCH   1   2
ATOM      2  C   UNL     1       1.782   2.812  18.147  0.00  0.00    +0.000 C 
ATOM      3  O   UNL     1       1.463   3.743  17.415  0.00  0.00    +0.000 OA
ATOM      4 CL   UNL     1       3.207   1.836  17.935  0.00  0.00    +0.000 Cl
ENDBRANCH   1   2
BRANCH   1   6
ATOM      5  C   UNL     1       1.599   2.736  21.558  0.00  0.00    +0.000 C 
ATOM      6  C   UNL     1       0.978   3.354  20.319  0.00  0.00    +0.000 C 
ENDBRANCH   1   6
TORSDOF 2
ENDMDL
MODEL 9
REMARK VINA RESULT:      -3.2      7.085      7.564
REMARK  Name = 
REMARK  3 active torsions:
REMARK  status: ('A' for Active; 'I' for Inactive)
REMARK    1  A    between atoms: C_1  and  C_2
REMARK    2  A    between atoms: C_2  and  O_3
REMARK    3  A    between atoms: O_3  and  C_4
REMARK                            x       y       z     vdW  Elec       q    Type
REMARK                         _______ _______ _______ _____ _____    ______ ____
ROOT
ATOM      1  O   UNL     1       1.095   2.580  20.393  0.00  0.00    +0.000 OA
ENDROOT
BRANCH   1   2
ATOM      2  C   UNL     1       1.924   3.279  21.229  0.00  0.00    +0.000 C 
ATOM      3  O   UNL     1       2.551   2.744  22.137  0.00  0.00    +0.000 OA
ATOM      4 CL   UNL     1       1.971   4.980  20.868  0.00  0.00    +0.000 Cl
ENDBRANCH   1   2
BRANCH   1   6
ATOM      5  C   UNL     1       2.156   2.290  18.235  0.00  0.00    +0.000 C 
ATOM      6  C   UNL     1       1.075   3.006  19.024  0.00  0.00    +0.000 C 
ENDBRANCH   1   6
TORSDOF 2
ENDMDL
