MODEL 1
REMARK VINA RESULT:      -6.9      0.000      0.000
REMARK  Name = 
REMARK  21 active torsions:
REMARK  status: ('A' for Active; 'I' for Inactive)
REMARK    1  A    between atoms: C_1  and  O_2
REMARK    2  A    between atoms: O_2  and  C_3
REMARK    3  A    between atoms: C_4  and  C_5
REMARK    4  A    between atoms: C_6  and  C_7
REMARK    5  A    between atoms: C_7  and  C_8
REMARK    6  A    between atoms: C_9  and  C_10
REMARK    7  A    between atoms: C_9  and  C_11
REMARK    8  A    between atoms: C_11  and  C_12
REMARK    9  A    between atoms: C_12  and  C_13
REMARK   10  A    between atoms: C_14  and  C_15
REMARK   11  A    between atoms: C_14  and  C_16
REMARK   12  A    between atoms: C_16  and  C_17
REMARK   13  A    between atoms: C_17  and  C_18
REMARK   14  A    between atoms: C_19  and  C_20
REMARK   15  A    between atoms: C_19  and  C_21
REMARK   16  A    between atoms: C_22  and  O_23
REMARK   17  A    between atoms: O_23  and  C_24
REMARK   18  A    between atoms: C_25  and  O_26
REMARK   19  A    between atoms: O_26  and  C_27
REMARK   20  A    between atoms: C_28  and  O_29
REMARK   21  A    between atoms: O_29  and  C_30
REMARK                            x       y       z     vdW  Elec       q    Type
REMARK                         _______ _______ _______ _____ _____    ______ ____
ROOT
ATOM      1  C   UNL     1      -0.543  10.510  18.593  0.00  0.00    +0.000 A 
ATOM      2  C   UNL     1       0.471   9.566  18.913  0.00  0.00    +0.000 A 
ATOM      3  C   UNL     1       1.258   8.936  17.778  0.00  0.00    +0.000 C 
ATOM      4  C   UNL     1       0.798   9.299  20.273  0.00  0.00    +0.000 A 
ATOM      5  C   UNL     1       0.271  10.144  21.276  0.00  0.00    +0.000 A 
ATOM      6  C   UNL     1      -0.642  11.174  20.940  0.00  0.00    +0.000 A 
ATOM      7  C   UNL     1      -1.090  11.337  19.604  0.00  0.00    +0.000 A 
ENDROOT
BRANCH   1   9
ATOM      8  C   UNL     1      -2.063  10.059  16.783  0.00  0.00    +0.000 C 
ATOM      9  O   UNL     1      -0.913  10.745  17.285  0.00  0.00    +0.000 OA
ENDBRANCH   1   9
BRANCH   5  10
ATOM     10  O   UNL     1       0.703  10.205  22.599  0.00  0.00    +0.000 OA
ATOM     11  C   UNL     1       0.118   9.425  23.630  0.00  0.00    +0.000 C 
ENDBRANCH   5  10
BRANCH   6  12
ATOM     12  O   UNL     1      -1.000  11.938  22.033  0.00  0.00    +0.000 OA
ATOM     13  C   UNL     1      -0.550  13.270  22.181  0.00  0.00    +0.000 C 
ENDBRANCH   6  12
BRANCH   7  14
ATOM     14  O   UNL     1      -2.011  12.332  19.406  0.00  0.00    +0.000 OA
ATOM     15  C   UNL     1      -3.398  12.113  19.578  0.00  0.00    +0.000 C 
ENDBRANCH   7  14
BRANCH   4  16
ATOM     16  C   UNL     1       1.699   8.194  20.747  0.00  0.00    +0.000 C 
BRANCH  16  17
ATOM     17  C   UNL     1       1.371   6.770  20.576  0.00  0.00    +0.000 C 
ATOM     18  C   UNL     1       2.124   5.745  20.133  0.00  0.00    +0.000 C 
ATOM     19  C   UNL     1       3.596   5.855  19.849  0.00  0.00    +0.000 C 
BRANCH  18  20
ATOM     20  C   UNL     1       1.497   4.379  19.903  0.00  0.00    +0.000 C 
BRANCH  20  21
ATOM     21  C   UNL     1       1.383   4.077  18.404  0.00  0.00    +0.000 C 
BRANCH  21  22
ATOM     22  C   UNL     1       2.522   4.441  17.539  0.00  0.00    +0.000 C 
ATOM     23  C   UNL     1       3.547   3.595  17.296  0.00  0.00    +0.000 C 
ATOM     24  C   UNL     1       3.644   2.210  17.895  0.00  0.00    +0.000 C 
BRANCH  23  25
ATOM     25  C   UNL     1       4.710   3.961  16.391  0.00  0.00    +0.000 C 
BRANCH  25  26
ATOM     26  C   UNL     1       5.939   4.414  17.177  0.00  0.00    +0.000 C 
BRANCH  26  27
ATOM     27  C   UNL     1       6.384   5.820  16.963  0.00  0.00    +0.000 C 
ATOM     28  C   UNL     1       7.222   6.445  17.809  0.00  0.00    +0.000 C 
ATOM     29  C   UNL     1       7.795   5.812  19.054  0.00  0.00    +0.000 C 
ATOM     30  C   UNL     1       7.660   7.857  17.562  0.00  0.00    +0.000 C 
ENDBRANCH  26  27
ENDBRANCH  25  26
ENDBRANCH  23  25
ENDBRANCH  21  22
ENDBRANCH  20  21
ENDBRANCH  18  20
ENDBRANCH  16  17
ENDBRANCH   4  16
TORSDOF 12
ENDMDL
MODEL 2
REMARK VINA RESULT:      -6.5      3.545      9.862
REMARK  Name = 
REMARK  21 active torsions:
REMARK  status: ('A' for Active; 'I' for Inactive)
REMARK    1  A    between atoms: C_1  and  O_2
REMARK    2  A    between atoms: O_2  and  C_3
REMARK    3  A    between atoms: C_4  and  C_5
REMARK    4  A    between atoms: C_6  and  C_7
REMARK    5  A    between atoms: C_7  and  C_8
REMARK    6  A    between atoms: C_9  and  C_10
REMARK    7  A    between atoms: C_9  and  C_11
REMARK    8  A    between atoms: C_11  and  C_12
REMARK    9  A    between atoms: C_12  and  C_13
REMARK   10  A    between atoms: C_14  and  C_15
REMARK   11  A    between atoms: C_14  and  C_16
REMARK   12  A    between atoms: C_16  and  C_17
REMARK   13  A    between atoms: C_17  and  C_18
REMARK   14  A    between atoms: C_19  and  C_20
REMARK   15  A    between atoms: C_19  and  C_21
REMARK   16  A    between atoms: C_22  and  O_23
REMARK   17  A    between atoms: O_23  and  C_24
REMARK   18  A    between atoms: C_25  and  O_26
REMARK   19  A    between atoms: O_26  and  C_27
REMARK   20  A    between atoms: C_28  and  O_29
REMARK   21  A    between atoms: O_29  and  C_30
REMARK                            x       y       z     vdW  Elec       q    Type
REMARK                         _______ _______ _______ _____ _____    ______ ____
ROOT
ATOM      1  C   UNL     1       2.620   4.396  19.467  0.00  0.00    +0.000 A 
ATOM      2  C   UNL     1       2.372   5.795  19.414  0.00  0.00    +0.000 A 
ATOM      3  C   UNL     1       1.456   6.409  20.458  0.00  0.00    +0.000 C 
ATOM      4  C   UNL     1       3.050   6.607  18.460  0.00  0.00    +0.000 A 
ATOM      5  C   UNL     1       4.128   6.046  17.737  0.00  0.00    +0.000 A 
ATOM      6  C   UNL     1       4.460   4.678  17.889  0.00  0.00    +0.000 A 
ATOM      7  C   UNL     1       3.682   3.832  18.720  0.00  0.00    +0.000 A 
ENDROOT
BRANCH   1   9
ATOM      8  C   UNL     1       2.607   3.185  21.546  0.00  0.00    +0.000 C 
ATOM      9  O   UNL     1       1.936   3.583  20.347  0.00  0.00    +0.000 OA
ENDBRANCH   1   9
BRANCH   5  10
ATOM     10  O   UNL     1       5.064   6.758  16.990  0.00  0.00    +0.000 OA
ATOM     11  C   UNL     1       6.283   7.230  17.543  0.00  0.00    +0.000 C 
ENDBRANCH   5  10
BRANCH   6  12
ATOM     12  O   UNL     1       5.576   4.322  17.157  0.00  0.00    +0.000 OA
ATOM     13  C   UNL     1       5.465   3.809  15.844  0.00  0.00    +0.000 C 
ENDBRANCH   6  12
BRANCH   7  14
ATOM     14  O   UNL     1       4.066   2.517  18.751  0.00  0.00    +0.000 OA
ATOM     15  C   UNL     1       3.372   1.518  18.027  0.00  0.00    +0.000 C 
ENDBRANCH   7  14
BRANCH   4  16
ATOM     16  C   UNL     1       2.737   8.047  18.169  0.00  0.00    +0.000 C 
BRANCH  16  17
ATOM     17  C   UNL     1       1.392   8.510  17.794  0.00  0.00    +0.000 C 
ATOM     18  C   UNL     1       0.758   9.667  18.062  0.00  0.00    +0.000 C 
ATOM     19  C   UNL     1       1.419  10.845  18.722  0.00  0.00    +0.000 C 
BRANCH  18  20
ATOM     20  C   UNL     1      -0.705   9.843  17.686  0.00  0.00    +0.000 C 
BRANCH  20  21
ATOM     21  C   UNL     1      -1.268  11.142  18.275  0.00  0.00    +0.000 C 
BRANCH  21  22
ATOM     22  C   UNL     1      -2.732  11.332  18.251  0.00  0.00    +0.000 C 
ATOM     23  C   UNL     1      -3.445  11.319  17.104  0.00  0.00    +0.000 C 
ATOM     24  C   UNL     1      -2.824  11.131  15.738  0.00  0.00    +0.000 C 
BRANCH  23  25
ATOM     25  C   UNL     1      -4.953  11.496  17.079  0.00  0.00    +0.000 C 
BRANCH  25  26
ATOM     26  C   UNL     1      -5.641  10.795  18.248  0.00  0.00    +0.000 C 
BRANCH  26  27
ATOM     27  C   UNL     1      -6.760  11.533  18.901  0.00  0.00    +0.000 C 
ATOM     28  C   UNL     1      -6.576  12.295  19.993  0.00  0.00    +0.000 C 
ATOM     29  C   UNL     1      -5.245  12.486  20.679  0.00  0.00    +0.000 C 
ATOM     30  C   UNL     1      -7.719  13.034  20.622  0.00  0.00    +0.000 C 
ENDBRANCH  26  27
ENDBRANCH  25  26
ENDBRANCH  23  25
ENDBRANCH  21  22
ENDBRANCH  20  21
ENDBRANCH  18  20
ENDBRANCH  16  17
ENDBRANCH   4  16
TORSDOF 12
ENDMDL
MODEL 3
REMARK VINA RESULT:      -6.3      2.089      3.917
REMARK  Name = 
REMARK  21 active torsions:
REMARK  status: ('A' for Active; 'I' for Inactive)
REMARK    1  A    between atoms: C_1  and  O_2
REMARK    2  A    between atoms: O_2  and  C_3
REMARK    3  A    between atoms: C_4  and  C_5
REMARK    4  A    between atoms: C_6  and  C_7
REMARK    5  A    between atoms: C_7  and  C_8
REMARK    6  A    between atoms: C_9  and  C_10
REMARK    7  A    between atoms: C_9  and  C_11
REMARK    8  A    between atoms: C_11  and  C_12
REMARK    9  A    between atoms: C_12  and  C_13
REMARK   10  A    between atoms: C_14  and  C_15
REMARK   11  A    between atoms: C_14  and  C_16
REMARK   12  A    between atoms: C_16  and  C_17
REMARK   13  A    between atoms: C_17  and  C_18
REMARK   14  A    between atoms: C_19  and  C_20
REMARK   15  A    between atoms: C_19  and  C_21
REMARK   16  A    between atoms: C_22  and  O_23
REMARK   17  A    between atoms: O_23  and  C_24
REMARK   18  A    between atoms: C_25  and  O_26
REMARK   19  A    between atoms: O_26  and  C_27
REMARK   20  A    between atoms: C_28  and  O_29
REMARK   21  A    between atoms: O_29  and  C_30
REMARK                            x       y       z     vdW  Elec       q    Type
REMARK                         _______ _______ _______ _____ _____    ______ ____
ROOT
ATOM      1  C   UNL     1      -4.448  11.776  18.730  0.00  0.00    +0.000 A 
ATOM      2  C   UNL     1      -3.164  11.407  18.242  0.00  0.00    +0.000 A 
ATOM      3  C   UNL     1      -3.070  10.752  16.875  0.00  0.00    +0.000 C 
ATOM      4  C   UNL     1      -1.993  11.737  18.983  0.00  0.00    +0.000 A 
ATOM      5  C   UNL     1      -2.112  12.628  20.075  0.00  0.00    +0.000 A 
ATOM      6  C   UNL     1      -3.383  13.102  20.480  0.00  0.00    +0.000 A 
ATOM      7  C   UNL     1      -4.564  12.647  19.841  0.00  0.00    +0.000 A 
ENDROOT
BRANCH   1   9
ATOM      8  C   UNL     1      -6.422  10.404  18.632  0.00  0.00    +0.000 C 
ATOM      9  O   UNL     1      -5.597  11.421  18.055  0.00  0.00    +0.000 OA
ENDBRANCH   1   9
BRANCH   5  10
ATOM     10  O   UNL     1      -1.056  13.270  20.718  0.00  0.00    +0.000 OA
ATOM     11  C   UNL     1      -0.445  12.750  21.889  0.00  0.00    +0.000 C 
ENDBRANCH   5  10
BRANCH   6  12
ATOM     12  O   UNL     1      -3.300  14.011  21.518  0.00  0.00    +0.000 OA
ATOM     13  C   UNL     1      -3.475  15.397  21.300  0.00  0.00    +0.000 C 
ENDBRANCH   6  12
BRANCH   7  14
ATOM     14  O   UNL     1      -5.739  13.134  20.350  0.00  0.00    +0.000 OA
ATOM     15  C   UNL     1      -6.300  12.632  21.548  0.00  0.00    +0.000 C 
ENDBRANCH   7  14
BRANCH   4  16
ATOM     16  C   UNL     1      -0.609  11.238  18.684  0.00  0.00    +0.000 C 
BRANCH  16  17
ATOM     17  C   UNL     1       0.037  10.166  19.457  0.00  0.00    +0.000 C 
ATOM     18  C   UNL     1       1.073   9.365  19.146  0.00  0.00    +0.000 C 
ATOM     19  C   UNL     1       1.916   9.535  17.914  0.00  0.00    +0.000 C 
BRANCH  18  20
ATOM     20  C   UNL     1       1.457   8.219  20.069  0.00  0.00    +0.000 C 
BRANCH  20  21
ATOM     21  C   UNL     1       2.517   7.324  19.415  0.00  0.00    +0.000 C 
BRANCH  21  22
ATOM     22  C   UNL     1       2.061   6.088  18.750  0.00  0.00    +0.000 C 
ATOM     23  C   UNL     1       1.912   4.920  19.412  0.00  0.00    +0.000 C 
ATOM     24  C   UNL     1       2.213   4.753  20.885  0.00  0.00    +0.000 C 
BRANCH  23  25
ATOM     25  C   UNL     1       1.424   3.653  18.733  0.00  0.00    +0.000 C 
BRANCH  25  26
ATOM     26  C   UNL     1       2.574   2.772  18.250  0.00  0.00    +0.000 C 
BRANCH  26  27
ATOM     27  C   UNL     1       3.288   3.224  17.022  0.00  0.00    +0.000 C 
ATOM     28  C   UNL     1       4.493   3.819  17.070  0.00  0.00    +0.000 C 
ATOM     29  C   UNL     1       5.248   4.101  18.346  0.00  0.00    +0.000 C 
ATOM     30  C   UNL     1       5.191   4.254  15.817  0.00  0.00    +0.000 C 
ENDBRANCH  26  27
ENDBRANCH  25  26
ENDBRANCH  23  25
ENDBRANCH  21  22
ENDBRANCH  20  21
ENDBRANCH  18  20
ENDBRANCH  16  17
ENDBRANCH   4  16
TORSDOF 12
ENDMDL
MODEL 4
REMARK VINA RESULT:      -6.3      2.097      4.140
REMARK  Name = 
REMARK  21 active torsions:
REMARK  status: ('A' for Active; 'I' for Inactive)
REMARK    1  A    between atoms: C_1  and  O_2
REMARK    2  A    between atoms: O_2  and  C_3
REMARK    3  A    between atoms: C_4  and  C_5
REMARK    4  A    between atoms: C_6  and  C_7
REMARK    5  A    between atoms: C_7  and  C_8
REMARK    6  A    between atoms: C_9  and  C_10
REMARK    7  A    between atoms: C_9  and  C_11
REMARK    8  A    between atoms: C_11  and  C_12
REMARK    9  A    between atoms: C_12  and  C_13
REMARK   10  A    between atoms: C_14  and  C_15
REMARK   11  A    between atoms: C_14  and  C_16
REMARK   12  A    between atoms: C_16  and  C_17
REMARK   13  A    between atoms: C_17  and  C_18
REMARK   14  A    between atoms: C_19  and  C_20
REMARK   15  A    between atoms: C_19  and  C_21
REMARK   16  A    between atoms: C_22  and  O_23
REMARK   17  A    between atoms: O_23  and  C_24
REMARK   18  A    between atoms: C_25  and  O_26
REMARK   19  A    between atoms: O_26  and  C_27
REMARK   20  A    between atoms: C_28  and  O_29
REMARK   21  A    between atoms: O_29  and  C_30
REMARK                            x       y       z     vdW  Elec       q    Type
REMARK                         _______ _______ _______ _____ _____    ______ ____
ROOT
ATOM      1  C   UNL     1      -4.960  11.940  18.638  0.00  0.00    +0.000 A 
ATOM      2  C   UNL     1      -3.845  11.495  17.877  0.00  0.00    +0.000 A 
ATOM      3  C   UNL     1      -4.086  10.993  16.464  0.00  0.00    +0.000 C 
ATOM      4  C   UNL     1      -2.526  11.612  18.402  0.00  0.00    +0.000 A 
ATOM      5  C   UNL     1      -2.329  12.380  19.572  0.00  0.00    +0.000 A 
ATOM      6  C   UNL     1      -3.434  12.937  20.260  0.00  0.00    +0.000 A 
ATOM      7  C   UNL     1      -4.760  12.686  19.825  0.00  0.00    +0.000 A 
ENDROOT
BRANCH   1   9
ATOM      8  C   UNL     1      -6.832  12.880  17.454  0.00  0.00    +0.000 C 
ATOM      9  O   UNL     1      -6.250  11.788  18.171  0.00  0.00    +0.000 OA
ENDBRANCH   1   9
BRANCH   5  10
ATOM     10  O   UNL     1      -1.101  12.829  20.053  0.00  0.00    +0.000 OA
ATOM     11  C   UNL     1      -0.380  13.886  19.440  0.00  0.00    +0.000 C 
ENDBRANCH   5  10
BRANCH   6  12
ATOM     12  O   UNL     1      -3.048  13.708  21.340  0.00  0.00    +0.000 OA
ATOM     13  C   UNL     1      -3.047  13.187  22.655  0.00  0.00    +0.000 C 
ENDBRANCH   6  12
BRANCH   7  14
ATOM     14  O   UNL     1      -5.751  13.234  20.597  0.00  0.00    +0.000 OA
ATOM     15  C   UNL     1      -6.489  12.463  21.525  0.00  0.00    +0.000 C 
ENDBRANCH   7  14
BRANCH   4  16
ATOM     16  C   UNL     1      -1.294  11.006  17.793  0.00  0.00    +0.000 C 
BRANCH  16  17
ATOM     17  C   UNL     1      -0.473  10.001  18.488  0.00  0.00    +0.000 C 
ATOM     18  C   UNL     1       0.864   9.874  18.578  0.00  0.00    +0.000 C 
ATOM     19  C   UNL     1       1.834  10.901  18.065  0.00  0.00    +0.000 C 
BRANCH  18  20
ATOM     20  C   UNL     1       1.473   8.646  19.236  0.00  0.00    +0.000 C 
BRANCH  20  21
ATOM     21  C   UNL     1       2.591   8.059  18.367  0.00  0.00    +0.000 C 
BRANCH  21  22
ATOM     22  C   UNL     1       2.392   6.708  17.807  0.00  0.00    +0.000 C 
ATOM     23  C   UNL     1       2.587   5.586  18.533  0.00  0.00    +0.000 C 
ATOM     24  C   UNL     1       3.047   5.596  19.974  0.00  0.00    +0.000 C 
BRANCH  23  25
ATOM     25  C   UNL     1       2.364   4.196  17.964  0.00  0.00    +0.000 C 
BRANCH  25  26
ATOM     26  C   UNL     1       3.436   3.802  16.950  0.00  0.00    +0.000 C 
BRANCH  26  27
ATOM     27  C   UNL     1       4.851   3.883  17.414  0.00  0.00    +0.000 C 
ATOM     28  C   UNL     1       5.737   4.737  16.870  0.00  0.00    +0.000 C 
ATOM     29  C   UNL     1       5.414   5.690  15.745  0.00  0.00    +0.000 C 
ATOM     30  C   UNL     1       7.150   4.802  17.364  0.00  0.00    +0.000 C 
ENDBRANCH  26  27
ENDBRANCH  25  26
ENDBRANCH  23  25
ENDBRANCH  21  22
ENDBRANCH  20  21
ENDBRANCH  18  20
ENDBRANCH  16  17
ENDBRANCH   4  16
TORSDOF 12
ENDMDL
MODEL 5
REMARK VINA RESULT:      -6.2      1.602      4.035
REMARK  Name = 
REMARK  21 active torsions:
REMARK  status: ('A' for Active; 'I' for Inactive)
REMARK    1  A    between atoms: C_1  and  O_2
REMARK    2  A    between atoms: O_2  and  C_3
REMARK    3  A    between atoms: C_4  and  C_5
REMARK    4  A    between atoms: C_6  and  C_7
REMARK    5  A    between atoms: C_7  and  C_8
REMARK    6  A    between atoms: C_9  and  C_10
REMARK    7  A    between atoms: C_9  and  C_11
REMARK    8  A    between atoms: C_11  and  C_12
REMARK    9  A    between atoms: C_12  and  C_13
REMARK   10  A    between atoms: C_14  and  C_15
REMARK   11  A    between atoms: C_14  and  C_16
REMARK   12  A    between atoms: C_16  and  C_17
REMARK   13  A    between atoms: C_17  and  C_18
REMARK   14  A    between atoms: C_19  and  C_20
REMARK   15  A    between atoms: C_19  and  C_21
REMARK   16  A    between atoms: C_22  and  O_23
REMARK   17  A    between atoms: O_23  and  C_24
REMARK   18  A    between atoms: C_25  and  O_26
REMARK   19  A    between atoms: O_26  and  C_27
REMARK   20  A    between atoms: C_28  and  O_29
REMARK   21  A    between atoms: O_29  and  C_30
REMARK                            x       y       z     vdW  Elec       q    Type
REMARK                         _______ _______ _______ _____ _____    ______ ____
ROOT
ATOM      1  C   UNL     1      -2.516  12.677  20.872  0.00  0.00    +0.000 A 
ATOM      2  C   UNL     1      -1.410  11.841  20.554  0.00  0.00    +0.000 A 
ATOM      3  C   UNL     1      -0.342  11.620  21.610  0.00  0.00    +0.000 C 
ATOM      4  C   UNL     1      -1.366  11.154  19.307  0.00  0.00    +0.000 A 
ATOM      5  C   UNL     1      -2.529  11.133  18.503  0.00  0.00    +0.000 A 
ATOM      6  C   UNL     1      -3.681  11.863  18.888  0.00  0.00    +0.000 A 
ATOM      7  C   UNL     1      -3.669  12.675  20.050  0.00  0.00    +0.000 A 
ENDROOT
BRANCH   1   9
ATOM      8  C   UNL     1      -2.994  12.711  23.230  0.00  0.00    +0.000 C 
ATOM      9  O   UNL     1      -2.554  13.392  22.051  0.00  0.00    +0.000 OA
ENDBRANCH   1   9
BRANCH   5  10
ATOM     10  O   UNL     1      -2.751  10.292  17.415  0.00  0.00    +0.000 OA
ATOM     11  C   UNL     1      -2.560  10.713  16.073  0.00  0.00    +0.000 C 
ENDBRANCH   5  10
BRANCH   6  12
ATOM     12  O   UNL     1      -4.738  11.673  18.020  0.00  0.00    +0.000 OA
ATOM     13  C   UNL     1      -5.808  10.805  18.338  0.00  0.00    +0.000 C 
ENDBRANCH   6  12
BRANCH   7  14
ATOM     14  O   UNL     1      -4.821  13.374  20.296  0.00  0.00    +0.000 OA
ATOM     15  C   UNL     1      -5.825  12.883  21.163  0.00  0.00    +0.000 C 
ENDBRANCH   7  14
BRANCH   4  16
ATOM     16  C   UNL     1      -0.178  10.408  18.770  0.00  0.00    +0.000 C 
BRANCH  16  17
ATOM     17  C   UNL     1       0.631   9.499  19.597  0.00  0.00    +0.000 C 
ATOM     18  C   UNL     1       1.545   8.575  19.244  0.00  0.00    +0.000 C 
ATOM     19  C   UNL     1       2.047   8.395  17.839  0.00  0.00    +0.000 C 
BRANCH  18  20
ATOM     20  C   UNL     1       2.138   7.647  20.292  0.00  0.00    +0.000 C 
BRANCH  20  21
ATOM     21  C   UNL     1       1.752   6.190  20.013  0.00  0.00    +0.000 C 
BRANCH  21  22
ATOM     22  C   UNL     1       2.839   5.227  19.749  0.00  0.00    +0.000 C 
ATOM     23  C   UNL     1       2.833   4.402  18.680  0.00  0.00    +0.000 C 
ATOM     24  C   UNL     1       1.714   4.364  17.663  0.00  0.00    +0.000 C 
BRANCH  23  25
ATOM     25  C   UNL     1       3.959   3.424  18.397  0.00  0.00    +0.000 C 
BRANCH  25  26
ATOM     26  C   UNL     1       4.782   3.820  17.174  0.00  0.00    +0.000 C 
BRANCH  26  27
ATOM     27  C   UNL     1       5.987   4.662  17.427  0.00  0.00    +0.000 C 
ATOM     28  C   UNL     1       6.028   5.969  17.115  0.00  0.00    +0.000 C 
ATOM     29  C   UNL     1       4.887   6.724  16.477  0.00  0.00    +0.000 C 
ATOM     30  C   UNL     1       7.250   6.792  17.390  0.00  0.00    +0.000 C 
ENDBRANCH  26  27
ENDBRANCH  25  26
ENDBRANCH  23  25
ENDBRANCH  21  22
ENDBRANCH  20  21
ENDBRANCH  18  20
ENDBRANCH  16  17
ENDBRANCH   4  16
TORSDOF 12
ENDMDL
MODEL 6
REMARK VINA RESULT:      -6.2      3.477      9.749
REMARK  Name = 
REMARK  21 active torsions:
REMARK  status: ('A' for Active; 'I' for Inactive)
REMARK    1  A    between atoms: C_1  and  O_2
REMARK    2  A    between atoms: O_2  and  C_3
REMARK    3  A    between atoms: C_4  and  C_5
REMARK    4  A    between atoms: C_6  and  C_7
REMARK    5  A    between atoms: C_7  and  C_8
REMARK    6  A    between atoms: C_9  and  C_10
REMARK    7  A    between atoms: C_9  and  C_11
REMARK    8  A    between atoms: C_11  and  C_12
REMARK    9  A    between atoms: C_12  and  C_13
REMARK   10  A    between atoms: C_14  and  C_15
REMARK   11  A    between atoms: C_14  and  C_16
REMARK   12  A    between atoms: C_16  and  C_17
REMARK   13  A    between atoms: C_17  and  C_18
REMARK   14  A    between atoms: C_19  and  C_20
REMARK   15  A    between atoms: C_19  and  C_21
REMARK   16  A    between atoms: C_22  and  O_23
REMARK   17  A    between atoms: O_23  and  C_24
REMARK   18  A    between atoms: C_25  and  O_26
REMARK   19  A    between atoms: O_26  and  C_27
REMARK   20  A    between atoms: C_28  and  O_29
REMARK   21  A    between atoms: O_29  and  C_30
REMARK                            x       y       z     vdW  Elec       q    Type
REMARK                         _______ _______ _______ _____ _____    ______ ____
ROOT
ATOM      1  C   UNL     1       3.072   4.698  20.072  0.00  0.00    +0.000 A 
ATOM      2  C   UNL     1       2.528   5.937  19.635  0.00  0.00    +0.000 A 
ATOM      3  C   UNL     1       1.449   6.591  20.479  0.00  0.00    +0.000 C 
ATOM      4  C   UNL     1       3.060   6.587  18.485  0.00  0.00    +0.000 A 
ATOM      5  C   UNL     1       4.269   6.106  17.933  0.00  0.00    +0.000 A 
ATOM      6  C   UNL     1       4.884   4.942  18.454  0.00  0.00    +0.000 A 
ATOM      7  C   UNL     1       4.269   4.204  19.498  0.00  0.00    +0.000 A 
ENDROOT
BRANCH   1   9
ATOM      8  C   UNL     1       1.436   3.145  20.911  0.00  0.00    +0.000 C 
ATOM      9  O   UNL     1       2.538   4.025  21.152  0.00  0.00    +0.000 OA
ENDBRANCH   1   9
BRANCH   5  10
ATOM     10  O   UNL     1       5.064   6.777  17.006  0.00  0.00    +0.000 OA
ATOM     11  C   UNL     1       5.037   6.479  15.619  0.00  0.00    +0.000 C 
ENDBRANCH   5  10
BRANCH   6  12
ATOM     12  O   UNL     1       6.086   4.659  17.836  0.00  0.00    +0.000 OA
ATOM     13  C   UNL     1       7.316   5.086  18.387  0.00  0.00    +0.000 C 
ENDBRANCH   6  12
BRANCH   7  14
ATOM     14  O   UNL     1       4.928   3.067  19.888  0.00  0.00    +0.000 OA
ATOM     15  C   UNL     1       4.494   1.779  19.497  0.00  0.00    +0.000 C 
ENDBRANCH   7  14
BRANCH   4  16
ATOM     16  C   UNL     1       2.455   7.785  17.809  0.00  0.00    +0.000 C 
BRANCH  16  17
ATOM     17  C   UNL     1       2.214   9.057  18.508  0.00  0.00    +0.000 C 
ATOM     18  C   UNL     1       1.156   9.889  18.472  0.00  0.00    +0.000 C 
ATOM     19  C   UNL     1      -0.132   9.567  17.767  0.00  0.00    +0.000 C 
BRANCH  18  20
ATOM     20  C   UNL     1       1.217  11.234  19.177  0.00  0.00    +0.000 C 
BRANCH  20  21
ATOM     21  C   UNL     1       0.074  12.145  18.714  0.00  0.00    +0.000 C 
BRANCH  21  22
ATOM     22  C   UNL     1      -0.878  12.629  19.734  0.00  0.00    +0.000 C 
ATOM     23  C   UNL     1      -2.211  12.441  19.628  0.00  0.00    +0.000 C 
ATOM     24  C   UNL     1      -2.864  11.740  18.457  0.00  0.00    +0.000 C 
BRANCH  23  25
ATOM     25  C   UNL     1      -3.190  12.921  20.685  0.00  0.00    +0.000 C 
BRANCH  25  26
ATOM     26  C   UNL     1      -2.749  12.550  22.099  0.00  0.00    +0.000 C 
BRANCH  26  27
ATOM     27  C   UNL     1      -2.681  13.664  23.088  0.00  0.00    +0.000 C 
ATOM     28  C   UNL     1      -3.360  13.636  24.248  0.00  0.00    +0.000 C 
ATOM     29  C   UNL     1      -4.260  12.502  24.676  0.00  0.00    +0.000 C 
ATOM     30  C   UNL     1      -3.264  14.767  25.227  0.00  0.00    +0.000 C 
ENDBRANCH  26  27
ENDBRANCH  25  26
ENDBRANCH  23  25
ENDBRANCH  21  22
ENDBRANCH  20  21
ENDBRANCH  18  20
ENDBRANCH  16  17
ENDBRANCH   4  16
TORSDOF 12
ENDMDL
MODEL 7
REMARK VINA RESULT:      -6.2      2.247      4.722
REMARK  Name = 
REMARK  21 active torsions:
REMARK  status: ('A' for Active; 'I' for Inactive)
REMARK    1  A    between atoms: C_1  and  O_2
REMARK    2  A    between atoms: O_2  and  C_3
REMARK    3  A    between atoms: C_4  and  C_5
REMARK    4  A    between atoms: C_6  and  C_7
REMARK    5  A    between atoms: C_7  and  C_8
REMARK    6  A    between atoms: C_9  and  C_10
REMARK    7  A    between atoms: C_9  and  C_11
REMARK    8  A    between atoms: C_11  and  C_12
REMARK    9  A    between atoms: C_12  and  C_13
REMARK   10  A    between atoms: C_14  and  C_15
REMARK   11  A    between atoms: C_14  and  C_16
REMARK   12  A    between atoms: C_16  and  C_17
REMARK   13  A    between atoms: C_17  and  C_18
REMARK   14  A    between atoms: C_19  and  C_20
REMARK   15  A    between atoms: C_19  and  C_21
REMARK   16  A    between atoms: C_22  and  O_23
REMARK   17  A    between atoms: O_23  and  C_24
REMARK   18  A    between atoms: C_25  and  O_26
REMARK   19  A    between atoms: O_26  and  C_27
REMARK   20  A    between atoms: C_28  and  O_29
REMARK   21  A    between atoms: O_29  and  C_30
REMARK                            x       y       z     vdW  Elec       q    Type
REMARK                         _______ _______ _______ _____ _____    ______ ____
ROOT
ATOM      1  C   UNL     1      -3.652  11.077  17.977  0.00  0.00    +0.000 A 
ATOM      2  C   UNL     1      -2.361  11.276  18.540  0.00  0.00    +0.000 A 
ATOM      3  C   UNL     1      -1.149  10.794  17.763  0.00  0.00    +0.000 C 
ATOM      4  C   UNL     1      -2.215  11.998  19.760  0.00  0.00    +0.000 A 
ATOM      5  C   UNL     1      -3.330  12.702  20.268  0.00  0.00    +0.000 A 
ATOM      6  C   UNL     1      -4.591  12.609  19.629  0.00  0.00    +0.000 A 
ATOM      7  C   UNL     1      -4.772  11.763  18.505  0.00  0.00    +0.000 A 
ENDROOT
BRANCH   1   9
ATOM      8  C   UNL     1      -3.706  11.017  15.572  0.00  0.00    +0.000 C 
ATOM      9  O   UNL     1      -3.822  10.337  16.825  0.00  0.00    +0.000 OA
ENDBRANCH   1   9
BRANCH   5  10
ATOM     10  O   UNL     1      -3.294  13.670  21.269  0.00  0.00    +0.000 OA
ATOM     11  C   UNL     1      -3.267  13.340  22.650  0.00  0.00    +0.000 C 
ENDBRANCH   5  10
BRANCH   6  12
ATOM     12  O   UNL     1      -5.544  13.413  20.224  0.00  0.00    +0.000 OA
ATOM     13  C   UNL     1      -6.572  12.867  21.026  0.00  0.00    +0.000 C 
ENDBRANCH   6  12
BRANCH   7  14
ATOM     14  O   UNL     1      -6.045  11.714  18.001  0.00  0.00    +0.000 OA
ATOM     15  C   UNL     1      -6.561  12.736  17.170  0.00  0.00    +0.000 C 
ENDBRANCH   7  14
BRANCH   4  16
ATOM     16  C   UNL     1      -0.946  12.106  20.555  0.00  0.00    +0.000 C 
BRANCH  16  17
ATOM     17  C   UNL     1      -0.108  10.941  20.881  0.00  0.00    +0.000 C 
ATOM     18  C   UNL     1      -0.006  10.227  22.018  0.00  0.00    +0.000 C 
ATOM     19  C   UNL     1      -0.909  10.417  23.204  0.00  0.00    +0.000 C 
BRANCH  18  20
ATOM     20  C   UNL     1       1.059   9.150  22.151  0.00  0.00    +0.000 C 
BRANCH  20  21
ATOM     21  C   UNL     1       0.652   7.882  21.391  0.00  0.00    +0.000 C 
BRANCH  21  22
ATOM     22  C   UNL     1       1.718   7.099  20.735  0.00  0.00    +0.000 C 
ATOM     23  C   UNL     1       2.204   7.416  19.516  0.00  0.00    +0.000 C 
ATOM     24  C   UNL     1       1.698   8.580  18.694  0.00  0.00    +0.000 C 
BRANCH  23  25
ATOM     25  C   UNL     1       3.314   6.623  18.848  0.00  0.00    +0.000 C 
BRANCH  25  26
ATOM     26  C   UNL     1       2.790   5.694  17.755  0.00  0.00    +0.000 C 
BRANCH  26  27
ATOM     27  C   UNL     1       2.719   4.244  18.093  0.00  0.00    +0.000 C 
ATOM     28  C   UNL     1       3.629   3.359  17.649  0.00  0.00    +0.000 C 
ATOM     29  C   UNL     1       4.802   3.719  16.769  0.00  0.00    +0.000 C 
ATOM     30  C   UNL     1       3.538   1.907  18.013  0.00  0.00    +0.000 C 
ENDBRANCH  26  27
ENDBRANCH  25  26
ENDBRANCH  23  25
ENDBRANCH  21  22
ENDBRANCH  20  21
ENDBRANCH  18  20
ENDBRANCH  16  17
ENDBRANCH   4  16
TORSDOF 12
ENDMDL
MODEL 8
REMARK VINA RESULT:      -6.2      2.012      3.910
REMARK  Name = 
REMARK  21 active torsions:
REMARK  status: ('A' for Active; 'I' for Inactive)
REMARK    1  A    between atoms: C_1  and  O_2
REMARK    2  A    between atoms: O_2  and  C_3
REMARK    3  A    between atoms: C_4  and  C_5
REMARK    4  A    between atoms: C_6  and  C_7
REMARK    5  A    between atoms: C_7  and  C_8
REMARK    6  A    between atoms: C_9  and  C_10
REMARK    7  A    between atoms: C_9  and  C_11
REMARK    8  A    between atoms: C_11  and  C_12
REMARK    9  A    between atoms: C_12  and  C_13
REMARK   10  A    between atoms: C_14  and  C_15
REMARK   11  A    between atoms: C_14  and  C_16
REMARK   12  A    between atoms: C_16  and  C_17
REMARK   13  A    between atoms: C_17  and  C_18
REMARK   14  A    between atoms: C_19  and  C_20
REMARK   15  A    between atoms: C_19  and  C_21
REMARK   16  A    between atoms: C_22  and  O_23
REMARK   17  A    between atoms: O_23  and  C_24
REMARK   18  A    between atoms: C_25  and  O_26
REMARK   19  A    between atoms: O_26  and  C_27
REMARK   20  A    between atoms: C_28  and  O_29
REMARK   21  A    between atoms: O_29  and  C_30
REMARK                            x       y       z     vdW  Elec       q    Type
REMARK                         _______ _______ _______ _____ _____    ______ ____
ROOT
ATOM      1  C   UNL     1      -3.181  10.664  17.859  0.00  0.00    +0.000 A 
ATOM      2  C   UNL     1      -1.881  10.756  18.427  0.00  0.00    +0.000 A 
ATOM      3  C   UNL     1      -0.722  10.105  17.693  0.00  0.00    +0.000 C 
ATOM      4  C   UNL     1      -1.667  11.525  19.607  0.00  0.00    +0.000 A 
ATOM      5  C   UNL     1      -2.705  12.371  20.061  0.00  0.00    +0.000 A 
ATOM      6  C   UNL     1      -3.963  12.377  19.411  0.00  0.00    +0.000 A 
ATOM      7  C   UNL     1      -4.226  11.494  18.334  0.00  0.00    +0.000 A 
ENDROOT
BRANCH   1   9
ATOM      8  C   UNL     1      -3.360  10.512  15.464  0.00  0.00    +0.000 C 
ATOM      9  O   UNL     1      -3.421   9.883  16.747  0.00  0.00    +0.000 OA
ENDBRANCH   1   9
BRANCH   5  10
ATOM     10  O   UNL     1      -2.572  13.384  21.009  0.00  0.00    +0.000 OA
ATOM     11  C   UNL     1      -1.923  14.614  20.727  0.00  0.00    +0.000 C 
ENDBRANCH   5  10
BRANCH   6  12
ATOM     12  O   UNL     1      -4.829  13.310  19.949  0.00  0.00    +0.000 OA
ATOM     13  C   UNL     1      -5.729  12.969  20.985  0.00  0.00    +0.000 C 
ENDBRANCH   6  12
BRANCH   7  14
ATOM     14  O   UNL     1      -5.493  11.552  17.816  0.00  0.00    +0.000 OA
ATOM     15  C   UNL     1      -6.540  10.737  18.306  0.00  0.00    +0.000 C 
ENDBRANCH   7  14
BRANCH   4  16
ATOM     16  C   UNL     1      -0.400  11.542  20.413  0.00  0.00    +0.000 C 
BRANCH  16  17
ATOM     17  C   UNL     1       0.365  10.324  20.721  0.00  0.00    +0.000 C 
ATOM     18  C   UNL     1       0.440   9.600  21.854  0.00  0.00    +0.000 C 
ATOM     19  C   UNL     1      -0.426   9.846  23.057  0.00  0.00    +0.000 C 
BRANCH  18  20
ATOM     20  C   UNL     1       1.434   8.455  21.966  0.00  0.00    +0.000 C 
BRANCH  20  21
ATOM     21  C   UNL     1       1.364   7.550  20.730  0.00  0.00    +0.000 C 
BRANCH  21  22
ATOM     22  C   UNL     1       2.130   7.955  19.534  0.00  0.00    +0.000 C 
ATOM     23  C   UNL     1       2.554   7.066  18.610  0.00  0.00    +0.000 C 
ATOM     24  C   UNL     1       2.310   5.577  18.712  0.00  0.00    +0.000 C 
BRANCH  23  25
ATOM     25  C   UNL     1       3.325   7.483  17.370  0.00  0.00    +0.000 C 
BRANCH  25  26
ATOM     26  C   UNL     1       4.727   6.879  17.326  0.00  0.00    +0.000 C 
BRANCH  26  27
ATOM     27  C   UNL     1       5.051   6.039  16.138  0.00  0.00    +0.000 C 
ATOM     28  C   UNL     1       5.987   5.074  16.175  0.00  0.00    +0.000 C 
ATOM     29  C   UNL     1       6.808   4.737  17.396  0.00  0.00    +0.000 C 
ATOM     30  C   UNL     1       6.284   4.238  14.967  0.00  0.00    +0.000 C 
ENDBRANCH  26  27
ENDBRANCH  25  26
ENDBRANCH  23  25
ENDBRANCH  21  22
ENDBRANCH  20  21
ENDBRANCH  18  20
ENDBRANCH  16  17
ENDBRANCH   4  16
TORSDOF 12
ENDMDL
MODEL 9
REMARK VINA RESULT:      -6.2      3.464      9.287
REMARK  Name = 
REMARK  21 active torsions:
REMARK  status: ('A' for Active; 'I' for Inactive)
REMARK    1  A    between atoms: C_1  and  O_2
REMARK    2  A    between atoms: O_2  and  C_3
REMARK    3  A    between atoms: C_4  and  C_5
REMARK    4  A    between atoms: C_6  and  C_7
REMARK    5  A    between atoms: C_7  and  C_8
REMARK    6  A    between atoms: C_9  and  C_10
REMARK    7  A    between atoms: C_9  and  C_11
REMARK    8  A    between atoms: C_11  and  C_12
REMARK    9  A    between atoms: C_12  and  C_13
REMARK   10  A    between atoms: C_14  and  C_15
REMARK   11  A    between atoms: C_14  and  C_16
REMARK   12  A    between atoms: C_16  and  C_17
REMARK   13  A    between atoms: C_17  and  C_18
REMARK   14  A    between atoms: C_19  and  C_20
REMARK   15  A    between atoms: C_19  and  C_21
REMARK   16  A    between atoms: C_22  and  O_23
REMARK   17  A    between atoms: O_23  and  C_24
REMARK   18  A    between atoms: C_25  and  O_26
REMARK   19  A    between atoms: O_26  and  C_27
REMARK   20  A    between atoms: C_28  and  O_29
REMARK   21  A    between atoms: O_29  and  C_30
REMARK                            x       y       z     vdW  Elec       q    Type
REMARK                         _______ _______ _______ _____ _____    ______ ____
ROOT
ATOM      1  C   UNL     1       4.551   6.230  17.807  0.00  0.00    +0.000 A 
ATOM      2  C   UNL     1       3.416   6.812  18.435  0.00  0.00    +0.000 A 
ATOM      3  C   UNL     1       2.926   8.160  17.940  0.00  0.00    +0.000 C 
ATOM      4  C   UNL     1       2.706   6.093  19.440  0.00  0.00    +0.000 A 
ATOM      5  C   UNL     1       3.001   4.723  19.629  0.00  0.00    +0.000 A 
ATOM      6  C   UNL     1       4.050   4.108  18.904  0.00  0.00    +0.000 A 
ATOM      7  C   UNL     1       4.861   4.864  18.021  0.00  0.00    +0.000 A 
ENDROOT
BRANCH   1   9
ATOM      8  C   UNL     1       5.092   6.599  15.492  0.00  0.00    +0.000 C 
ATOM      9  O   UNL     1       5.285   6.928  16.870  0.00  0.00    +0.000 OA
ENDBRANCH   1   9
BRANCH   5  10
ATOM     10  O   UNL     1       2.227   3.817  20.350  0.00  0.00    +0.000 OA
ATOM     11  C   UNL     1       2.388   3.614  21.745  0.00  0.00    +0.000 C 
ENDBRANCH   5  10
BRANCH   6  12
ATOM     12  O   UNL     1       4.152   2.756  19.170  0.00  0.00    +0.000 OA
ATOM     13  C   UNL     1       3.630   1.788  18.280  0.00  0.00    +0.000 C 
ENDBRANCH   6  12
BRANCH   7  14
ATOM     14  O   UNL     1       5.877   4.175  17.412  0.00  0.00    +0.000 OA
ATOM     15  C   UNL     1       7.237   4.478  17.655  0.00  0.00    +0.000 C 
ENDBRANCH   7  14
BRANCH   4  16
ATOM     16  C   UNL     1       1.625   6.663  20.312  0.00  0.00    +0.000 C 
BRANCH  16  17
ATOM     17  C   UNL     1       1.027   7.987  20.078  0.00  0.00    +0.000 C 
ATOM     18  C   UNL     1       0.810   9.012  20.924  0.00  0.00    +0.000 C 
ATOM     19  C   UNL     1       1.314   9.044  22.339  0.00  0.00    +0.000 C 
BRANCH  18  20
ATOM     20  C   UNL     1       0.027  10.231  20.463  0.00  0.00    +0.000 C 
BRANCH  20  21
ATOM     21  C   UNL     1       0.058  10.354  18.935  0.00  0.00    +0.000 C 
BRANCH  21  22
ATOM     22  C   UNL     1      -1.175  10.026  18.192  0.00  0.00    +0.000 C 
ATOM     23  C   UNL     1      -2.220  10.877  18.109  0.00  0.00    +0.000 C 
ATOM     24  C   UNL     1      -2.245  12.233  18.780  0.00  0.00    +0.000 C 
BRANCH  23  25
ATOM     25  C   UNL     1      -3.481  10.549  17.330  0.00  0.00    +0.000 C 
BRANCH  25  26
ATOM     26  C   UNL     1      -4.625  11.512  17.641  0.00  0.00    +0.000 C 
BRANCH  26  27
ATOM     27  C   UNL     1      -5.804  10.937  18.349  0.00  0.00    +0.000 C 
ATOM     28  C   UNL     1      -6.226  11.405  19.537  0.00  0.00    +0.000 C 
ATOM     29  C   UNL     1      -5.566  12.540  20.283  0.00  0.00    +0.000 C 
ATOM     30  C   UNL     1      -7.421  10.814  20.221  0.00  0.00    +0.000 C 
ENDBRANCH  26  27
ENDBRANCH  25  26
ENDBRANCH  23  25
ENDBRANCH  21  22
ENDBRANCH  20  21
ENDBRANCH  18  20
ENDBRANCH  16  17
ENDBRANCH   4  16
TORSDOF 12
ENDMDL
