MODEL 1
REMARK VINA RESULT:      -7.2      0.000      0.000
REMARK  Name = 
REMARK  12 active torsions:
REMARK  status: ('A' for Active; 'I' for Inactive)
REMARK    1  A    between atoms: P_2  and  O_3
REMARK    2  A    between atoms: P_2  and  O_4
REMARK    3  A    between atoms: P_2  and  C_5
REMARK    4  A    between atoms: C_5  and  O_6
REMARK    5  A    between atoms: C_5  and  C_7
REMARK    6  A    between atoms: C_5  and  P_29
REMARK    7  A    between atoms: C_7  and  C_8
REMARK    8  A    between atoms: C_8  and  C_9
REMARK    9  A    between atoms: C_9  and  C_10
REMARK   10  A    between atoms: C_10  and  N_11
REMARK   11  A    between atoms: P_29  and  O_31
REMARK   12  A    between atoms: P_29  and  O_32
REMARK                            x       y       z     vdW  Elec       q    Type
REMARK                         _______ _______ _______ _____ _____    ______ ____
ROOT
ATOM      1  C   UNL     1       8.864  10.030  19.718  0.00  0.00    +0.000 C 
ENDROOT
BRANCH   1   2
ATOM      2  N   UNL     1       9.470  11.347  19.782  0.00  0.00    +0.000 N 
ATOM      3  C   UNL     1       9.256  12.320  20.754  0.00  0.00    +0.000 A 
ATOM      4  C   UNL     1      10.199  13.303  20.516  0.00  0.00    +0.000 A 
ATOM      5  C   UNL     1      11.097  12.816  19.554  0.00  0.00    +0.000 A 
ATOM      6  C   UNL     1      12.287  13.310  18.962  0.00  0.00    +0.000 A 
ATOM      7  C   UNL     1      12.333  13.373  17.577  0.00  0.00    +0.000 A 
ATOM      8  C   UNL     1      11.518  12.513  16.858  0.00  0.00    +0.000 A 
ATOM      9  C   UNL     1      10.678  11.600  17.515  0.00  0.00    +0.000 A 
ATOM     10  C   UNL     1      10.387  11.835  18.868  0.00  0.00    +0.000 A 
ATOM     11  C   UNL     1      10.111  14.710  21.007  0.00  0.00    +0.000 C 
ATOM     12  C   UNL     1       8.922  15.432  20.350  0.00  0.00    +0.000 C 
ATOM     13  S   UNL     1       7.221  14.860  20.739  0.00  0.00    +0.000 S 
ATOM     14  C   UNL     1       7.443  13.573  21.973  0.00  0.00    +0.000 A 
ATOM     15  C   UNL     1       6.699  13.746  23.153  0.00  0.00    +0.000 A 
ATOM     16  C   UNL     1       6.696  12.768  24.148  0.00  0.00    +0.000 A 
ATOM     17  C   UNL     1       7.401  11.584  23.950  0.00  0.00    +0.000 A 
ATOM     18  C   UNL     1       8.175  11.416  22.799  0.00  0.00    +0.000 A 
ATOM     19  C   UNL     1       8.225  12.403  21.802  0.00  0.00    +0.000 A 
ENDBRANCH   1   2
BRANCH   1  20
ATOM     20  C   UNL     1       8.456   9.549  18.307  0.00  0.00    +0.000 C 
BRANCH  20  21
ATOM     21  C   UNL     1       8.260   8.040  18.193  0.00  0.00    +0.000 C 
BRANCH  21  22
ATOM     22  C   UNL     1       7.234   7.523  17.188  0.00  0.00    +0.000 C 
BRANCH  22  23
ATOM     23  C   UNL     1       6.775   6.073  17.329  0.00  0.00    +0.000 C 
BRANCH  23  25
ATOM     24  O   UNL     1       6.395   4.393  14.423  0.00  0.00    +0.000 OA
ATOM     25  P   UNL     1       6.569   5.164  15.754  0.00  0.00    +0.000 P 
BRANCH  25  26
ATOM     26  O   UNL     1       7.910   5.919  15.135  0.00  0.00    +0.000 OA
ATOM     27  H   UNL     1       8.567   5.198  14.987  0.00  0.00    +0.000 HD
ENDBRANCH  25  26
BRANCH  25  28
ATOM     28  O   UNL     1       5.540   6.360  15.254  0.00  0.00    +0.000 OA
ATOM     29  H   UNL     1       5.359   6.926  16.037  0.00  0.00    +0.000 HD
ENDBRANCH  25  28
ENDBRANCH  23  25
BRANCH  23  30
ATOM     30  O   UNL     1       7.626   5.305  18.206  0.00  0.00    +0.000 OA
ATOM     31  H   UNL     1       8.524   5.661  18.023  0.00  0.00    +0.000 HD
ENDBRANCH  23  30
BRANCH  23  32
ATOM     32  P   UNL     1       4.961   5.926  17.894  0.00  0.00    +0.000 P 
ATOM     33  O   UNL     1       4.231   4.801  17.231  0.00  0.00    +0.000 OA
BRANCH  32  34
ATOM     34  O   UNL     1       5.014   5.790  19.498  0.00  0.00    +0.000 OA
ATOM     35  H   UNL     1       4.674   4.906  19.780  0.00  0.00    +0.000 HD
ENDBRANCH  32  34
BRANCH  32  36
ATOM     36  O   UNL     1       4.219   7.331  17.738  0.00  0.00    +0.000 OA
ATOM     37  H   UNL     1       3.376   7.319  18.235  0.00  0.00    +0.000 HD
ENDBRANCH  32  36
ENDBRANCH  23  32
ENDBRANCH  22  23
ENDBRANCH  21  22
ENDBRANCH  20  21
ENDBRANCH   1  20
TORSDOF 12
ENDMDL
MODEL 2
REMARK VINA RESULT:      -7.1      5.434      8.960
REMARK  Name = 
REMARK  12 active torsions:
REMARK  status: ('A' for Active; 'I' for Inactive)
REMARK    1  A    between atoms: P_2  and  O_3
REMARK    2  A    between atoms: P_2  and  O_4
REMARK    3  A    between atoms: P_2  and  C_5
REMARK    4  A    between atoms: C_5  and  O_6
REMARK    5  A    between atoms: C_5  and  C_7
REMARK    6  A    between atoms: C_5  and  P_29
REMARK    7  A    between atoms: C_7  and  C_8
REMARK    8  A    between atoms: C_8  and  C_9
REMARK    9  A    between atoms: C_9  and  C_10
REMARK   10  A    between atoms: C_10  and  N_11
REMARK   11  A    between atoms: P_29  and  O_31
REMARK   12  A    between atoms: P_29  and  O_32
REMARK                            x       y       z     vdW  Elec       q    Type
REMARK                         _______ _______ _______ _____ _____    ______ ____
ROOT
ATOM      1  C   UNL     1       6.039   7.706  17.514  0.00  0.00    +0.000 C 
ENDROOT
BRANCH   1   2
ATOM      2  N   UNL     1       5.496   6.452  17.030  0.00  0.00    +0.000 N 
ATOM      3  C   UNL     1       4.379   5.779  17.518  0.00  0.00    +0.000 A 
ATOM      4  C   UNL     1       4.129   4.761  16.616  0.00  0.00    +0.000 A 
ATOM      5  C   UNL     1       4.952   4.963  15.497  0.00  0.00    +0.000 A 
ATOM      6  C   UNL     1       5.105   4.319  14.244  0.00  0.00    +0.000 A 
ATOM      7  C   UNL     1       6.376   3.884  13.900  0.00  0.00    +0.000 A 
ATOM      8  C   UNL     1       7.462   4.524  14.476  0.00  0.00    +0.000 A 
ATOM      9  C   UNL     1       7.278   5.587  15.375  0.00  0.00    +0.000 A 
ATOM     10  C   UNL     1       6.014   5.728  15.971  0.00  0.00    +0.000 A 
ATOM     11  C   UNL     1       3.321   3.540  16.907  0.00  0.00    +0.000 C 
ATOM     12  C   UNL     1       4.021   2.676  17.969  0.00  0.00    +0.000 C 
ATOM     13  S   UNL     1       4.197   3.344  19.671  0.00  0.00    +0.000 S 
ATOM     14  C   UNL     1       3.325   4.916  19.636  0.00  0.00    +0.000 A 
ATOM     15  C   UNL     1       2.345   5.074  20.631  0.00  0.00    +0.000 A 
ATOM     16  C   UNL     1       1.668   6.284  20.785  0.00  0.00    +0.000 A 
ATOM     17  C   UNL     1       2.001   7.365  19.973  0.00  0.00    +0.000 A 
ATOM     18  C   UNL     1       2.946   7.211  18.956  0.00  0.00    +0.000 A 
ATOM     19  C   UNL     1       3.612   5.991  18.757  0.00  0.00    +0.000 A 
ENDBRANCH   1   2
BRANCH   1  20
ATOM     20  C   UNL     1       7.565   7.724  17.763  0.00  0.00    +0.000 C 
BRANCH  20  21
ATOM     21  C   UNL     1       8.230   9.067  17.476  0.00  0.00    +0.000 C 
BRANCH  21  22
ATOM     22  C   UNL     1       8.602   9.952  18.662  0.00  0.00    +0.000 C 
BRANCH  22  23
ATOM     23  C   UNL     1       9.543  11.126  18.400  0.00  0.00    +0.000 C 
BRANCH  23  25
ATOM     24  O   UNL     1      10.800  12.609  21.162  0.00  0.00    +0.000 OA
ATOM     25  P   UNL     1      10.224  11.929  19.896  0.00  0.00    +0.000 P 
BRANCH  25  26
ATOM     26  O   UNL     1      11.736  11.358  19.522  0.00  0.00    +0.000 OA
ATOM     27  H   UNL     1      12.020  11.879  18.735  0.00  0.00    +0.000 HD
ENDBRANCH  25  26
BRANCH  25  28
ATOM     28  O   UNL     1       9.813  10.572  20.752  0.00  0.00    +0.000 OA
ATOM     29  H   UNL     1       8.898  10.335  20.486  0.00  0.00    +0.000 HD
ENDBRANCH  25  28
ENDBRANCH  23  25
BRANCH  23  30
ATOM     30  O   UNL     1      10.631  10.779  17.518  0.00  0.00    +0.000 OA
ATOM     31  H   UNL     1      11.429  10.914  18.076  0.00  0.00    +0.000 HD
ENDBRANCH  23  30
BRANCH  23  32
ATOM     32  P   UNL     1       8.635  12.664  17.732  0.00  0.00    +0.000 P 
ATOM     33  O   UNL     1       7.443  12.322  16.896  0.00  0.00    +0.000 OA
BRANCH  32  34
ATOM     34  O   UNL     1       8.271  13.551  19.025  0.00  0.00    +0.000 OA
ATOM     35  H   UNL     1       7.325  13.417  19.280  0.00  0.00    +0.000 HD
ENDBRANCH  32  34
BRANCH  32  36
ATOM     36  O   UNL     1       9.664  13.631  16.987  0.00  0.00    +0.000 OA
ATOM     37  H   UNL     1      10.333  13.101  16.508  0.00  0.00    +0.000 HD
ENDBRANCH  32  36
ENDBRANCH  23  32
ENDBRANCH  22  23
ENDBRANCH  21  22
ENDBRANCH  20  21
ENDBRANCH   1  20
TORSDOF 12
ENDMDL
MODEL 3
REMARK VINA RESULT:      -6.8      7.429     10.434
REMARK  Name = 
REMARK  12 active torsions:
REMARK  status: ('A' for Active; 'I' for Inactive)
REMARK    1  A    between atoms: P_2  and  O_3
REMARK    2  A    between atoms: P_2  and  O_4
REMARK    3  A    between atoms: P_2  and  C_5
REMARK    4  A    between atoms: C_5  and  O_6
REMARK    5  A    between atoms: C_5  and  C_7
REMARK    6  A    between atoms: C_5  and  P_29
REMARK    7  A    between atoms: C_7  and  C_8
REMARK    8  A    between atoms: C_8  and  C_9
REMARK    9  A    between atoms: C_9  and  C_10
REMARK   10  A    between atoms: C_10  and  N_11
REMARK   11  A    between atoms: P_29  and  O_31
REMARK   12  A    between atoms: P_29  and  O_32
REMARK                            x       y       z     vdW  Elec       q    Type
REMARK                         _______ _______ _______ _____ _____    ______ ____
ROOT
ATOM      1  C   UNL     1       2.762   7.387  19.277  0.00  0.00    +0.000 C 
ENDROOT
BRANCH   1   2
ATOM      2  N   UNL     1       3.090   5.976  19.335  0.00  0.00    +0.000 N 
ATOM      3  C   UNL     1       4.221   5.357  18.807  0.00  0.00    +0.000 A 
ATOM      4  C   UNL     1       4.201   4.062  19.291  0.00  0.00    +0.000 A 
ATOM      5  C   UNL     1       3.194   3.980  20.265  0.00  0.00    +0.000 A 
ATOM      6  C   UNL     1       2.743   2.967  21.148  0.00  0.00    +0.000 A 
ATOM      7  C   UNL     1       1.397   2.636  21.108  0.00  0.00    +0.000 A 
ATOM      8  C   UNL     1       0.504   3.594  20.655  0.00  0.00    +0.000 A 
ATOM      9  C   UNL     1       0.951   4.864  20.256  0.00  0.00    +0.000 A 
ATOM     10  C   UNL     1       2.314   5.013  19.955  0.00  0.00    +0.000 A 
ATOM     11  C   UNL     1       4.944   2.914  18.692  0.00  0.00    +0.000 C 
ATOM     12  C   UNL     1       4.396   2.595  17.291  0.00  0.00    +0.000 C 
ATOM     13  S   UNL     1       4.615   3.837  15.956  0.00  0.00    +0.000 S 
ATOM     14  C   UNL     1       5.593   5.145  16.706  0.00  0.00    +0.000 A 
ATOM     15  C   UNL     1       6.760   5.493  16.004  0.00  0.00    +0.000 A 
ATOM     16  C   UNL     1       7.554   6.562  16.417  0.00  0.00    +0.000 A 
ATOM     17  C   UNL     1       7.161   7.326  17.513  0.00  0.00    +0.000 A 
ATOM     18  C   UNL     1       6.024   6.969  18.243  0.00  0.00    +0.000 A 
ATOM     19  C   UNL     1       5.231   5.872  17.868  0.00  0.00    +0.000 A 
ENDBRANCH   1   2
BRANCH   1  20
ATOM     20  C   UNL     1       2.028   7.852  17.998  0.00  0.00    +0.000 C 
BRANCH  20  21
ATOM     21  C   UNL     1       1.690   9.339  17.975  0.00  0.00    +0.000 C 
BRANCH  21  22
ATOM     22  C   UNL     1       0.604   9.844  18.920  0.00  0.00    +0.000 C 
BRANCH  22  23
ATOM     23  C   UNL     1       0.341  11.348  18.957  0.00  0.00    +0.000 C 
BRANCH  23  25
ATOM     24  O   UNL     1       0.078  12.690  22.046  0.00  0.00    +0.000 OA
ATOM     25  P   UNL     1       0.198  12.074  20.630  0.00  0.00    +0.000 P 
BRANCH  25  26
ATOM     26  O   UNL     1       1.445  11.116  21.160  0.00  0.00    +0.000 OA
ATOM     27  H   UNL     1       2.071  11.066  20.400  0.00  0.00    +0.000 HD
ENDBRANCH  25  26
BRANCH  25  28
ATOM     28  O   UNL     1      -0.956  10.937  20.973  0.00  0.00    +0.000 OA
ATOM     29  H   UNL     1      -0.997  10.332  20.199  0.00  0.00    +0.000 HD
ENDBRANCH  25  28
ENDBRANCH  23  25
BRANCH  23  30
ATOM     30  O   UNL     1       1.315  12.100  18.201  0.00  0.00    +0.000 OA
ATOM     31  H   UNL     1       2.168  11.674  18.441  0.00  0.00    +0.000 HD
ENDBRANCH  23  30
BRANCH  23  32
ATOM     32  P   UNL     1      -1.418  11.803  18.380  0.00  0.00    +0.000 P 
ATOM     33  O   UNL     1      -2.365  10.646  18.420  0.00  0.00    +0.000 OA
BRANCH  32  34
ATOM     34  O   UNL     1      -1.878  13.032  19.313  0.00  0.00    +0.000 OA
ATOM     35  H   UNL     1      -1.276  13.805  19.187  0.00  0.00    +0.000 HD
ENDBRANCH  32  34
BRANCH  32  36
ATOM     36  O   UNL     1      -1.363  12.517  16.953  0.00  0.00    +0.000 OA
ATOM     37  H   UNL     1      -1.436  13.486  17.062  0.00  0.00    +0.000 HD
ENDBRANCH  32  36
ENDBRANCH  23  32
ENDBRANCH  22  23
ENDBRANCH  21  22
ENDBRANCH  20  21
ENDBRANCH   1  20
TORSDOF 12
ENDMDL
MODEL 4
REMARK VINA RESULT:      -6.8      7.828      9.869
REMARK  Name = 
REMARK  12 active torsions:
REMARK  status: ('A' for Active; 'I' for Inactive)
REMARK    1  A    between atoms: P_2  and  O_3
REMARK    2  A    between atoms: P_2  and  O_4
REMARK    3  A    between atoms: P_2  and  C_5
REMARK    4  A    between atoms: C_5  and  O_6
REMARK    5  A    between atoms: C_5  and  C_7
REMARK    6  A    between atoms: C_5  and  P_29
REMARK    7  A    between atoms: C_7  and  C_8
REMARK    8  A    between atoms: C_8  and  C_9
REMARK    9  A    between atoms: C_9  and  C_10
REMARK   10  A    between atoms: C_10  and  N_11
REMARK   11  A    between atoms: P_29  and  O_31
REMARK   12  A    between atoms: P_29  and  O_32
REMARK                            x       y       z     vdW  Elec       q    Type
REMARK                         _______ _______ _______ _____ _____    ______ ____
ROOT
ATOM      1  C   UNL     1       4.214   6.885  18.356  0.00  0.00    +0.000 C 
ENDROOT
BRANCH   1   2
ATOM      2  N   UNL     1       4.326   5.566  17.764  0.00  0.00    +0.000 N 
ATOM      3  C   UNL     1       3.632   4.419  18.138  0.00  0.00    +0.000 A 
ATOM      4  C   UNL     1       3.907   3.478  17.162  0.00  0.00    +0.000 A 
ATOM      5  C   UNL     1       4.576   4.127  16.113  0.00  0.00    +0.000 A 
ATOM      6  C   UNL     1       5.046   3.731  14.836  0.00  0.00    +0.000 A 
ATOM      7  C   UNL     1       6.384   3.956  14.549  0.00  0.00    +0.000 A 
ATOM      8  C   UNL     1       7.034   4.972  15.231  0.00  0.00    +0.000 A 
ATOM      9  C   UNL     1       6.354   5.754  16.178  0.00  0.00    +0.000 A 
ATOM     10  C   UNL     1       5.151   5.251  16.699  0.00  0.00    +0.000 A 
ATOM     11  C   UNL     1       3.745   2.003  17.327  0.00  0.00    +0.000 C 
ATOM     12  C   UNL     1       4.734   1.471  18.379  0.00  0.00    +0.000 C 
ATOM     13  S   UNL     1       4.531   2.002  20.125  0.00  0.00    +0.000 S 
ATOM     14  C   UNL     1       3.034   2.997  20.128  0.00  0.00    +0.000 A 
ATOM     15  C   UNL     1       2.062   2.605  21.066  0.00  0.00    +0.000 A 
ATOM     16  C   UNL     1       0.899   3.353  21.248  0.00  0.00    +0.000 A 
ATOM     17  C   UNL     1       0.719   4.530  20.526  0.00  0.00    +0.000 A 
ATOM     18  C   UNL     1       1.659   4.910  19.564  0.00  0.00    +0.000 A 
ATOM     19  C   UNL     1       2.818   4.152  19.336  0.00  0.00    +0.000 A 
ENDBRANCH   1   2
BRANCH   1  20
ATOM     20  C   UNL     1       3.489   7.946  17.496  0.00  0.00    +0.000 C 
BRANCH  20  21
ATOM     21  C   UNL     1       2.048   8.216  17.919  0.00  0.00    +0.000 C 
BRANCH  21  22
ATOM     22  C   UNL     1       1.809   9.156  19.097  0.00  0.00    +0.000 C 
BRANCH  22  23
ATOM     23  C   UNL     1       0.909  10.368  18.863  0.00  0.00    +0.000 C 
BRANCH  23  25
ATOM     24  O   UNL     1       2.503  13.343  18.736  0.00  0.00    +0.000 OA
ATOM     25  P   UNL     1       1.772  11.980  18.794  0.00  0.00    +0.000 P 
BRANCH  25  26
ATOM     26  O   UNL     1       0.442  12.669  18.080  0.00  0.00    +0.000 OA
ATOM     27  H   UNL     1       0.122  11.999  17.432  0.00  0.00    +0.000 HD
ENDBRANCH  25  26
BRANCH  25  28
ATOM     28  O   UNL     1       2.430  11.510  17.348  0.00  0.00    +0.000 OA
ATOM     29  H   UNL     1       2.456  10.528  17.353  0.00  0.00    +0.000 HD
ENDBRANCH  25  28
ENDBRANCH  23  25
BRANCH  23  30
ATOM     30  O   UNL     1       0.083  10.227  17.687  0.00  0.00    +0.000 OA
ATOM     31  H   UNL     1       0.684   9.797  17.038  0.00  0.00    +0.000 HD
ENDBRANCH  23  30
BRANCH  23  32
ATOM     32  P   UNL     1      -0.181  10.779  20.372  0.00  0.00    +0.000 P 
ATOM     33  O   UNL     1      -1.458  11.466  20.002  0.00  0.00    +0.000 OA
BRANCH  32  34
ATOM     34  O   UNL     1      -0.411   9.382  21.137  0.00  0.00    +0.000 OA
ATOM     35  H   UNL     1      -1.355   9.292  21.415  0.00  0.00    +0.000 HD
ENDBRANCH  32  34
BRANCH  32  36
ATOM     36  O   UNL     1       0.666  11.580  21.462  0.00  0.00    +0.000 OA
ATOM     37  H   UNL     1       0.121  11.736  22.260  0.00  0.00    +0.000 HD
ENDBRANCH  32  36
ENDBRANCH  23  32
ENDBRANCH  22  23
ENDBRANCH  21  22
ENDBRANCH  20  21
ENDBRANCH   1  20
TORSDOF 12
ENDMDL
MODEL 5
REMARK VINA RESULT:      -6.8      5.532      9.081
REMARK  Name = 
REMARK  12 active torsions:
REMARK  status: ('A' for Active; 'I' for Inactive)
REMARK    1  A    between atoms: P_2  and  O_3
REMARK    2  A    between atoms: P_2  and  O_4
REMARK    3  A    between atoms: P_2  and  C_5
REMARK    4  A    between atoms: C_5  and  O_6
REMARK    5  A    between atoms: C_5  and  C_7
REMARK    6  A    between atoms: C_5  and  P_29
REMARK    7  A    between atoms: C_7  and  C_8
REMARK    8  A    between atoms: C_8  and  C_9
REMARK    9  A    between atoms: C_9  and  C_10
REMARK   10  A    between atoms: C_10  and  N_11
REMARK   11  A    between atoms: P_29  and  O_31
REMARK   12  A    between atoms: P_29  and  O_32
REMARK                            x       y       z     vdW  Elec       q    Type
REMARK                         _______ _______ _______ _____ _____    ______ ____
ROOT
ATOM      1  C   UNL     1       6.191   7.359  18.033  0.00  0.00    +0.000 C 
ENDROOT
BRANCH   1   2
ATOM      2  N   UNL     1       5.562   6.216  17.401  0.00  0.00    +0.000 N 
ATOM      3  C   UNL     1       4.367   5.605  17.775  0.00  0.00    +0.000 A 
ATOM      4  C   UNL     1       4.070   4.710  16.763  0.00  0.00    +0.000 A 
ATOM      5  C   UNL     1       4.960   4.945  15.703  0.00  0.00    +0.000 A 
ATOM      6  C   UNL     1       5.114   4.418  14.397  0.00  0.00    +0.000 A 
ATOM      7  C   UNL     1       6.356   3.902  14.057  0.00  0.00    +0.000 A 
ATOM      8  C   UNL     1       7.465   4.377  14.737  0.00  0.00    +0.000 A 
ATOM      9  C   UNL     1       7.335   5.357  15.734  0.00  0.00    +0.000 A 
ATOM     10  C   UNL     1       6.063   5.556  16.293  0.00  0.00    +0.000 A 
ATOM     11  C   UNL     1       3.144   3.547  16.895  0.00  0.00    +0.000 C 
ATOM     12  C   UNL     1       3.713   2.520  17.888  0.00  0.00    +0.000 C 
ATOM     13  S   UNL     1       3.868   2.995  19.655  0.00  0.00    +0.000 S 
ATOM     14  C   UNL     1       3.143   4.637  19.751  0.00  0.00    +0.000 A 
ATOM     15  C   UNL     1       2.134   4.786  20.719  0.00  0.00    +0.000 A 
ATOM     16  C   UNL     1       1.561   6.032  20.972  0.00  0.00    +0.000 A 
ATOM     17  C   UNL     1       2.027   7.154  20.289  0.00  0.00    +0.000 A 
ATOM     18  C   UNL     1       3.002   7.014  19.298  0.00  0.00    +0.000 A 
ATOM     19  C   UNL     1       3.565   5.763  18.999  0.00  0.00    +0.000 A 
ENDBRANCH   1   2
BRANCH   1  20
ATOM     20  C   UNL     1       7.366   7.993  17.253  0.00  0.00    +0.000 C 
BRANCH  20  21
ATOM     21  C   UNL     1       8.319   8.815  18.115  0.00  0.00    +0.000 C 
BRANCH  21  22
ATOM     22  C   UNL     1       8.050  10.310  18.260  0.00  0.00    +0.000 C 
BRANCH  22  23
ATOM     23  C   UNL     1       9.218  11.201  18.679  0.00  0.00    +0.000 C 
BRANCH  23  25
ATOM     24  O   UNL     1       9.089  12.343  21.855  0.00  0.00    +0.000 OA
ATOM     25  P   UNL     1       9.149  11.819  20.400  0.00  0.00    +0.000 P 
BRANCH  25  26
ATOM     26  O   UNL     1      10.695  12.403  20.259  0.00  0.00    +0.000 OA
ATOM     27  H   UNL     1      11.250  11.614  20.052  0.00  0.00    +0.000 HD
ENDBRANCH  25  26
BRANCH  25  28
ATOM     28  O   UNL     1       9.651  10.325  20.906  0.00  0.00    +0.000 OA
ATOM     29  H   UNL     1      10.519  10.451  21.349  0.00  0.00    +0.000 HD
ENDBRANCH  25  28
ENDBRANCH  23  25
BRANCH  23  30
ATOM     30  O   UNL     1      10.500  10.576  18.456  0.00  0.00    +0.000 OA
ATOM     31  H   UNL     1      11.067  10.962  19.161  0.00  0.00    +0.000 HD
ENDBRANCH  23  30
BRANCH  23  32
ATOM     32  P   UNL     1       9.178  12.912  17.840  0.00  0.00    +0.000 P 
ATOM     33  O   UNL     1      10.468  13.265  17.168  0.00  0.00    +0.000 OA
BRANCH  32  34
ATOM     34  O   UNL     1       7.926  12.872  16.828  0.00  0.00    +0.000 OA
ATOM     35  H   UNL     1       7.864  13.719  16.322  0.00  0.00    +0.000 HD
ENDBRANCH  32  34
BRANCH  32  36
ATOM     36  O   UNL     1       8.689  14.023  18.876  0.00  0.00    +0.000 OA
ATOM     37  H   UNL     1       7.924  14.510  18.507  0.00  0.00    +0.000 HD
ENDBRANCH  32  36
ENDBRANCH  23  32
ENDBRANCH  22  23
ENDBRANCH  21  22
ENDBRANCH  20  21
ENDBRANCH   1  20
TORSDOF 12
ENDMDL
MODEL 6
REMARK VINA RESULT:      -6.7      7.911     10.019
REMARK  Name = 
REMARK  12 active torsions:
REMARK  status: ('A' for Active; 'I' for Inactive)
REMARK    1  A    between atoms: P_2  and  O_3
REMARK    2  A    between atoms: P_2  and  O_4
REMARK    3  A    between atoms: P_2  and  C_5
REMARK    4  A    between atoms: C_5  and  O_6
REMARK    5  A    between atoms: C_5  and  C_7
REMARK    6  A    between atoms: C_5  and  P_29
REMARK    7  A    between atoms: C_7  and  C_8
REMARK    8  A    between atoms: C_8  and  C_9
REMARK    9  A    between atoms: C_9  and  C_10
REMARK   10  A    between atoms: C_10  and  N_11
REMARK   11  A    between atoms: P_29  and  O_31
REMARK   12  A    between atoms: P_29  and  O_32
REMARK                            x       y       z     vdW  Elec       q    Type
REMARK                         _______ _______ _______ _____ _____    ______ ____
ROOT
ATOM      1  C   UNL     1       4.155   6.875  18.370  0.00  0.00    +0.000 C 
ENDROOT
BRANCH   1   2
ATOM      2  N   UNL     1       4.291   5.554  17.786  0.00  0.00    +0.000 N 
ATOM      3  C   UNL     1       3.614   4.398  18.164  0.00  0.00    +0.000 A 
ATOM      4  C   UNL     1       3.909   3.455  17.196  0.00  0.00    +0.000 A 
ATOM      5  C   UNL     1       4.573   4.108  16.146  0.00  0.00    +0.000 A 
ATOM      6  C   UNL     1       5.056   3.712  14.874  0.00  0.00    +0.000 A 
ATOM      7  C   UNL     1       6.392   3.958  14.592  0.00  0.00    +0.000 A 
ATOM      8  C   UNL     1       7.021   4.988  15.271  0.00  0.00    +0.000 A 
ATOM      9  C   UNL     1       6.324   5.765  16.210  0.00  0.00    +0.000 A 
ATOM     10  C   UNL     1       5.127   5.245  16.728  0.00  0.00    +0.000 A 
ATOM     11  C   UNL     1       3.770   1.979  17.369  0.00  0.00    +0.000 C 
ATOM     12  C   UNL     1       4.762   1.470  18.429  0.00  0.00    +0.000 C 
ATOM     13  S   UNL     1       4.541   2.008  20.170  0.00  0.00    +0.000 S 
ATOM     14  C   UNL     1       3.028   2.978  20.160  0.00  0.00    +0.000 A 
ATOM     15  C   UNL     1       2.058   2.577  21.095  0.00  0.00    +0.000 A 
ATOM     16  C   UNL     1       0.882   3.307  21.267  0.00  0.00    +0.000 A 
ATOM     17  C   UNL     1       0.687   4.477  20.536  0.00  0.00    +0.000 A 
ATOM     18  C   UNL     1       1.625   4.866  19.577  0.00  0.00    +0.000 A 
ATOM     19  C   UNL     1       2.798   4.125  19.359  0.00  0.00    +0.000 A 
ENDBRANCH   1   2
BRANCH   1  20
ATOM     20  C   UNL     1       3.209   7.843  17.622  0.00  0.00    +0.000 C 
BRANCH  20  21
ATOM     21  C   UNL     1       2.081   8.405  18.482  0.00  0.00    +0.000 C 
BRANCH  21  22
ATOM     22  C   UNL     1       1.354   9.652  17.987  0.00  0.00    +0.000 C 
BRANCH  22  23
ATOM     23  C   UNL     1       0.922  10.679  19.032  0.00  0.00    +0.000 C 
BRANCH  23  25
ATOM     24  O   UNL     1      -2.324  11.602  18.888  0.00  0.00    +0.000 OA
ATOM     25  P   UNL     1      -0.837  11.179  18.954  0.00  0.00    +0.000 P 
BRANCH  25  26
ATOM     26  O   UNL     1      -1.292   9.686  19.517  0.00  0.00    +0.000 OA
ATOM     27  H   UNL     1      -1.933   9.870  20.244  0.00  0.00    +0.000 HD
ENDBRANCH  25  26
BRANCH  25  28
ATOM     28  O   UNL     1      -0.853  10.698  17.369  0.00  0.00    +0.000 OA
ATOM     29  H   UNL     1      -0.288  11.332  16.874  0.00  0.00    +0.000 HD
ENDBRANCH  25  28
ENDBRANCH  23  25
BRANCH  23  30
ATOM     30  O   UNL     1       1.233  10.265  20.379  0.00  0.00    +0.000 OA
ATOM     31  H   UNL     1       1.497   9.324  20.273  0.00  0.00    +0.000 HD
ENDBRANCH  23  30
BRANCH  23  32
ATOM     32  P   UNL     1       1.646  12.412  18.704  0.00  0.00    +0.000 P 
ATOM     33  O   UNL     1       2.288  13.016  19.914  0.00  0.00    +0.000 OA
BRANCH  32  34
ATOM     34  O   UNL     1       2.664  12.233  17.470  0.00  0.00    +0.000 OA
ATOM     35  H   UNL     1       2.673  13.047  16.909  0.00  0.00    +0.000 HD
ENDBRANCH  32  34
BRANCH  32  36
ATOM     36  O   UNL     1       0.541  13.357  18.046  0.00  0.00    +0.000 OA
ATOM     37  H   UNL     1       0.866  13.705  17.191  0.00  0.00    +0.000 HD
ENDBRANCH  32  36
ENDBRANCH  23  32
ENDBRANCH  22  23
ENDBRANCH  21  22
ENDBRANCH  20  21
ENDBRANCH   1  20
TORSDOF 12
ENDMDL
MODEL 7
REMARK VINA RESULT:      -6.7     10.691     13.251
REMARK  Name = 
REMARK  12 active torsions:
REMARK  status: ('A' for Active; 'I' for Inactive)
REMARK    1  A    between atoms: P_2  and  O_3
REMARK    2  A    between atoms: P_2  and  O_4
REMARK    3  A    between atoms: P_2  and  C_5
REMARK    4  A    between atoms: C_5  and  O_6
REMARK    5  A    between atoms: C_5  and  C_7
REMARK    6  A    between atoms: C_5  and  P_29
REMARK    7  A    between atoms: C_7  and  C_8
REMARK    8  A    between atoms: C_8  and  C_9
REMARK    9  A    between atoms: C_9  and  C_10
REMARK   10  A    between atoms: C_10  and  N_11
REMARK   11  A    between atoms: P_29  and  O_31
REMARK   12  A    between atoms: P_29  and  O_32
REMARK                            x       y       z     vdW  Elec       q    Type
REMARK                         _______ _______ _______ _____ _____    ______ ____
ROOT
ATOM      1  C   UNL     1      -2.805  13.432  20.712  0.00  0.00    +0.000 C 
ENDROOT
BRANCH   1   2
ATOM      2  N   UNL     1      -4.200  13.046  20.619  0.00  0.00    +0.000 N 
ATOM      3  C   UNL     1      -4.782  12.241  19.643  0.00  0.00    +0.000 A 
ATOM      4  C   UNL     1      -6.066  11.982  20.087  0.00  0.00    +0.000 A 
ATOM      5  C   UNL     1      -6.169  12.446  21.407  0.00  0.00    +0.000 A 
ATOM      6  C   UNL     1      -7.179  12.408  22.400  0.00  0.00    +0.000 A 
ATOM      7  C   UNL     1      -7.567  13.615  22.964  0.00  0.00    +0.000 A 
ATOM      8  C   UNL     1      -6.658  14.660  22.954  0.00  0.00    +0.000 A 
ATOM      9  C   UNL     1      -5.379  14.498  22.397  0.00  0.00    +0.000 A 
ATOM     10  C   UNL     1      -5.180  13.419  21.521  0.00  0.00    +0.000 A 
ATOM     11  C   UNL     1      -7.195  11.530  19.221  0.00  0.00    +0.000 C 
ATOM     12  C   UNL     1      -7.567  12.628  18.210  0.00  0.00    +0.000 C 
ATOM     13  S   UNL     1      -6.347  13.083  16.916  0.00  0.00    +0.000 S 
ATOM     14  C   UNL     1      -4.983  11.937  17.152  0.00  0.00    +0.000 A 
ATOM     15  C   UNL     1      -4.602  11.222  16.003  0.00  0.00    +0.000 A 
ATOM     16  C   UNL     1      -3.491  10.378  16.018  0.00  0.00    +0.000 A 
ATOM     17  C   UNL     1      -2.720  10.279  17.174  0.00  0.00    +0.000 A 
ATOM     18  C   UNL     1      -3.109  10.954  18.334  0.00  0.00    +0.000 A 
ATOM     19  C   UNL     1      -4.246  11.778  18.352  0.00  0.00    +0.000 A 
ENDBRANCH   1   2
BRANCH   1  20
ATOM     20  C   UNL     1      -2.178  13.344  22.122  0.00  0.00    +0.000 C 
BRANCH  20  21
ATOM     21  C   UNL     1      -0.963  12.425  22.212  0.00  0.00    +0.000 C 
BRANCH  21  22
ATOM     22  C   UNL     1      -0.717  11.447  21.067  0.00  0.00    +0.000 C 
BRANCH  22  23
ATOM     23  C   UNL     1       0.700  10.903  20.895  0.00  0.00    +0.000 C 
BRANCH  23  25
ATOM     24  O   UNL     1       1.399   9.645  17.839  0.00  0.00    +0.000 OA
ATOM     25  P   UNL     1       1.078  10.222  19.239  0.00  0.00    +0.000 P 
BRANCH  25  26
ATOM     26  O   UNL     1       0.384  11.550  18.527  0.00  0.00    +0.000 OA
ATOM     27  H   UNL     1      -0.498  11.642  18.959  0.00  0.00    +0.000 HD
ENDBRANCH  25  26
BRANCH  25  28
ATOM     28  O   UNL     1      -0.350   9.387  19.310  0.00  0.00    +0.000 OA
ATOM     29  H   UNL     1      -0.140   8.446  19.121  0.00  0.00    +0.000 HD
ENDBRANCH  25  28
ENDBRANCH  23  25
BRANCH  23  30
ATOM     30  O   UNL     1       1.712  11.871  21.246  0.00  0.00    +0.000 OA
ATOM     31  H   UNL     1       1.190  12.660  21.513  0.00  0.00    +0.000 HD
ENDBRANCH  23  30
BRANCH  23  32
ATOM     32  P   UNL     1       0.991   9.285  21.858  0.00  0.00    +0.000 P 
ATOM     33  O   UNL     1       1.644   9.503  23.187  0.00  0.00    +0.000 OA
BRANCH  32  34
ATOM     34  O   UNL     1      -0.452   8.579  21.970  0.00  0.00    +0.000 OA
ATOM     35  H   UNL     1      -1.161   9.192  21.659  0.00  0.00    +0.000 HD
ENDBRANCH  32  34
BRANCH  32  36
ATOM     36  O   UNL     1       1.769   8.231  20.946  0.00  0.00    +0.000 OA
ATOM     37  H   UNL     1       1.357   7.348  21.031  0.00  0.00    +0.000 HD
ENDBRANCH  32  36
ENDBRANCH  23  32
ENDBRANCH  22  23
ENDBRANCH  21  22
ENDBRANCH  20  21
ENDBRANCH   1  20
TORSDOF 12
ENDMDL
MODEL 8
REMARK VINA RESULT:      -6.7      0.628      1.088
REMARK  Name = 
REMARK  12 active torsions:
REMARK  status: ('A' for Active; 'I' for Inactive)
REMARK    1  A    between atoms: P_2  and  O_3
REMARK    2  A    between atoms: P_2  and  O_4
REMARK    3  A    between atoms: P_2  and  C_5
REMARK    4  A    between atoms: C_5  and  O_6
REMARK    5  A    between atoms: C_5  and  C_7
REMARK    6  A    between atoms: C_5  and  P_29
REMARK    7  A    between atoms: C_7  and  C_8
REMARK    8  A    between atoms: C_8  and  C_9
REMARK    9  A    between atoms: C_9  and  C_10
REMARK   10  A    between atoms: C_10  and  N_11
REMARK   11  A    between atoms: P_29  and  O_31
REMARK   12  A    between atoms: P_29  and  O_32
REMARK                            x       y       z     vdW  Elec       q    Type
REMARK                         _______ _______ _______ _____ _____    ______ ____
ROOT
ATOM      1  C   UNL     1       8.589  10.287  19.672  0.00  0.00    +0.000 C 
ENDROOT
BRANCH   1   2
ATOM      2  N   UNL     1       9.350  11.516  19.792  0.00  0.00    +0.000 N 
ATOM      3  C   UNL     1       9.307  12.429  20.843  0.00  0.00    +0.000 A 
ATOM      4  C   UNL     1      10.347  13.312  20.616  0.00  0.00    +0.000 A 
ATOM      5  C   UNL     1      11.127  12.801  19.568  0.00  0.00    +0.000 A 
ATOM      6  C   UNL     1      12.333  13.199  18.938  0.00  0.00    +0.000 A 
ATOM      7  C   UNL     1      12.312  13.365  17.561  0.00  0.00    +0.000 A 
ATOM      8  C   UNL     1      11.363  12.663  16.836  0.00  0.00    +0.000 A 
ATOM      9  C   UNL     1      10.456  11.805  17.477  0.00  0.00    +0.000 A 
ATOM     10  C   UNL     1      10.268  11.966  18.859  0.00  0.00    +0.000 A 
ATOM     11  C   UNL     1      10.454  14.677  21.212  0.00  0.00    +0.000 C 
ATOM     12  C   UNL     1       9.327  15.580  20.684  0.00  0.00    +0.000 C 
ATOM     13  S   UNL     1       7.593  15.180  21.136  0.00  0.00    +0.000 S 
ATOM     14  C   UNL     1       7.726  13.783  22.259  0.00  0.00    +0.000 A 
ATOM     15  C   UNL     1       7.072  13.947  23.493  0.00  0.00    +0.000 A 
ATOM     16  C   UNL     1       7.006  12.902  24.414  0.00  0.00    +0.000 A 
ATOM     17  C   UNL     1       7.553  11.663  24.088  0.00  0.00    +0.000 A 
ATOM     18  C   UNL     1       8.238  11.497  22.882  0.00  0.00    +0.000 A 
ATOM     19  C   UNL     1       8.351  12.547  21.956  0.00  0.00    +0.000 A 
ENDBRANCH   1   2
BRANCH   1  20
ATOM     20  C   UNL     1       8.935   9.401  18.454  0.00  0.00    +0.000 C 
BRANCH  20  21
ATOM     21  C   UNL     1       8.458   7.956  18.575  0.00  0.00    +0.000 C 
BRANCH  21  22
ATOM     22  C   UNL     1       7.187   7.555  17.832  0.00  0.00    +0.000 C 
BRANCH  22  23
ATOM     23  C   UNL     1       6.696   6.118  17.996  0.00  0.00    +0.000 C 
BRANCH  23  25
ATOM     24  O   UNL     1       6.972   4.178  15.245  0.00  0.00    +0.000 OA
ATOM     25  P   UNL     1       6.846   5.067  16.506  0.00  0.00    +0.000 P 
BRANCH  25  26
ATOM     26  O   UNL     1       8.155   4.296  17.173  0.00  0.00    +0.000 OA
ATOM     27  H   UNL     1       8.427   3.625  16.503  0.00  0.00    +0.000 HD
ENDBRANCH  25  26
BRANCH  25  28
ATOM     28  O   UNL     1       7.770   6.258  15.819  0.00  0.00    +0.000 OA
ATOM     29  H   UNL     1       8.046   6.859  16.545  0.00  0.00    +0.000 HD
ENDBRANCH  25  28
ENDBRANCH  23  25
BRANCH  23  30
ATOM     30  O   UNL     1       7.319   5.443  19.110  0.00  0.00    +0.000 OA
ATOM     31  H   UNL     1       6.843   5.805  19.891  0.00  0.00    +0.000 HD
ENDBRANCH  23  30
BRANCH  23  32
ATOM     32  P   UNL     1       4.800   6.000  18.147  0.00  0.00    +0.000 P 
ATOM     33  O   UNL     1       4.337   5.770  19.551  0.00  0.00    +0.000 OA
BRANCH  32  34
ATOM     34  O   UNL     1       4.226   7.359  17.504  0.00  0.00    +0.000 OA
ATOM     35  H   UNL     1       3.781   7.173  16.642  0.00  0.00    +0.000 HD
ENDBRANCH  32  34
BRANCH  32  36
ATOM     36  O   UNL     1       4.232   4.920  17.117  0.00  0.00    +0.000 OA
ATOM     37  H   UNL     1       4.186   4.042  17.547  0.00  0.00    +0.000 HD
ENDBRANCH  32  36
ENDBRANCH  23  32
ENDBRANCH  22  23
ENDBRANCH  21  22
ENDBRANCH  20  21
ENDBRANCH   1  20
TORSDOF 12
ENDMDL
MODEL 9
REMARK VINA RESULT:      -6.6      5.519      8.888
REMARK  Name = 
REMARK  12 active torsions:
REMARK  status: ('A' for Active; 'I' for Inactive)
REMARK    1  A    between atoms: P_2  and  O_3
REMARK    2  A    between atoms: P_2  and  O_4
REMARK    3  A    between atoms: P_2  and  C_5
REMARK    4  A    between atoms: C_5  and  O_6
REMARK    5  A    between atoms: C_5  and  C_7
REMARK    6  A    between atoms: C_5  and  P_29
REMARK    7  A    between atoms: C_7  and  C_8
REMARK    8  A    between atoms: C_8  and  C_9
REMARK    9  A    between atoms: C_9  and  C_10
REMARK   10  A    between atoms: C_10  and  N_11
REMARK   11  A    between atoms: P_29  and  O_31
REMARK   12  A    between atoms: P_29  and  O_32
REMARK                            x       y       z     vdW  Elec       q    Type
REMARK                         _______ _______ _______ _____ _____    ______ ____
ROOT
ATOM      1  C   UNL     1       6.014   7.729  17.848  0.00  0.00    +0.000 C 
ENDROOT
BRANCH   1   2
ATOM      2  N   UNL     1       5.490   6.494  17.296  0.00  0.00    +0.000 N 
ATOM      3  C   UNL     1       4.358   5.802  17.718  0.00  0.00    +0.000 A 
ATOM      4  C   UNL     1       4.141   4.820  16.769  0.00  0.00    +0.000 A 
ATOM      5  C   UNL     1       5.001   5.067  15.688  0.00  0.00    +0.000 A 
ATOM      6  C   UNL     1       5.198   4.472  14.417  0.00  0.00    +0.000 A 
ATOM      7  C   UNL     1       6.481   4.051  14.100  0.00  0.00    +0.000 A 
ATOM      8  C   UNL     1       7.545   4.668  14.738  0.00  0.00    +0.000 A 
ATOM      9  C   UNL     1       7.329   5.695  15.671  0.00  0.00    +0.000 A 
ATOM     10  C   UNL     1       6.046   5.812  16.228  0.00  0.00    +0.000 A 
ATOM     11  C   UNL     1       3.325   3.589  16.984  0.00  0.00    +0.000 C 
ATOM     12  C   UNL     1       3.989   2.684  18.035  0.00  0.00    +0.000 C 
ATOM     13  S   UNL     1       4.105   3.285  19.766  0.00  0.00    +0.000 S 
ATOM     14  C   UNL     1       3.233   4.856  19.763  0.00  0.00    +0.000 A 
ATOM     15  C   UNL     1       2.219   4.975  20.729  0.00  0.00    +0.000 A 
ATOM     16  C   UNL     1       1.535   6.177  20.907  0.00  0.00    +0.000 A 
ATOM     17  C   UNL     1       1.894   7.290  20.150  0.00  0.00    +0.000 A 
ATOM     18  C   UNL     1       2.874   7.176  19.161  0.00  0.00    +0.000 A 
ATOM     19  C   UNL     1       3.548   5.965  18.938  0.00  0.00    +0.000 A 
ENDBRANCH   1   2
BRANCH   1  20
ATOM     20  C   UNL     1       7.542   7.924  17.720  0.00  0.00    +0.000 C 
BRANCH  20  21
ATOM     21  C   UNL     1       7.979   9.380  17.592  0.00  0.00    +0.000 C 
BRANCH  21  22
ATOM     22  C   UNL     1       9.057   9.892  18.542  0.00  0.00    +0.000 C 
BRANCH  22  23
ATOM     23  C   UNL     1       9.207  11.405  18.691  0.00  0.00    +0.000 C 
BRANCH  23  25
ATOM     24  O   UNL     1      12.238  12.642  17.858  0.00  0.00    +0.000 OA
ATOM     25  P   UNL     1      10.849  12.075  18.240  0.00  0.00    +0.000 P 
BRANCH  25  26
ATOM     26  O   UNL     1      10.132  13.146  17.195  0.00  0.00    +0.000 OA
ATOM     27  H   UNL     1      10.871  13.697  16.844  0.00  0.00    +0.000 HD
ENDBRANCH  25  26
BRANCH  25  28
ATOM     28  O   UNL     1      10.967  10.883  17.096  0.00  0.00    +0.000 OA
ATOM     29  H   UNL     1      11.015  10.029  17.579  0.00  0.00    +0.000 HD
ENDBRANCH  25  28
ENDBRANCH  23  25
BRANCH  23  30
ATOM     30  O   UNL     1       8.189  12.137  17.975  0.00  0.00    +0.000 OA
ATOM     31  H   UNL     1       8.047  12.934  18.533  0.00  0.00    +0.000 HD
ENDBRANCH  23  30
BRANCH  23  32
ATOM     32  P   UNL     1       9.246  11.966  20.513  0.00  0.00    +0.000 P 
ATOM     33  O   UNL     1       8.810  10.897  21.464  0.00  0.00    +0.000 OA
BRANCH  32  34
ATOM     34  O   UNL     1      10.748  12.479  20.779  0.00  0.00    +0.000 OA
ATOM     35  H   UNL     1      11.401  11.874  20.350  0.00  0.00    +0.000 HD
ENDBRANCH  32  34
BRANCH  32  36
ATOM     36  O   UNL     1       8.431  13.328  20.688  0.00  0.00    +0.000 OA
ATOM     37  H   UNL     1       8.857  13.886  21.369  0.00  0.00    +0.000 HD
ENDBRANCH  32  36
ENDBRANCH  23  32
ENDBRANCH  22  23
ENDBRANCH  21  22
ENDBRANCH  20  21
ENDBRANCH   1  20
TORSDOF 12
ENDMDL
