MODEL 1
REMARK VINA RESULT:      -8.0      0.000      0.000
REMARK  Name = 
REMARK  4 active torsions:
REMARK  status: ('A' for Active; 'I' for Inactive)
REMARK    1  A    between atoms: C_1  and  C_2
REMARK    2  A    between atoms: C_6  and  N_7
REMARK    3  A    between atoms: C_8  and  C_11
REMARK    4  A    between atoms: N_9  and  N_10
REMARK                            x       y       z     vdW  Elec       q    Type
REMARK                         _______ _______ _______ _____ _____    ______ ____
ROOT
ATOM      1  N   UNL     1       6.198   4.374  15.951  0.00  0.00    +0.000 N 
ATOM      2  C   UNL     1       5.290   5.218  16.583  0.00  0.00    +0.000 C 
ATOM      3  N   UNL     1       5.053   6.423  16.107  0.00  0.00    +0.000 NA
ATOM      4  H   UNL     1       6.499   3.573  16.493  0.00  0.00    +0.000 HD
ENDROOT
BRANCH   2   5
ATOM      5  C   UNL     1       4.646   4.663  17.844  0.00  0.00    +0.000 A 
ATOM      6  C   UNL     1       5.431   4.163  18.873  0.00  0.00    +0.000 A 
ATOM      7  C   UNL     1       4.806   3.517  19.928  0.00  0.00    +0.000 A 
ATOM      8  C   UNL     1       3.414   3.436  19.955  0.00  0.00    +0.000 A 
ATOM      9  C   UNL     1       2.760   2.738  20.986  0.00  0.00    +0.000 A 
ATOM     10  C   UNL     1       1.371   2.686  21.025  0.00  0.00    +0.000 A 
ATOM     11  C   UNL     1       0.637   3.338  20.042  0.00  0.00    +0.000 A 
ATOM     12  C   UNL     1       1.296   4.018  19.006  0.00  0.00    +0.000 A 
ATOM     13  C   UNL     1       2.683   4.068  18.923  0.00  0.00    +0.000 A 
ATOM     14  N   UNL     1       3.284   4.685  17.880  0.00  0.00    +0.000 NA
ENDBRANCH   2   5
BRANCH   1  20
ATOM     15  C   UNL     1       5.197   2.560  11.420  0.00  0.00    +0.000 C 
ATOM     16  C   UNL     1       6.016   3.456  12.301  0.00  0.00    +0.000 A 
ATOM     17  C   UNL     1       7.040   4.252  11.789  0.00  0.00    +0.000 A 
ATOM     18  C   UNL     1       7.767   5.078  12.644  0.00  0.00    +0.000 A 
ATOM     19  C   UNL     1       7.481   5.111  14.016  0.00  0.00    +0.000 A 
ATOM     20  C   UNL     1       6.475   4.301  14.566  0.00  0.00    +0.000 A 
ATOM     21  C   UNL     1       5.747   3.494  13.679  0.00  0.00    +0.000 A 
ENDBRANCH   1  20
BRANCH   3  22
ATOM     22  N   UNL     1       4.249   7.281  16.767  0.00  0.00    +0.000 N 
ATOM     23  H   UNL     1       4.318   8.203  16.332  0.00  0.00    +0.000 HD
ATOM     24  H   UNL     1       4.549   7.403  17.736  0.00  0.00    +0.000 HD
ENDBRANCH   3  22
TORSDOF 3
ENDMDL
MODEL 2
REMARK VINA RESULT:      -7.6      0.944      2.282
REMARK  Name = 
REMARK  4 active torsions:
REMARK  status: ('A' for Active; 'I' for Inactive)
REMARK    1  A    between atoms: C_1  and  C_2
REMARK    2  A    between atoms: C_6  and  N_7
REMARK    3  A    between atoms: C_8  and  C_11
REMARK    4  A    between atoms: N_9  and  N_10
REMARK                            x       y       z     vdW  Elec       q    Type
REMARK                         _______ _______ _______ _____ _____    ______ ____
ROOT
ATOM      1  N   UNL     1       5.469   3.904  15.796  0.00  0.00    +0.000 N 
ATOM      2  C   UNL     1       4.779   4.846  16.552  0.00  0.00    +0.000 C 
ATOM      3  N   UNL     1       5.087   6.124  16.474  0.00  0.00    +0.000 NA
ATOM      4  H   UNL     1       5.339   2.939  16.078  0.00  0.00    +0.000 HD
ENDROOT
BRANCH   2   5
ATOM      5  C   UNL     1       3.700   4.290  17.469  0.00  0.00    +0.000 A 
ATOM      6  C   UNL     1       2.363   4.357  17.103  0.00  0.00    +0.000 A 
ATOM      7  C   UNL     1       1.403   3.992  18.034  0.00  0.00    +0.000 A 
ATOM      8  C   UNL     1       1.804   3.518  19.282  0.00  0.00    +0.000 A 
ATOM      9  C   UNL     1       0.849   3.194  20.262  0.00  0.00    +0.000 A 
ATOM     10  C   UNL     1       1.253   2.693  21.495  0.00  0.00    +0.000 A 
ATOM     11  C   UNL     1       2.606   2.507  21.744  0.00  0.00    +0.000 A 
ATOM     12  C   UNL     1       3.556   2.849  20.769  0.00  0.00    +0.000 A 
ATOM     13  C   UNL     1       3.188   3.376  19.536  0.00  0.00    +0.000 A 
ATOM     14  N   UNL     1       4.132   3.747  18.641  0.00  0.00    +0.000 NA
ENDBRANCH   2   5
BRANCH   1  20
ATOM     15  C   UNL     1       8.850   5.999  12.796  0.00  0.00    +0.000 C 
ATOM     16  C   UNL     1       7.686   5.071  12.982  0.00  0.00    +0.000 A 
ATOM     17  C   UNL     1       7.147   4.348  11.919  0.00  0.00    +0.000 A 
ATOM     18  C   UNL     1       6.073   3.488  12.142  0.00  0.00    +0.000 A 
ATOM     19  C   UNL     1       5.527   3.348  13.425  0.00  0.00    +0.000 A 
ATOM     20  C   UNL     1       6.029   4.084  14.511  0.00  0.00    +0.000 A 
ATOM     21  C   UNL     1       7.123   4.927  14.261  0.00  0.00    +0.000 A 
ENDBRANCH   1  20
BRANCH   3  22
ATOM     22  N   UNL     1       4.490   7.031  17.272  0.00  0.00    +0.000 N 
ATOM     23  H   UNL     1       4.611   6.747  18.247  0.00  0.00    +0.000 HD
ATOM     24  H   UNL     1       3.481   7.061  17.112  0.00  0.00    +0.000 HD
ENDBRANCH   3  22
TORSDOF 3
ENDMDL
MODEL 3
REMARK VINA RESULT:      -7.5      1.539      2.465
REMARK  Name = 
REMARK  4 active torsions:
REMARK  status: ('A' for Active; 'I' for Inactive)
REMARK    1  A    between atoms: C_1  and  C_2
REMARK    2  A    between atoms: C_6  and  N_7
REMARK    3  A    between atoms: C_8  and  C_11
REMARK    4  A    between atoms: N_9  and  N_10
REMARK                            x       y       z     vdW  Elec       q    Type
REMARK                         _______ _______ _______ _____ _____    ______ ____
ROOT
ATOM      1  N   UNL     1       5.538   3.730  15.427  0.00  0.00    +0.000 N 
ATOM      2  C   UNL     1       5.938   4.185  16.680  0.00  0.00    +0.000 C 
ATOM      3  N   UNL     1       7.213   4.388  16.944  0.00  0.00    +0.000 NA
ATOM      4  H   UNL     1       4.589   3.380  15.373  0.00  0.00    +0.000 HD
ENDROOT
BRANCH   2   5
ATOM      5  C   UNL     1       4.821   4.388  17.692  0.00  0.00    +0.000 A 
ATOM      6  C   UNL     1       4.145   5.599  17.759  0.00  0.00    +0.000 A 
ATOM      7  C   UNL     1       3.251   5.800  18.799  0.00  0.00    +0.000 A 
ATOM      8  C   UNL     1       3.015   4.771  19.709  0.00  0.00    +0.000 A 
ATOM      9  C   UNL     1       2.155   4.970  20.805  0.00  0.00    +0.000 A 
ATOM     10  C   UNL     1       1.899   3.931  21.693  0.00  0.00    +0.000 A 
ATOM     11  C   UNL     1       2.493   2.693  21.481  0.00  0.00    +0.000 A 
ATOM     12  C   UNL     1       3.365   2.505  20.397  0.00  0.00    +0.000 A 
ATOM     13  C   UNL     1       3.662   3.530  19.506  0.00  0.00    +0.000 A 
ATOM     14  N   UNL     1       4.549   3.329  18.505  0.00  0.00    +0.000 NA
ENDBRANCH   2   5
BRANCH   1  20
ATOM     15  C   UNL     1       8.928   6.170  12.711  0.00  0.00    +0.000 C 
ATOM     16  C   UNL     1       7.814   5.170  12.791  0.00  0.00    +0.000 A 
ATOM     17  C   UNL     1       7.369   4.475  11.667  0.00  0.00    +0.000 A 
ATOM     18  C   UNL     1       6.338   3.545  11.792  0.00  0.00    +0.000 A 
ATOM     19  C   UNL     1       5.741   3.306  13.037  0.00  0.00    +0.000 A 
ATOM     20  C   UNL     1       6.147   4.010  14.182  0.00  0.00    +0.000 A 
ATOM     21  C   UNL     1       7.200   4.926  14.031  0.00  0.00    +0.000 A 
ENDBRANCH   1  20
BRANCH   3  22
ATOM     22  N   UNL     1       7.616   4.735  18.182  0.00  0.00    +0.000 N 
ATOM     23  H   UNL     1       7.910   5.714  18.174  0.00  0.00    +0.000 HD
ATOM     24  H   UNL     1       8.435   4.198  18.472  0.00  0.00    +0.000 HD
ENDBRANCH   3  22
TORSDOF 3
ENDMDL
MODEL 4
REMARK VINA RESULT:      -7.5      5.624      7.419
REMARK  Name = 
REMARK  4 active torsions:
REMARK  status: ('A' for Active; 'I' for Inactive)
REMARK    1  A    between atoms: C_1  and  C_2
REMARK    2  A    between atoms: C_6  and  N_7
REMARK    3  A    between atoms: C_8  and  C_11
REMARK    4  A    between atoms: N_9  and  N_10
REMARK                            x       y       z     vdW  Elec       q    Type
REMARK                         _______ _______ _______ _____ _____    ______ ____
ROOT
ATOM      1  N   UNL     1       2.420   7.172  19.877  0.00  0.00    +0.000 N 
ATOM      2  C   UNL     1       1.730   8.302  19.448  0.00  0.00    +0.000 C 
ATOM      3  N   UNL     1       1.761   8.667  18.183  0.00  0.00    +0.000 NA
ATOM      4  H   UNL     1       2.541   7.089  20.879  0.00  0.00    +0.000 HD
ENDROOT
BRANCH   2   5
ATOM      5  C   UNL     1       0.991   9.070  20.533  0.00  0.00    +0.000 A 
ATOM      6  C   UNL     1       0.272   8.392  21.509  0.00  0.00    +0.000 A 
ATOM      7  C   UNL     1      -0.519   9.128  22.377  0.00  0.00    +0.000 A 
ATOM      8  C   UNL     1      -0.530  10.519  22.285  0.00  0.00    +0.000 A 
ATOM      9  C   UNL     1      -1.367  11.283  23.117  0.00  0.00    +0.000 A 
ATOM     10  C   UNL     1      -1.351  12.672  23.042  0.00  0.00    +0.000 A 
ATOM     11  C   UNL     1      -0.494  13.295  22.145  0.00  0.00    +0.000 A 
ATOM     12  C   UNL     1       0.326  12.527  21.303  0.00  0.00    +0.000 A 
ATOM     13  C   UNL     1       0.316  11.137  21.335  0.00  0.00    +0.000 A 
ATOM     14  N   UNL     1       1.078  10.428  20.471  0.00  0.00    +0.000 NA
ENDBRANCH   2   5
BRANCH   1  20
ATOM     15  C   UNL     1       1.142   2.529  18.603  0.00  0.00    +0.000 C 
ATOM     16  C   UNL     1       2.069   3.699  18.459  0.00  0.00    +0.000 A 
ATOM     17  C   UNL     1       3.160   3.668  17.592  0.00  0.00    +0.000 A 
ATOM     18  C   UNL     1       3.987   4.785  17.481  0.00  0.00    +0.000 A 
ATOM     19  C   UNL     1       3.734   5.936  18.239  0.00  0.00    +0.000 A 
ATOM     20  C   UNL     1       2.660   5.988  19.143  0.00  0.00    +0.000 A 
ATOM     21  C   UNL     1       1.833   4.857  19.218  0.00  0.00    +0.000 A 
ENDBRANCH   1  20
BRANCH   3  22
ATOM     22  N   UNL     1       1.175   9.811  17.778  0.00  0.00    +0.000 N 
ATOM     23  H   UNL     1       1.863  10.379  17.280  0.00  0.00    +0.000 HD
ATOM     24  H   UNL     1       0.868  10.374  18.573  0.00  0.00    +0.000 HD
ENDBRANCH   3  22
TORSDOF 3
ENDMDL
MODEL 5
REMARK VINA RESULT:      -7.5      3.613      7.737
REMARK  Name = 
REMARK  4 active torsions:
REMARK  status: ('A' for Active; 'I' for Inactive)
REMARK    1  A    between atoms: C_1  and  C_2
REMARK    2  A    between atoms: C_6  and  N_7
REMARK    3  A    between atoms: C_8  and  C_11
REMARK    4  A    between atoms: N_9  and  N_10
REMARK                            x       y       z     vdW  Elec       q    Type
REMARK                         _______ _______ _______ _____ _____    ______ ____
ROOT
ATOM      1  N   UNL     1       2.741   7.213  20.077  0.00  0.00    +0.000 N 
ATOM      2  C   UNL     1       2.640   5.937  19.532  0.00  0.00    +0.000 C 
ATOM      3  N   UNL     1       1.543   5.225  19.691  0.00  0.00    +0.000 NA
ATOM      4  H   UNL     1       3.678   7.597  20.115  0.00  0.00    +0.000 HD
ENDROOT
BRANCH   2   5
ATOM      5  C   UNL     1       3.873   5.439  18.793  0.00  0.00    +0.000 A 
ATOM      6  C   UNL     1       5.070   5.251  19.470  0.00  0.00    +0.000 A 
ATOM      7  C   UNL     1       6.206   4.957  18.733  0.00  0.00    +0.000 A 
ATOM      8  C   UNL     1       6.108   4.805  17.351  0.00  0.00    +0.000 A 
ATOM      9  C   UNL     1       7.257   4.562  16.577  0.00  0.00    +0.000 A 
ATOM     10  C   UNL     1       7.149   4.381  15.202  0.00  0.00    +0.000 A 
ATOM     11  C   UNL     1       5.897   4.432  14.605  0.00  0.00    +0.000 A 
ATOM     12  C   UNL     1       4.756   4.692  15.380  0.00  0.00    +0.000 A 
ATOM     13  C   UNL     1       4.831   4.904  16.752  0.00  0.00    +0.000 A 
ATOM     14  N   UNL     1       3.719   5.208  17.459  0.00  0.00    +0.000 NA
ENDBRANCH   2   5
BRANCH   1  20
ATOM     15  C   UNL     1      -0.567   9.515  23.005  0.00  0.00    +0.000 C 
ATOM     16  C   UNL     1       0.058   9.337  21.654  0.00  0.00    +0.000 A 
ATOM     17  C   UNL     1      -0.342  10.097  20.555  0.00  0.00    +0.000 A 
ATOM     18  C   UNL     1       0.277   9.905  19.320  0.00  0.00    +0.000 A 
ATOM     19  C   UNL     1       1.293   8.951  19.173  0.00  0.00    +0.000 A 
ATOM     20  C   UNL     1       1.698   8.151  20.254  0.00  0.00    +0.000 A 
ATOM     21  C   UNL     1       1.072   8.380  21.489  0.00  0.00    +0.000 A 
ENDBRANCH   1  20
BRANCH   3  22
ATOM     22  N   UNL     1       1.473   3.954  19.249  0.00  0.00    +0.000 N 
ATOM     23  H   UNL     1       0.515   3.756  18.952  0.00  0.00    +0.000 HD
ATOM     24  H   UNL     1       1.678   3.287  19.996  0.00  0.00    +0.000 HD
ENDBRANCH   3  22
TORSDOF 3
ENDMDL
MODEL 6
REMARK VINA RESULT:      -7.5      0.911      1.700
REMARK  Name = 
REMARK  4 active torsions:
REMARK  status: ('A' for Active; 'I' for Inactive)
REMARK    1  A    between atoms: C_1  and  C_2
REMARK    2  A    between atoms: C_6  and  N_7
REMARK    3  A    between atoms: C_8  and  C_11
REMARK    4  A    between atoms: N_9  and  N_10
REMARK                            x       y       z     vdW  Elec       q    Type
REMARK                         _______ _______ _______ _____ _____    ______ ____
ROOT
ATOM      1  N   UNL     1       5.475   3.916  15.974  0.00  0.00    +0.000 N 
ATOM      2  C   UNL     1       4.718   4.879  16.634  0.00  0.00    +0.000 C 
ATOM      3  N   UNL     1       4.956   6.161  16.449  0.00  0.00    +0.000 NA
ATOM      4  H   UNL     1       5.393   2.973  16.337  0.00  0.00    +0.000 HD
ENDROOT
BRANCH   2   5
ATOM      5  C   UNL     1       3.653   4.343  17.578  0.00  0.00    +0.000 A 
ATOM      6  C   UNL     1       2.307   4.529  17.298  0.00  0.00    +0.000 A 
ATOM      7  C   UNL     1       1.375   4.174  18.261  0.00  0.00    +0.000 A 
ATOM      8  C   UNL     1       1.808   3.593  19.451  0.00  0.00    +0.000 A 
ATOM      9  C   UNL     1       0.887   3.275  20.466  0.00  0.00    +0.000 A 
ATOM     10  C   UNL     1       1.320   2.667  21.640  0.00  0.00    +0.000 A 
ATOM     11  C   UNL     1       2.667   2.369  21.795  0.00  0.00    +0.000 A 
ATOM     12  C   UNL     1       3.584   2.705  20.788  0.00  0.00    +0.000 A 
ATOM     13  C   UNL     1       3.189   3.336  19.613  0.00  0.00    +0.000 A 
ATOM     14  N   UNL     1       4.107   3.696  18.687  0.00  0.00    +0.000 NA
ENDBRANCH   2   5
BRANCH   1  20
ATOM     15  C   UNL     1       5.576   2.643  11.159  0.00  0.00    +0.000 C 
ATOM     16  C   UNL     1       6.140   3.443  12.296  0.00  0.00    +0.000 A 
ATOM     17  C   UNL     1       7.212   4.316  12.118  0.00  0.00    +0.000 A 
ATOM     18  C   UNL     1       7.694   5.048  13.201  0.00  0.00    +0.000 A 
ATOM     19  C   UNL     1       7.114   4.909  14.470  0.00  0.00    +0.000 A 
ATOM     20  C   UNL     1       6.052   4.017  14.687  0.00  0.00    +0.000 A 
ATOM     21  C   UNL     1       5.574   3.308  13.574  0.00  0.00    +0.000 A 
ENDBRANCH   1  20
BRANCH   3  22
ATOM     22  N   UNL     1       4.293   7.097  17.156  0.00  0.00    +0.000 N 
ATOM     23  H   UNL     1       3.598   7.541  16.552  0.00  0.00    +0.000 HD
ATOM     24  H   UNL     1       4.917   7.846  17.462  0.00  0.00    +0.000 HD
ENDBRANCH   3  22
TORSDOF 3
ENDMDL
MODEL 7
REMARK VINA RESULT:      -7.5      5.448      7.098
REMARK  Name = 
REMARK  4 active torsions:
REMARK  status: ('A' for Active; 'I' for Inactive)
REMARK    1  A    between atoms: C_1  and  C_2
REMARK    2  A    between atoms: C_6  and  N_7
REMARK    3  A    between atoms: C_8  and  C_11
REMARK    4  A    between atoms: N_9  and  N_10
REMARK                            x       y       z     vdW  Elec       q    Type
REMARK                         _______ _______ _______ _____ _____    ______ ____
ROOT
ATOM      1  N   UNL     1       2.509   7.087  19.553  0.00  0.00    +0.000 N 
ATOM      2  C   UNL     1       1.828   8.248  19.199  0.00  0.00    +0.000 C 
ATOM      3  N   UNL     1       1.857   8.689  17.958  0.00  0.00    +0.000 NA
ATOM      4  H   UNL     1       2.634   6.942  20.548  0.00  0.00    +0.000 HD
ENDROOT
BRANCH   2   5
ATOM      5  C   UNL     1       1.104   8.956  20.334  0.00  0.00    +0.000 A 
ATOM      6  C   UNL     1       0.502   8.225  21.348  0.00  0.00    +0.000 A 
ATOM      7  C   UNL     1      -0.285   8.897  22.270  0.00  0.00    +0.000 A 
ATOM      8  C   UNL     1      -0.406  10.283  22.187  0.00  0.00    +0.000 A 
ATOM      9  C   UNL     1      -1.244  10.980  23.077  0.00  0.00    +0.000 A 
ATOM     10  C   UNL     1      -1.337  12.366  23.009  0.00  0.00    +0.000 A 
ATOM     11  C   UNL     1      -0.588  13.054  22.063  0.00  0.00    +0.000 A 
ATOM     12  C   UNL     1       0.232  12.352  21.167  0.00  0.00    +0.000 A 
ATOM     13  C   UNL     1       0.328  10.965  21.190  0.00  0.00    +0.000 A 
ATOM     14  N   UNL     1       1.085  10.317  20.275  0.00  0.00    +0.000 NA
ENDBRANCH   2   5
BRANCH   1  20
ATOM     15  C   UNL     1       5.292   4.573  16.274  0.00  0.00    +0.000 C 
ATOM     16  C   UNL     1       4.073   4.649  17.144  0.00  0.00    +0.000 A 
ATOM     17  C   UNL     1       3.150   3.605  17.205  0.00  0.00    +0.000 A 
ATOM     18  C   UNL     1       2.037   3.715  18.037  0.00  0.00    +0.000 A 
ATOM     19  C   UNL     1       1.835   4.868  18.808  0.00  0.00    +0.000 A 
ATOM     20  C   UNL     1       2.731   5.948  18.747  0.00  0.00    +0.000 A 
ATOM     21  C   UNL     1       3.853   5.801  17.916  0.00  0.00    +0.000 A 
ENDBRANCH   1  20
BRANCH   3  22
ATOM     22  N   UNL     1       1.281   9.862  17.628  0.00  0.00    +0.000 N 
ATOM     23  H   UNL     1       1.694  10.607  18.194  0.00  0.00    +0.000 HD
ATOM     24  H   UNL     1       0.283   9.863  17.847  0.00  0.00    +0.000 HD
ENDBRANCH   3  22
TORSDOF 3
ENDMDL
MODEL 8
REMARK VINA RESULT:      -7.4      4.313      5.464
REMARK  Name = 
REMARK  4 active torsions:
REMARK  status: ('A' for Active; 'I' for Inactive)
REMARK    1  A    between atoms: C_1  and  C_2
REMARK    2  A    between atoms: C_6  and  N_7
REMARK    3  A    between atoms: C_8  and  C_11
REMARK    4  A    between atoms: N_9  and  N_10
REMARK                            x       y       z     vdW  Elec       q    Type
REMARK                         _______ _______ _______ _____ _____    ______ ____
ROOT
ATOM      1  N   UNL     1       3.553   6.394  17.650  0.00  0.00    +0.000 N 
ATOM      2  C   UNL     1       2.967   6.403  18.912  0.00  0.00    +0.000 C 
ATOM      3  N   UNL     1       3.122   5.382  19.730  0.00  0.00    +0.000 NA
ATOM      4  H   UNL     1       3.204   7.091  17.002  0.00  0.00    +0.000 HD
ENDROOT
BRANCH   2   5
ATOM      5  C   UNL     1       2.133   7.632  19.240  0.00  0.00    +0.000 A 
ATOM      6  C   UNL     1       1.925   8.616  18.282  0.00  0.00    +0.000 A 
ATOM      7  C   UNL     1       1.303   9.793  18.669  0.00  0.00    +0.000 A 
ATOM      8  C   UNL     1       0.856   9.933  19.982  0.00  0.00    +0.000 A 
ATOM      9  C   UNL     1       0.272  11.139  20.411  0.00  0.00    +0.000 A 
ATOM     10  C   UNL     1      -0.199  11.264  21.713  0.00  0.00    +0.000 A 
ATOM     11  C   UNL     1      -0.096  10.184  22.581  0.00  0.00    +0.000 A 
ATOM     12  C   UNL     1       0.504   8.990  22.153  0.00  0.00    +0.000 A 
ATOM     13  C   UNL     1       1.009   8.841  20.866  0.00  0.00    +0.000 A 
ATOM     14  N   UNL     1       1.631   7.695  20.504  0.00  0.00    +0.000 NA
ENDBRANCH   2   5
BRANCH   1  20
ATOM     15  C   UNL     1       6.351   3.937  14.340  0.00  0.00    +0.000 C 
ATOM     16  C   UNL     1       6.215   4.596  15.680  0.00  0.00    +0.000 A 
ATOM     17  C   UNL     1       7.280   4.659  16.579  0.00  0.00    +0.000 A 
ATOM     18  C   UNL     1       7.110   5.292  17.809  0.00  0.00    +0.000 A 
ATOM     19  C   UNL     1       5.877   5.862  18.152  0.00  0.00    +0.000 A 
ATOM     20  C   UNL     1       4.778   5.791  17.281  0.00  0.00    +0.000 A 
ATOM     21  C   UNL     1       4.983   5.165  16.042  0.00  0.00    +0.000 A 
ENDBRANCH   1  20
BRANCH   3  22
ATOM     22  N   UNL     1       2.480   5.341  20.914  0.00  0.00    +0.000 N 
ATOM     23  H   UNL     1       1.837   4.546  20.917  0.00  0.00    +0.000 HD
ATOM     24  H   UNL     1       1.900   6.171  21.053  0.00  0.00    +0.000 HD
ENDBRANCH   3  22
TORSDOF 3
ENDMDL
MODEL 9
REMARK VINA RESULT:      -7.3      4.940      7.421
REMARK  Name = 
REMARK  4 active torsions:
REMARK  status: ('A' for Active; 'I' for Inactive)
REMARK    1  A    between atoms: C_1  and  C_2
REMARK    2  A    between atoms: C_6  and  N_7
REMARK    3  A    between atoms: C_8  and  C_11
REMARK    4  A    between atoms: N_9  and  N_10
REMARK                            x       y       z     vdW  Elec       q    Type
REMARK                         _______ _______ _______ _____ _____    ______ ____
ROOT
ATOM      1  N   UNL     1       1.485   9.172  18.230  0.00  0.00    +0.000 N 
ATOM      2  C   UNL     1       1.745   8.257  19.246  0.00  0.00    +0.000 C 
ATOM      3  N   UNL     1       1.430   8.535  20.494  0.00  0.00    +0.000 NA
ATOM      4  H   UNL     1       1.958   8.994  17.351  0.00  0.00    +0.000 HD
ENDROOT
BRANCH   2   5
ATOM      5  C   UNL     1       2.431   6.971  18.811  0.00  0.00    +0.000 A 
ATOM      6  C   UNL     1       3.512   7.011  17.941  0.00  0.00    +0.000 A 
ATOM      7  C   UNL     1       4.002   5.814  17.441  0.00  0.00    +0.000 A 
ATOM      8  C   UNL     1       3.438   4.612  17.864  0.00  0.00    +0.000 A 
ATOM      9  C   UNL     1       3.880   3.389  17.328  0.00  0.00    +0.000 A 
ATOM     10  C   UNL     1       3.335   2.190  17.776  0.00  0.00    +0.000 A 
ATOM     11  C   UNL     1       2.358   2.213  18.762  0.00  0.00    +0.000 A 
ATOM     12  C   UNL     1       1.907   3.437  19.280  0.00  0.00    +0.000 A 
ATOM     13  C   UNL     1       2.412   4.654  18.836  0.00  0.00    +0.000 A 
ATOM     14  N   UNL     1       1.915   5.817  19.317  0.00  0.00    +0.000 NA
ENDBRANCH   2   5
BRANCH   1  20
ATOM     15  C   UNL     1      -3.252  10.213  17.088  0.00  0.00    +0.000 C 
ATOM     16  C   UNL     1      -1.927  10.656  17.634  0.00  0.00    +0.000 A 
ATOM     17  C   UNL     1      -1.725  11.952  18.107  0.00  0.00    +0.000 A 
ATOM     18  C   UNL     1      -0.480  12.316  18.617  0.00  0.00    +0.000 A 
ATOM     19  C   UNL     1       0.573  11.391  18.653  0.00  0.00    +0.000 A 
ATOM     20  C   UNL     1       0.409  10.087  18.159  0.00  0.00    +0.000 A 
ATOM     21  C   UNL     1      -0.861   9.743  17.670  0.00  0.00    +0.000 A 
ENDBRANCH   1  20
BRANCH   3  22
ATOM     22  N   UNL     1       1.765   7.697  21.495  0.00  0.00    +0.000 N 
ATOM     23  H   UNL     1       2.715   7.911  21.804  0.00  0.00    +0.000 HD
ATOM     24  H   UNL     1       1.785   6.725  21.177  0.00  0.00    +0.000 HD
ENDBRANCH   3  22
TORSDOF 3
ENDMDL
