MODEL 1
REMARK VINA RESULT:      -8.2      0.000      0.000
REMARK  Name = 
REMARK  4 active torsions:
REMARK  status: ('A' for Active; 'I' for Inactive)
REMARK    1  A    between atoms: C_2  and  C_3
REMARK    2  A    between atoms: C_3  and  N_4
REMARK    3  A    between atoms: C_14  and  C_15
REMARK    4  A    between atoms: C_15  and  C_16
REMARK                            x       y       z     vdW  Elec       q    Type
REMARK                         _______ _______ _______ _____ _____    ______ ____
ROOT
ATOM      1  O   UNL     1       3.620   4.799  20.128  0.00  0.00    +0.000 OA
ATOM      2  C   UNL     1       3.284   5.738  19.400  0.00  0.00    +0.000 C 
ATOM      3  N   UNL     1       2.560   6.752  19.980  0.00  0.00    +0.000 N 
ATOM      4  C   UNL     1       2.108   7.862  19.335  0.00  0.00    +0.000 A 
ATOM      5  N   UNL     1       2.356   8.240  18.106  0.00  0.00    +0.000 NA
ATOM      6  C   UNL     1       1.695   9.415  17.842  0.00  0.00    +0.000 A 
ATOM      7  C   UNL     1       0.938   9.920  18.877  0.00  0.00    +0.000 A 
ATOM      8  S   UNL     1       1.097   8.888  20.247  0.00  0.00    +0.000 S 
ATOM      9  H   UNL     1       2.330   6.630  20.955  0.00  0.00    +0.000 HD
ENDROOT
BRANCH   2  10
ATOM     10  C   UNL     1       3.604   5.831  17.893  0.00  0.00    +0.000 C 
BRANCH  10  11
ATOM     11  N   UNL     1       4.905   5.243  17.480  0.00  0.00    +0.000 NA
ATOM     12  C   UNL     1       4.686   4.473  16.240  0.00  0.00    +0.000 C 
ATOM     13  C   UNL     1       5.970   3.808  15.748  0.00  0.00    +0.000 C 
ATOM     14  C   UNL     1       7.084   4.832  15.562  0.00  0.00    +0.000 C 
ATOM     15  C   UNL     1       7.247   5.674  16.821  0.00  0.00    +0.000 C 
ATOM     16  C   UNL     1       5.915   6.289  17.252  0.00  0.00    +0.000 C 
ENDBRANCH  10  11
ENDBRANCH   2  10
BRANCH   7  17
ATOM     17  C   UNL     1       0.098  11.159  18.905  0.00  0.00    +0.000 C 
BRANCH  17  18
ATOM     18  C   UNL     1      -1.325  10.920  18.433  0.00  0.00    +0.000 A 
ATOM     19  C   UNL     1      -1.504  10.004  17.377  0.00  0.00    +0.000 A 
ATOM     20  C   UNL     1      -2.767   9.743  16.862  0.00  0.00    +0.000 A 
ATOM     21  C   UNL     1      -3.876  10.396  17.390  0.00  0.00    +0.000 A 
ATOM     22  C   UNL     1      -3.741  11.314  18.440  0.00  0.00    +0.000 A 
ATOM     23  C   UNL     1      -4.881  11.954  18.952  0.00  0.00    +0.000 A 
ATOM     24  C   UNL     1      -4.786  12.869  19.999  0.00  0.00    +0.000 A 
ATOM     25  C   UNL     1      -3.544  13.155  20.546  0.00  0.00    +0.000 A 
ATOM     26  C   UNL     1      -2.399  12.526  20.046  0.00  0.00    +0.000 A 
ATOM     27  C   UNL     1      -2.458  11.593  18.983  0.00  0.00    +0.000 A 
ENDBRANCH  17  18
ENDBRANCH   7  17
TORSDOF 4
ENDMDL
MODEL 2
REMARK VINA RESULT:      -8.2      2.437      9.352
REMARK  Name = 
REMARK  4 active torsions:
REMARK  status: ('A' for Active; 'I' for Inactive)
REMARK    1  A    between atoms: C_2  and  C_3
REMARK    2  A    between atoms: C_3  and  N_4
REMARK    3  A    between atoms: C_14  and  C_15
REMARK    4  A    between atoms: C_15  and  C_16
REMARK                            x       y       z     vdW  Elec       q    Type
REMARK                         _______ _______ _______ _____ _____    ______ ____
ROOT
ATOM      1  O   UNL     1       0.431   9.864  23.015  0.00  0.00    +0.000 OA
ATOM      2  C   UNL     1       0.909   9.556  21.919  0.00  0.00    +0.000 C 
ATOM      3  N   UNL     1       1.175   8.225  21.704  0.00  0.00    +0.000 N 
ATOM      4  C   UNL     1       1.699   7.704  20.560  0.00  0.00    +0.000 A 
ATOM      5  N   UNL     1       1.941   8.319  19.429  0.00  0.00    +0.000 NA
ATOM      6  C   UNL     1       2.483   7.433  18.530  0.00  0.00    +0.000 A 
ATOM      7  C   UNL     1       2.658   6.146  18.990  0.00  0.00    +0.000 A 
ATOM      8  S   UNL     1       2.081   6.044  20.610  0.00  0.00    +0.000 S 
ATOM      9  H   UNL     1       0.988   7.606  22.478  0.00  0.00    +0.000 HD
ENDROOT
BRANCH   2  10
ATOM     10  C   UNL     1       1.242  10.564  20.800  0.00  0.00    +0.000 C 
BRANCH  10  11
ATOM     11  N   UNL     1       0.074  11.262  20.202  0.00  0.00    +0.000 NA
ATOM     12  C   UNL     1       0.582  12.276  19.257  0.00  0.00    +0.000 C 
ATOM     13  C   UNL     1      -0.551  13.065  18.605  0.00  0.00    +0.000 C 
ATOM     14  C   UNL     1      -1.547  12.137  17.921  0.00  0.00    +0.000 C 
ATOM     15  C   UNL     1      -2.004  11.047  18.883  0.00  0.00    +0.000 C 
ATOM     16  C   UNL     1      -0.810  10.317  19.501  0.00  0.00    +0.000 C 
ENDBRANCH  10  11
ENDBRANCH   2  10
BRANCH   7  17
ATOM     17  C   UNL     1       3.228   4.964  18.270  0.00  0.00    +0.000 C 
BRANCH  17  18
ATOM     18  C   UNL     1       4.736   5.042  18.109  0.00  0.00    +0.000 A 
ATOM     19  C   UNL     1       5.488   5.353  19.259  0.00  0.00    +0.000 A 
ATOM     20  C   UNL     1       6.870   5.473  19.200  0.00  0.00    +0.000 A 
ATOM     21  C   UNL     1       7.528   5.288  17.989  0.00  0.00    +0.000 A 
ATOM     22  C   UNL     1       6.817   4.978  16.822  0.00  0.00    +0.000 A 
ATOM     23  C   UNL     1       7.512   4.794  15.615  0.00  0.00    +0.000 A 
ATOM     24  C   UNL     1       6.839   4.480  14.436  0.00  0.00    +0.000 A 
ATOM     25  C   UNL     1       5.458   4.347  14.451  0.00  0.00    +0.000 A 
ATOM     26  C   UNL     1       4.753   4.527  15.645  0.00  0.00    +0.000 A 
ATOM     27  C   UNL     1       5.403   4.848  16.861  0.00  0.00    +0.000 A 
ENDBRANCH  17  18
ENDBRANCH   7  17
TORSDOF 4
ENDMDL
MODEL 3
REMARK VINA RESULT:      -8.0      1.870      3.094
REMARK  Name = 
REMARK  4 active torsions:
REMARK  status: ('A' for Active; 'I' for Inactive)
REMARK    1  A    between atoms: C_2  and  C_3
REMARK    2  A    between atoms: C_3  and  N_4
REMARK    3  A    between atoms: C_14  and  C_15
REMARK    4  A    between atoms: C_15  and  C_16
REMARK                            x       y       z     vdW  Elec       q    Type
REMARK                         _______ _______ _______ _____ _____    ______ ____
ROOT
ATOM      1  O   UNL     1       4.730   5.836  17.000  0.00  0.00    +0.000 OA
ATOM      2  C   UNL     1       4.025   6.316  17.893  0.00  0.00    +0.000 C 
ATOM      3  N   UNL     1       3.307   7.447  17.584  0.00  0.00    +0.000 N 
ATOM      4  C   UNL     1       2.480   8.110  18.437  0.00  0.00    +0.000 A 
ATOM      5  N   UNL     1       2.116   7.759  19.646  0.00  0.00    +0.000 NA
ATOM      6  C   UNL     1       1.281   8.713  20.171  0.00  0.00    +0.000 A 
ATOM      7  C   UNL     1       1.020   9.793  19.356  0.00  0.00    +0.000 A 
ATOM      8  S   UNL     1       1.834   9.575  17.854  0.00  0.00    +0.000 S 
ATOM      9  H   UNL     1       3.443   7.816  16.654  0.00  0.00    +0.000 HD
ENDROOT
BRANCH   2  10
ATOM     10  C   UNL     1       3.918   5.744  19.322  0.00  0.00    +0.000 C 
BRANCH  10  11
ATOM     11  N   UNL     1       3.174   4.464  19.443  0.00  0.00    +0.000 NA
ATOM     12  C   UNL     1       2.566   4.414  20.787  0.00  0.00    +0.000 C 
ATOM     13  C   UNL     1       1.794   3.115  21.014  0.00  0.00    +0.000 C 
ATOM     14  C   UNL     1       0.741   2.904  19.933  0.00  0.00    +0.000 C 
ATOM     15  C   UNL     1       1.366   3.037  18.550  0.00  0.00    +0.000 C 
ATOM     16  C   UNL     1       2.130   4.355  18.412  0.00  0.00    +0.000 C 
ENDBRANCH  10  11
ENDBRANCH   2  10
BRANCH   7  17
ATOM     17  C   UNL     1       0.169  10.994  19.636  0.00  0.00    +0.000 C 
BRANCH  17  18
ATOM     18  C   UNL     1      -1.201  10.911  18.985  0.00  0.00    +0.000 A 
ATOM     19  C   UNL     1      -1.331  10.057  17.873  0.00  0.00    +0.000 A 
ATOM     20  C   UNL     1      -2.539   9.939  17.197  0.00  0.00    +0.000 A 
ATOM     21  C   UNL     1      -3.640  10.678  17.618  0.00  0.00    +0.000 A 
ATOM     22  C   UNL     1      -3.551  11.540  18.720  0.00  0.00    +0.000 A 
ATOM     23  C   UNL     1      -4.683  12.270  19.122  0.00  0.00    +0.000 A 
ATOM     24  C   UNL     1      -4.634  13.132  20.214  0.00  0.00    +0.000 A 
ATOM     25  C   UNL     1      -3.448  13.276  20.920  0.00  0.00    +0.000 A 
ATOM     26  C   UNL     1      -2.313  12.556  20.532  0.00  0.00    +0.000 A 
ATOM     27  C   UNL     1      -2.326  11.672  19.426  0.00  0.00    +0.000 A 
ENDBRANCH  17  18
ENDBRANCH   7  17
TORSDOF 4
ENDMDL
MODEL 4
REMARK VINA RESULT:      -7.9      0.985      1.251
REMARK  Name = 
REMARK  4 active torsions:
REMARK  status: ('A' for Active; 'I' for Inactive)
REMARK    1  A    between atoms: C_2  and  C_3
REMARK    2  A    between atoms: C_3  and  N_4
REMARK    3  A    between atoms: C_14  and  C_15
REMARK    4  A    between atoms: C_15  and  C_16
REMARK                            x       y       z     vdW  Elec       q    Type
REMARK                         _______ _______ _______ _____ _____    ______ ____
ROOT
ATOM      1  O   UNL     1       3.293   3.980  20.292  0.00  0.00    +0.000 OA
ATOM      2  C   UNL     1       3.149   4.997  19.606  0.00  0.00    +0.000 C 
ATOM      3  N   UNL     1       2.472   6.047  20.179  0.00  0.00    +0.000 N 
ATOM      4  C   UNL     1       2.220   7.241  19.576  0.00  0.00    +0.000 A 
ATOM      5  N   UNL     1       2.653   7.668  18.416  0.00  0.00    +0.000 NA
ATOM      6  C   UNL     1       2.157   8.925  18.172  0.00  0.00    +0.000 A 
ATOM      7  C   UNL     1       1.338   9.445  19.152  0.00  0.00    +0.000 A 
ATOM      8  S   UNL     1       1.222   8.314  20.446  0.00  0.00    +0.000 S 
ATOM      9  H   UNL     1       2.115   5.888  21.109  0.00  0.00    +0.000 HD
ENDROOT
BRANCH   2  10
ATOM     10  C   UNL     1       3.656   5.151  18.157  0.00  0.00    +0.000 C 
BRANCH  10  11
ATOM     11  N   UNL     1       5.132   5.205  18.000  0.00  0.00    +0.000 NA
ATOM     12  C   UNL     1       5.444   6.176  16.933  0.00  0.00    +0.000 C 
ATOM     13  C   UNL     1       6.947   6.285  16.683  0.00  0.00    +0.000 C 
ATOM     14  C   UNL     1       7.696   6.628  17.965  0.00  0.00    +0.000 C 
ATOM     15  C   UNL     1       7.306   5.668  19.081  0.00  0.00    +0.000 C 
ATOM     16  C   UNL     1       5.787   5.608  19.256  0.00  0.00    +0.000 C 
ENDBRANCH  10  11
ENDBRANCH   2  10
BRANCH   7  17
ATOM     17  C   UNL     1       0.638  10.768  19.182  0.00  0.00    +0.000 C 
BRANCH  17  18
ATOM     18  C   UNL     1      -0.774  10.701  18.626  0.00  0.00    +0.000 A 
ATOM     19  C   UNL     1      -0.977   9.895  17.489  0.00  0.00    +0.000 A 
ATOM     20  C   UNL     1      -2.229   9.796  16.895  0.00  0.00    +0.000 A 
ATOM     21  C   UNL     1      -3.302  10.505  17.425  0.00  0.00    +0.000 A 
ATOM     22  C   UNL     1      -3.141  11.319  18.555  0.00  0.00    +0.000 A 
ATOM     23  C   UNL     1      -4.246  12.019  19.067  0.00  0.00    +0.000 A 
ATOM     24  C   UNL     1      -4.125  12.833  20.191  0.00  0.00    +0.000 A 
ATOM     25  C   UNL     1      -2.893  12.957  20.818  0.00  0.00    +0.000 A 
ATOM     26  C   UNL     1      -1.784  12.266  20.319  0.00  0.00    +0.000 A 
ATOM     27  C   UNL     1      -1.870  11.431  19.179  0.00  0.00    +0.000 A 
ENDBRANCH  17  18
ENDBRANCH   7  17
TORSDOF 4
ENDMDL
MODEL 5
REMARK VINA RESULT:      -7.8      1.087      2.383
REMARK  Name = 
REMARK  4 active torsions:
REMARK  status: ('A' for Active; 'I' for Inactive)
REMARK    1  A    between atoms: C_2  and  C_3
REMARK    2  A    between atoms: C_3  and  N_4
REMARK    3  A    between atoms: C_14  and  C_15
REMARK    4  A    between atoms: C_15  and  C_16
REMARK                            x       y       z     vdW  Elec       q    Type
REMARK                         _______ _______ _______ _____ _____    ______ ____
ROOT
ATOM      1  O   UNL     1       2.154   4.630  21.258  0.00  0.00    +0.000 OA
ATOM      2  C   UNL     1       2.158   5.466  20.349  0.00  0.00    +0.000 C 
ATOM      3  N   UNL     1       1.834   6.758  20.685  0.00  0.00    +0.000 N 
ATOM      4  C   UNL     1       1.788   7.807  19.819  0.00  0.00    +0.000 A 
ATOM      5  N   UNL     1       2.143   7.830  18.558  0.00  0.00    +0.000 NA
ATOM      6  C   UNL     1       1.926   9.083  18.041  0.00  0.00    +0.000 A 
ATOM      7  C   UNL     1       1.398  10.008  18.916  0.00  0.00    +0.000 A 
ATOM      8  S   UNL     1       1.201   9.273  20.461  0.00  0.00    +0.000 S 
ATOM      9  H   UNL     1       1.583   6.914  21.650  0.00  0.00    +0.000 HD
ENDROOT
BRANCH   2  10
ATOM     10  C   UNL     1       2.480   5.147  18.874  0.00  0.00    +0.000 C 
BRANCH  10  11
ATOM     11  N   UNL     1       3.863   4.672  18.611  0.00  0.00    +0.000 NA
ATOM     12  C   UNL     1       4.069   4.652  17.149  0.00  0.00    +0.000 C 
ATOM     13  C   UNL     1       5.464   4.152  16.778  0.00  0.00    +0.000 C 
ATOM     14  C   UNL     1       6.546   4.975  17.468  0.00  0.00    +0.000 C 
ATOM     15  C   UNL     1       6.278   5.055  18.965  0.00  0.00    +0.000 C 
ATOM     16  C   UNL     1       4.858   5.549  19.249  0.00  0.00    +0.000 C 
ENDBRANCH  10  11
ENDBRANCH   2  10
BRANCH   7  17
ATOM     17  C   UNL     1       1.039  11.439  18.662  0.00  0.00    +0.000 C 
BRANCH  17  18
ATOM     18  C   UNL     1      -0.393  11.767  19.047  0.00  0.00    +0.000 A 
ATOM     19  C   UNL     1      -0.579  12.597  20.170  0.00  0.00    +0.000 A 
ATOM     20  C   UNL     1      -1.853  12.927  20.613  0.00  0.00    +0.000 A 
ATOM     21  C   UNL     1      -2.967  12.430  19.945  0.00  0.00    +0.000 A 
ATOM     22  C   UNL     1      -2.824  11.600  18.824  0.00  0.00    +0.000 A 
ATOM     23  C   UNL     1      -3.969  11.118  18.169  0.00  0.00    +0.000 A 
ATOM     24  C   UNL     1      -3.866  10.295  17.049  0.00  0.00    +0.000 A 
ATOM     25  C   UNL     1      -2.612   9.945  16.570  0.00  0.00    +0.000 A 
ATOM     26  C   UNL     1      -1.463  10.417  17.212  0.00  0.00    +0.000 A 
ATOM     27  C   UNL     1      -1.530  11.254  18.353  0.00  0.00    +0.000 A 
ENDBRANCH  17  18
ENDBRANCH   7  17
TORSDOF 4
ENDMDL
MODEL 6
REMARK VINA RESULT:      -7.7      3.202      9.499
REMARK  Name = 
REMARK  4 active torsions:
REMARK  status: ('A' for Active; 'I' for Inactive)
REMARK    1  A    between atoms: C_2  and  C_3
REMARK    2  A    between atoms: C_3  and  N_4
REMARK    3  A    between atoms: C_14  and  C_15
REMARK    4  A    between atoms: C_15  and  C_16
REMARK                            x       y       z     vdW  Elec       q    Type
REMARK                         _______ _______ _______ _____ _____    ______ ____
ROOT
ATOM      1  O   UNL     1       0.341  10.599  22.195  0.00  0.00    +0.000 OA
ATOM      2  C   UNL     1       0.818  10.114  21.165  0.00  0.00    +0.000 C 
ATOM      3  N   UNL     1       1.112   8.772  21.182  0.00  0.00    +0.000 N 
ATOM      4  C   UNL     1       1.639   8.070  20.142  0.00  0.00    +0.000 A 
ATOM      5  N   UNL     1       1.859   8.481  18.918  0.00  0.00    +0.000 NA
ATOM      6  C   UNL     1       2.415   7.463  18.183  0.00  0.00    +0.000 A 
ATOM      7  C   UNL     1       2.621   6.280  18.859  0.00  0.00    +0.000 A 
ATOM      8  S   UNL     1       2.058   6.452  20.477  0.00  0.00    +0.000 S 
ATOM      9  H   UNL     1       0.944   8.293  22.055  0.00  0.00    +0.000 HD
ENDROOT
BRANCH   2  10
ATOM     10  C   UNL     1       1.121  10.917  19.882  0.00  0.00    +0.000 C 
BRANCH  10  11
ATOM     11  N   UNL     1       0.775  12.361  19.938  0.00  0.00    +0.000 NA
ATOM     12  C   UNL     1       2.011  13.117  20.223  0.00  0.00    +0.000 C 
ATOM     13  C   UNL     1       1.751  14.618  20.322  0.00  0.00    +0.000 C 
ATOM     14  C   UNL     1       1.071  15.144  19.064  0.00  0.00    +0.000 C 
ATOM     15  C   UNL     1      -0.158  14.307  18.735  0.00  0.00    +0.000 C 
ATOM     16  C   UNL     1       0.186  12.818  18.669  0.00  0.00    +0.000 C 
ENDBRANCH  10  11
ENDBRANCH   2  10
BRANCH   7  17
ATOM     17  C   UNL     1       3.212   5.002  18.350  0.00  0.00    +0.000 C 
BRANCH  17  18
ATOM     18  C   UNL     1       4.720   5.076  18.179  0.00  0.00    +0.000 A 
ATOM     19  C   UNL     1       5.480   5.381  19.326  0.00  0.00    +0.000 A 
ATOM     20  C   UNL     1       6.862   5.496  19.258  0.00  0.00    +0.000 A 
ATOM     21  C   UNL     1       7.512   5.313  18.042  0.00  0.00    +0.000 A 
ATOM     22  C   UNL     1       6.792   5.010  16.879  0.00  0.00    +0.000 A 
ATOM     23  C   UNL     1       7.478   4.828  15.666  0.00  0.00    +0.000 A 
ATOM     24  C   UNL     1       6.797   4.520  14.491  0.00  0.00    +0.000 A 
ATOM     25  C   UNL     1       5.416   4.391  14.515  0.00  0.00    +0.000 A 
ATOM     26  C   UNL     1       4.718   4.570  15.714  0.00  0.00    +0.000 A 
ATOM     27  C   UNL     1       5.378   4.884  16.927  0.00  0.00    +0.000 A 
ENDBRANCH  17  18
ENDBRANCH   7  17
TORSDOF 4
ENDMDL
MODEL 7
REMARK VINA RESULT:      -7.7      2.287      9.612
REMARK  Name = 
REMARK  4 active torsions:
REMARK  status: ('A' for Active; 'I' for Inactive)
REMARK    1  A    between atoms: C_2  and  C_3
REMARK    2  A    between atoms: C_3  and  N_4
REMARK    3  A    between atoms: C_14  and  C_15
REMARK    4  A    between atoms: C_15  and  C_16
REMARK                            x       y       z     vdW  Elec       q    Type
REMARK                         _______ _______ _______ _____ _____    ______ ____
ROOT
ATOM      1  O   UNL     1       1.279  12.273  18.137  0.00  0.00    +0.000 OA
ATOM      2  C   UNL     1       1.232  11.148  18.643  0.00  0.00    +0.000 C 
ATOM      3  N   UNL     1       2.064  10.189  18.115  0.00  0.00    +0.000 N 
ATOM      4  C   UNL     1       2.148   8.900  18.544  0.00  0.00    +0.000 A 
ATOM      5  N   UNL     1       1.566   8.355  19.583  0.00  0.00    +0.000 NA
ATOM      6  C   UNL     1       1.904   7.026  19.655  0.00  0.00    +0.000 A 
ATOM      7  C   UNL     1       2.740   6.566  18.661  0.00  0.00    +0.000 A 
ATOM      8  S   UNL     1       3.142   7.874  17.615  0.00  0.00    +0.000 S 
ATOM      9  H   UNL     1       2.626  10.476  17.328  0.00  0.00    +0.000 HD
ENDROOT
BRANCH   2  10
ATOM     10  C   UNL     1       0.293  10.751  19.801  0.00  0.00    +0.000 C 
BRANCH  10  11
ATOM     11  N   UNL     1      -1.152  10.694  19.459  0.00  0.00    +0.000 NA
ATOM     12  C   UNL     1      -1.711  12.052  19.610  0.00  0.00    +0.000 C 
ATOM     13  C   UNL     1      -3.206  12.089  19.299  0.00  0.00    +0.000 C 
ATOM     14  C   UNL     1      -3.495  11.534  17.910  0.00  0.00    +0.000 C 
ATOM     15  C   UNL     1      -2.845  10.167  17.739  0.00  0.00    +0.000 C 
ATOM     16  C   UNL     1      -1.356  10.214  18.083  0.00  0.00    +0.000 C 
ENDBRANCH  10  11
ENDBRANCH   2  10
BRANCH   7  17
ATOM     17  C   UNL     1       3.277   5.184  18.454  0.00  0.00    +0.000 C 
BRANCH  17  18
ATOM     18  C   UNL     1       4.783   5.157  18.266  0.00  0.00    +0.000 A 
ATOM     19  C   UNL     1       5.575   5.423  19.400  0.00  0.00    +0.000 A 
ATOM     20  C   UNL     1       6.961   5.447  19.317  0.00  0.00    +0.000 A 
ATOM     21  C   UNL     1       7.583   5.210  18.095  0.00  0.00    +0.000 A 
ATOM     22  C   UNL     1       6.832   4.942  16.943  0.00  0.00    +0.000 A 
ATOM     23  C   UNL     1       7.491   4.703  15.726  0.00  0.00    +0.000 A 
ATOM     24  C   UNL     1       6.777   4.428  14.562  0.00  0.00    +0.000 A 
ATOM     25  C   UNL     1       5.391   4.390  14.601  0.00  0.00    +0.000 A 
ATOM     26  C   UNL     1       4.721   4.626  15.806  0.00  0.00    +0.000 A 
ATOM     27  C   UNL     1       5.413   4.909  17.008  0.00  0.00    +0.000 A 
ENDBRANCH  17  18
ENDBRANCH   7  17
TORSDOF 4
ENDMDL
MODEL 8
REMARK VINA RESULT:      -7.7      2.715      9.871
REMARK  Name = 
REMARK  4 active torsions:
REMARK  status: ('A' for Active; 'I' for Inactive)
REMARK    1  A    between atoms: C_2  and  C_3
REMARK    2  A    between atoms: C_3  and  N_4
REMARK    3  A    between atoms: C_14  and  C_15
REMARK    4  A    between atoms: C_15  and  C_16
REMARK                            x       y       z     vdW  Elec       q    Type
REMARK                         _______ _______ _______ _____ _____    ______ ____
ROOT
ATOM      1  O   UNL     1       0.924  12.109  18.470  0.00  0.00    +0.000 OA
ATOM      2  C   UNL     1       1.031  10.992  18.985  0.00  0.00    +0.000 C 
ATOM      3  N   UNL     1       1.792  10.065  18.315  0.00  0.00    +0.000 N 
ATOM      4  C   UNL     1       2.022   8.789  18.730  0.00  0.00    +0.000 A 
ATOM      5  N   UNL     1       1.678   8.235  19.866  0.00  0.00    +0.000 NA
ATOM      6  C   UNL     1       2.089   6.925  19.884  0.00  0.00    +0.000 A 
ATOM      7  C   UNL     1       2.740   6.488  18.751  0.00  0.00    +0.000 A 
ATOM      8  S   UNL     1       2.868   7.794  17.635  0.00  0.00    +0.000 S 
ATOM      9  H   UNL     1       2.178  10.364  17.431  0.00  0.00    +0.000 HD
ENDROOT
BRANCH   2  10
ATOM     10  C   UNL     1       0.353  10.572  20.306  0.00  0.00    +0.000 C 
BRANCH  10  11
ATOM     11  N   UNL     1      -0.434  11.635  20.985  0.00  0.00    +0.000 NA
ATOM     12  C   UNL     1      -1.729  11.761  20.287  0.00  0.00    +0.000 C 
ATOM     13  C   UNL     1      -2.603  12.851  20.903  0.00  0.00    +0.000 C 
ATOM     14  C   UNL     1      -2.811  12.615  22.394  0.00  0.00    +0.000 C 
ATOM     15  C   UNL     1      -1.472  12.407  23.090  0.00  0.00    +0.000 C 
ATOM     16  C   UNL     1      -0.654  11.311  22.404  0.00  0.00    +0.000 C 
ENDBRANCH  10  11
ENDBRANCH   2  10
BRANCH   7  17
ATOM     17  C   UNL     1       3.294   5.129  18.455  0.00  0.00    +0.000 C 
BRANCH  17  18
ATOM     18  C   UNL     1       4.798   5.138  18.241  0.00  0.00    +0.000 A 
ATOM     19  C   UNL     1       5.603   5.417  19.364  0.00  0.00    +0.000 A 
ATOM     20  C   UNL     1       6.986   5.473  19.257  0.00  0.00    +0.000 A 
ATOM     21  C   UNL     1       7.593   5.257  18.024  0.00  0.00    +0.000 A 
ATOM     22  C   UNL     1       6.828   4.977  16.883  0.00  0.00    +0.000 A 
ATOM     23  C   UNL     1       7.471   4.760  15.654  0.00  0.00    +0.000 A 
ATOM     24  C   UNL     1       6.745   4.474  14.500  0.00  0.00    +0.000 A 
ATOM     25  C   UNL     1       5.361   4.404  14.563  0.00  0.00    +0.000 A 
ATOM     26  C   UNL     1       4.705   4.618  15.780  0.00  0.00    +0.000 A 
ATOM     27  C   UNL     1       5.412   4.911  16.972  0.00  0.00    +0.000 A 
ENDBRANCH  17  18
ENDBRANCH   7  17
TORSDOF 4
ENDMDL
MODEL 9
REMARK VINA RESULT:      -7.7      3.692      8.853
REMARK  Name = 
REMARK  4 active torsions:
REMARK  status: ('A' for Active; 'I' for Inactive)
REMARK    1  A    between atoms: C_2  and  C_3
REMARK    2  A    between atoms: C_3  and  N_4
REMARK    3  A    between atoms: C_14  and  C_15
REMARK    4  A    between atoms: C_15  and  C_16
REMARK                            x       y       z     vdW  Elec       q    Type
REMARK                         _______ _______ _______ _____ _____    ______ ____
ROOT
ATOM      1  O   UNL     1      -0.164  10.375  23.272  0.00  0.00    +0.000 OA
ATOM      2  C   UNL     1       0.196  10.360  22.090  0.00  0.00    +0.000 C 
ATOM      3  N   UNL     1       0.740   9.191  21.617  0.00  0.00    +0.000 N 
ATOM      4  C   UNL     1       1.189   8.991  20.347  0.00  0.00    +0.000 A 
ATOM      5  N   UNL     1       1.093   9.798  19.320  0.00  0.00    +0.000 NA
ATOM      6  C   UNL     1       1.686   9.222  18.224  0.00  0.00    +0.000 A 
ATOM      7  C   UNL     1       2.238   7.976  18.429  0.00  0.00    +0.000 A 
ATOM      8  S   UNL     1       1.965   7.501  20.062  0.00  0.00    +0.000 S 
ATOM      9  H   UNL     1       0.833   8.442  22.288  0.00  0.00    +0.000 HD
ENDROOT
BRANCH   2  10
ATOM     10  C   UNL     1       0.095  11.566  21.133  0.00  0.00    +0.000 C 
BRANCH  10  11
ATOM     11  N   UNL     1       0.883  12.762  21.528  0.00  0.00    +0.000 NA
ATOM     12  C   UNL     1       1.900  13.005  20.486  0.00  0.00    +0.000 C 
ATOM     13  C   UNL     1       2.779  14.209  20.817  0.00  0.00    +0.000 C 
ATOM     14  C   UNL     1       1.937  15.457  21.056  0.00  0.00    +0.000 C 
ATOM     15  C   UNL     1       0.842  15.171  22.075  0.00  0.00    +0.000 C 
ATOM     16  C   UNL     1       0.019  13.945  21.676  0.00  0.00    +0.000 C 
ENDBRANCH  10  11
ENDBRANCH   2  10
BRANCH   7  17
ATOM     17  C   UNL     1       2.958   7.099  17.452  0.00  0.00    +0.000 C 
BRANCH  17  18
ATOM     18  C   UNL     1       3.641   5.914  18.114  0.00  0.00    +0.000 A 
ATOM     19  C   UNL     1       4.988   6.080  18.491  0.00  0.00    +0.000 A 
ATOM     20  C   UNL     1       5.701   5.043  19.077  0.00  0.00    +0.000 A 
ATOM     21  C   UNL     1       5.082   3.816  19.293  0.00  0.00    +0.000 A 
ATOM     22  C   UNL     1       3.744   3.610  18.932  0.00  0.00    +0.000 A 
ATOM     23  C   UNL     1       3.147   2.360  19.168  0.00  0.00    +0.000 A 
ATOM     24  C   UNL     1       1.818   2.120  18.827  0.00  0.00    +0.000 A 
ATOM     25  C   UNL     1       1.068   3.131  18.243  0.00  0.00    +0.000 A 
ATOM     26  C   UNL     1       1.648   4.380  18.002  0.00  0.00    +0.000 A 
ATOM     27  C   UNL     1       2.996   4.659  18.335  0.00  0.00    +0.000 A 
ENDBRANCH  17  18
ENDBRANCH   7  17
TORSDOF 4
ENDMDL
