MODEL 1
REMARK VINA RESULT:      -7.6      0.000      0.000
REMARK  Name = 
REMARK  2 active torsions:
REMARK  status: ('A' for Active; 'I' for Inactive)
REMARK    1  A    between atoms: C_2  and  C_3
REMARK    2  A    between atoms: C_14  and  C_15
REMARK                            x       y       z     vdW  Elec       q    Type
REMARK                         _______ _______ _______ _____ _____    ______ ____
ROOT
ATOM      1  O   UNL     1       2.160   3.584  16.518  0.00  0.00    +0.000 OA
ATOM      2  C   UNL     1       3.028   3.979  17.295  0.00  0.00    +0.000 C 
ATOM      3  N   UNL     1       2.852   4.043  18.674  0.00  0.00    +0.000 N 
ATOM      4  C   UNL     1       1.684   3.405  19.285  0.00  0.00    +0.000 C 
ATOM      5  C   UNL     1       0.991   4.296  20.324  0.00  0.00    +0.000 C 
ATOM      6  O   UNL     1       1.899   4.961  21.220  0.00  0.00    +0.000 OA
ATOM      7  C   UNL     1       2.917   5.714  20.525  0.00  0.00    +0.000 C 
ATOM      8  C   UNL     1       3.718   4.731  19.645  0.00  0.00    +0.000 C 
ENDROOT
BRANCH   2   9
ATOM      9  C   UNL     1       4.327   4.399  16.704  0.00  0.00    +0.000 A 
ATOM     10  C   UNL     1       5.228   3.433  16.248  0.00  0.00    +0.000 A 
ATOM     11  C   UNL     1       6.419   3.841  15.640  0.00  0.00    +0.000 A 
ATOM     12  N   UNL     1       6.722   5.182  15.472  0.00  0.00    +0.000 N 
ATOM     13  O   UNL     1       7.778   5.543  14.873  0.00  0.00    +0.000 OA
ATOM     14  C   UNL     1       5.842   6.124  15.972  0.00  0.00    +0.000 A 
ATOM     15  C   UNL     1       4.671   5.750  16.625  0.00  0.00    +0.000 A 
ENDBRANCH   2   9
BRANCH   7  16
ATOM     16  C   UNL     1       2.358   6.944  19.811  0.00  0.00    +0.000 A 
ATOM     17  C   UNL     1       1.610   7.884  20.538  0.00  0.00    +0.000 A 
ATOM     18  C   UNL     1       1.045   8.995  19.908  0.00  0.00    +0.000 A 
ATOM     19  C   UNL     1       1.241   9.199  18.547  0.00  0.00    +0.000 A 
ATOM     20  C   UNL     1       2.021   8.309  17.817  0.00  0.00    +0.000 A 
ATOM     21  C   UNL     1       2.588   7.201  18.452  0.00  0.00    +0.000 A 
ENDBRANCH   7  16
TORSDOF 2
ENDMDL
MODEL 2
REMARK VINA RESULT:      -7.5      0.067      1.052
REMARK  Name = 
REMARK  2 active torsions:
REMARK  status: ('A' for Active; 'I' for Inactive)
REMARK    1  A    between atoms: C_2  and  C_3
REMARK    2  A    between atoms: C_14  and  C_15
REMARK                            x       y       z     vdW  Elec       q    Type
REMARK                         _______ _______ _______ _____ _____    ______ ____
ROOT
ATOM      1  O   UNL     1       2.158   3.565  16.520  0.00  0.00    +0.000 OA
ATOM      2  C   UNL     1       3.026   3.957  17.297  0.00  0.00    +0.000 C 
ATOM      3  N   UNL     1       2.855   4.006  18.677  0.00  0.00    +0.000 N 
ATOM      4  C   UNL     1       1.694   3.355  19.286  0.00  0.00    +0.000 C 
ATOM      5  C   UNL     1       0.999   4.231  20.338  0.00  0.00    +0.000 C 
ATOM      6  O   UNL     1       1.907   4.892  21.237  0.00  0.00    +0.000 OA
ATOM      7  C   UNL     1       2.918   5.658  20.546  0.00  0.00    +0.000 C 
ATOM      8  C   UNL     1       3.721   4.689  19.653  0.00  0.00    +0.000 C 
ENDROOT
BRANCH   2   9
ATOM      9  C   UNL     1       4.321   4.391  16.706  0.00  0.00    +0.000 A 
ATOM     10  C   UNL     1       5.235   3.434  16.257  0.00  0.00    +0.000 A 
ATOM     11  C   UNL     1       6.421   3.854  15.649  0.00  0.00    +0.000 A 
ATOM     12  N   UNL     1       6.708   5.198  15.473  0.00  0.00    +0.000 N 
ATOM     13  O   UNL     1       7.759   5.568  14.873  0.00  0.00    +0.000 OA
ATOM     14  C   UNL     1       5.815   6.131  15.967  0.00  0.00    +0.000 A 
ATOM     15  C   UNL     1       4.647   5.745  16.619  0.00  0.00    +0.000 A 
ENDBRANCH   2   9
BRANCH   7  16
ATOM     16  C   UNL     1       2.349   6.892  19.847  0.00  0.00    +0.000 A 
ATOM     17  C   UNL     1       2.586   7.081  18.476  0.00  0.00    +0.000 A 
ATOM     18  C   UNL     1       2.121   8.221  17.817  0.00  0.00    +0.000 A 
ATOM     19  C   UNL     1       1.388   9.178  18.511  0.00  0.00    +0.000 A 
ATOM     20  C   UNL     1       1.097   8.987  19.857  0.00  0.00    +0.000 A 
ATOM     21  C   UNL     1       1.560   7.843  20.512  0.00  0.00    +0.000 A 
ENDBRANCH   7  16
TORSDOF 2
ENDMDL
MODEL 3
REMARK VINA RESULT:      -7.4      0.113      1.051
REMARK  Name = 
REMARK  2 active torsions:
REMARK  status: ('A' for Active; 'I' for Inactive)
REMARK    1  A    between atoms: C_2  and  C_3
REMARK    2  A    between atoms: C_14  and  C_15
REMARK                            x       y       z     vdW  Elec       q    Type
REMARK                         _______ _______ _______ _____ _____    ______ ____
ROOT
ATOM      1  O   UNL     1       2.032   3.553  16.591  0.00  0.00    +0.000 OA
ATOM      2  C   UNL     1       2.936   3.966  17.314  0.00  0.00    +0.000 C 
ATOM      3  N   UNL     1       2.832   4.055  18.698  0.00  0.00    +0.000 N 
ATOM      4  C   UNL     1       1.702   3.423  19.381  0.00  0.00    +0.000 C 
ATOM      5  C   UNL     1       1.058   4.330  20.439  0.00  0.00    +0.000 C 
ATOM      6  O   UNL     1       2.008   5.015  21.274  0.00  0.00    +0.000 OA
ATOM      7  C   UNL     1       2.984   5.760  20.513  0.00  0.00    +0.000 C 
ATOM      8  C   UNL     1       3.743   4.765  19.611  0.00  0.00    +0.000 C 
ENDROOT
BRANCH   2   9
ATOM      9  C   UNL     1       4.201   4.382  16.648  0.00  0.00    +0.000 A 
ATOM     10  C   UNL     1       4.522   5.739  16.554  0.00  0.00    +0.000 A 
ATOM     11  C   UNL     1       5.740   6.115  15.982  0.00  0.00    +0.000 A 
ATOM     12  N   UNL     1       6.641   5.173  15.513  0.00  0.00    +0.000 N 
ATOM     13  O   UNL     1       7.765   5.519  15.045  0.00  0.00    +0.000 OA
ATOM     14  C   UNL     1       6.286   3.837  15.570  0.00  0.00    +0.000 A 
ATOM     15  C   UNL     1       5.060   3.433  16.092  0.00  0.00    +0.000 A 
ENDBRANCH   2   9
BRANCH   7  16
ATOM     16  C   UNL     1       2.382   6.974  19.808  0.00  0.00    +0.000 A 
ATOM     17  C   UNL     1       1.609   7.888  20.543  0.00  0.00    +0.000 A 
ATOM     18  C   UNL     1       1.005   8.982  19.921  0.00  0.00    +0.000 A 
ATOM     19  C   UNL     1       1.185   9.197  18.559  0.00  0.00    +0.000 A 
ATOM     20  C   UNL     1       1.988   8.334  17.821  0.00  0.00    +0.000 A 
ATOM     21  C   UNL     1       2.594   7.243  18.447  0.00  0.00    +0.000 A 
ENDBRANCH   7  16
TORSDOF 2
ENDMDL
MODEL 4
REMARK VINA RESULT:      -7.3      0.120      1.486
REMARK  Name = 
REMARK  2 active torsions:
REMARK  status: ('A' for Active; 'I' for Inactive)
REMARK    1  A    between atoms: C_2  and  C_3
REMARK    2  A    between atoms: C_14  and  C_15
REMARK                            x       y       z     vdW  Elec       q    Type
REMARK                         _______ _______ _______ _____ _____    ______ ____
ROOT
ATOM      1  O   UNL     1       2.038   3.525  16.592  0.00  0.00    +0.000 OA
ATOM      2  C   UNL     1       2.941   3.938  17.318  0.00  0.00    +0.000 C 
ATOM      3  N   UNL     1       2.838   4.014  18.703  0.00  0.00    +0.000 N 
ATOM      4  C   UNL     1       1.713   3.368  19.382  0.00  0.00    +0.000 C 
ATOM      5  C   UNL     1       1.065   4.261  20.449  0.00  0.00    +0.000 C 
ATOM      6  O   UNL     1       2.012   4.945  21.289  0.00  0.00    +0.000 OA
ATOM      7  C   UNL     1       2.982   5.703  20.533  0.00  0.00    +0.000 C 
ATOM      8  C   UNL     1       3.746   4.721  19.621  0.00  0.00    +0.000 C 
ENDROOT
BRANCH   2   9
ATOM      9  C   UNL     1       4.202   4.368  16.654  0.00  0.00    +0.000 A 
ATOM     10  C   UNL     1       4.506   5.729  16.557  0.00  0.00    +0.000 A 
ATOM     11  C   UNL     1       5.721   6.118  15.986  0.00  0.00    +0.000 A 
ATOM     12  N   UNL     1       6.635   5.186  15.523  0.00  0.00    +0.000 N 
ATOM     13  O   UNL     1       7.755   5.546  15.057  0.00  0.00    +0.000 OA
ATOM     14  C   UNL     1       6.296   3.847  15.583  0.00  0.00    +0.000 A 
ATOM     15  C   UNL     1       5.074   3.428  16.103  0.00  0.00    +0.000 A 
ENDBRANCH   2   9
BRANCH   7  16
ATOM     16  C   UNL     1       2.370   6.920  19.839  0.00  0.00    +0.000 A 
ATOM     17  C   UNL     1       2.582   7.111  18.464  0.00  0.00    +0.000 A 
ATOM     18  C   UNL     1       2.077   8.236  17.809  0.00  0.00    +0.000 A 
ATOM     19  C   UNL     1       1.330   9.175  18.511  0.00  0.00    +0.000 A 
ATOM     20  C   UNL     1       1.064   8.981  19.862  0.00  0.00    +0.000 A 
ATOM     21  C   UNL     1       1.566   7.852  20.513  0.00  0.00    +0.000 A 
ENDBRANCH   7  16
TORSDOF 2
ENDMDL
MODEL 5
REMARK VINA RESULT:      -7.2      2.212      5.537
REMARK  Name = 
REMARK  2 active torsions:
REMARK  status: ('A' for Active; 'I' for Inactive)
REMARK    1  A    between atoms: C_2  and  C_3
REMARK    2  A    between atoms: C_14  and  C_15
REMARK                            x       y       z     vdW  Elec       q    Type
REMARK                         _______ _______ _______ _____ _____    ______ ____
ROOT
ATOM      1  O   UNL     1       2.579   5.086  21.401  0.00  0.00    +0.000 OA
ATOM      2  C   UNL     1       2.248   5.298  20.236  0.00  0.00    +0.000 C 
ATOM      3  N   UNL     1       2.068   4.290  19.293  0.00  0.00    +0.000 N 
ATOM      4  C   UNL     1       2.036   2.892  19.726  0.00  0.00    +0.000 C 
ATOM      5  C   UNL     1       2.883   1.970  18.838  0.00  0.00    +0.000 C 
ATOM      6  O   UNL     1       2.720   2.208  17.429  0.00  0.00    +0.000 OA
ATOM      7  C   UNL     1       2.946   3.588  17.066  0.00  0.00    +0.000 C 
ATOM      8  C   UNL     1       1.929   4.455  17.837  0.00  0.00    +0.000 C 
ENDROOT
BRANCH   2   9
ATOM      9  C   UNL     1       2.029   6.716  19.840  0.00  0.00    +0.000 A 
ATOM     10  C   UNL     1       2.476   7.165  18.594  0.00  0.00    +0.000 A 
ATOM     11  C   UNL     1       2.212   8.482  18.208  0.00  0.00    +0.000 A 
ATOM     12  N   UNL     1       1.509   9.350  19.028  0.00  0.00    +0.000 N 
ATOM     13  O   UNL     1       1.227  10.524  18.648  0.00  0.00    +0.000 OA
ATOM     14  C   UNL     1       1.117   8.903  20.276  0.00  0.00    +0.000 A 
ATOM     15  C   UNL     1       1.406   7.611  20.710  0.00  0.00    +0.000 A 
ENDBRANCH   2   9
BRANCH   7  16
ATOM     16  C   UNL     1       4.411   4.001  17.200  0.00  0.00    +0.000 A 
ATOM     17  C   UNL     1       5.242   3.979  16.068  0.00  0.00    +0.000 A 
ATOM     18  C   UNL     1       6.596   4.305  16.164  0.00  0.00    +0.000 A 
ATOM     19  C   UNL     1       7.137   4.685  17.387  0.00  0.00    +0.000 A 
ATOM     20  C   UNL     1       6.322   4.764  18.511  0.00  0.00    +0.000 A 
ATOM     21  C   UNL     1       4.967   4.441  18.411  0.00  0.00    +0.000 A 
ENDBRANCH   7  16
TORSDOF 2
ENDMDL
MODEL 6
REMARK VINA RESULT:      -7.0      2.224      5.586
REMARK  Name = 
REMARK  2 active torsions:
REMARK  status: ('A' for Active; 'I' for Inactive)
REMARK    1  A    between atoms: C_2  and  C_3
REMARK    2  A    between atoms: C_14  and  C_15
REMARK                            x       y       z     vdW  Elec       q    Type
REMARK                         _______ _______ _______ _____ _____    ______ ____
ROOT
ATOM      1  O   UNL     1       2.578   4.940  21.425  0.00  0.00    +0.000 OA
ATOM      2  C   UNL     1       2.234   5.155  20.265  0.00  0.00    +0.000 C 
ATOM      3  N   UNL     1       2.084   4.155  19.310  0.00  0.00    +0.000 N 
ATOM      4  C   UNL     1       2.102   2.750  19.725  0.00  0.00    +0.000 C 
ATOM      5  C   UNL     1       2.977   1.870  18.821  0.00  0.00    +0.000 C 
ATOM      6  O   UNL     1       2.798   2.121  17.416  0.00  0.00    +0.000 OA
ATOM      7  C   UNL     1       2.975   3.512  17.070  0.00  0.00    +0.000 C 
ATOM      8  C   UNL     1       1.932   4.333  17.857  0.00  0.00    +0.000 C 
ENDROOT
BRANCH   2   9
ATOM      9  C   UNL     1       1.964   6.570  19.888  0.00  0.00    +0.000 A 
ATOM     10  C   UNL     1       1.300   7.412  20.784  0.00  0.00    +0.000 A 
ATOM     11  C   UNL     1       1.105   8.754  20.445  0.00  0.00    +0.000 A 
ATOM     12  N   UNL     1       1.564   9.270  19.244  0.00  0.00    +0.000 N 
ATOM     13  O   UNL     1       1.431  10.498  18.968  0.00  0.00    +0.000 OA
ATOM     14  C   UNL     1       2.176   8.411  18.349  0.00  0.00    +0.000 A 
ATOM     15  C   UNL     1       2.343   7.060  18.637  0.00  0.00    +0.000 A 
ENDBRANCH   2   9
BRANCH   7  16
ATOM     16  C   UNL     1       4.426   3.974  17.202  0.00  0.00    +0.000 A 
ATOM     17  C   UNL     1       5.271   3.927  16.082  0.00  0.00    +0.000 A 
ATOM     18  C   UNL     1       6.614   4.297  16.180  0.00  0.00    +0.000 A 
ATOM     19  C   UNL     1       7.127   4.746  17.391  0.00  0.00    +0.000 A 
ATOM     20  C   UNL     1       6.296   4.851  18.501  0.00  0.00    +0.000 A 
ATOM     21  C   UNL     1       4.952   4.484  18.399  0.00  0.00    +0.000 A 
ENDBRANCH   7  16
TORSDOF 2
ENDMDL
MODEL 7
REMARK VINA RESULT:      -7.0      2.224      5.444
REMARK  Name = 
REMARK  2 active torsions:
REMARK  status: ('A' for Active; 'I' for Inactive)
REMARK    1  A    between atoms: C_2  and  C_3
REMARK    2  A    between atoms: C_14  and  C_15
REMARK                            x       y       z     vdW  Elec       q    Type
REMARK                         _______ _______ _______ _____ _____    ______ ____
ROOT
ATOM      1  O   UNL     1       2.580   4.930  21.450  0.00  0.00    +0.000 OA
ATOM      2  C   UNL     1       2.249   5.173  20.292  0.00  0.00    +0.000 C 
ATOM      3  N   UNL     1       2.075   4.191  19.320  0.00  0.00    +0.000 N 
ATOM      4  C   UNL     1       2.051   2.781  19.713  0.00  0.00    +0.000 C 
ATOM      5  C   UNL     1       2.905   1.890  18.801  0.00  0.00    +0.000 C 
ATOM      6  O   UNL     1       2.741   2.167  17.398  0.00  0.00    +0.000 OA
ATOM      7  C   UNL     1       2.959   3.558  17.075  0.00  0.00    +0.000 C 
ATOM      8  C   UNL     1       1.936   4.396  17.870  0.00  0.00    +0.000 C 
ENDROOT
BRANCH   2   9
ATOM      9  C   UNL     1       2.022   6.600  19.936  0.00  0.00    +0.000 A 
ATOM     10  C   UNL     1       2.478   7.091  18.709  0.00  0.00    +0.000 A 
ATOM     11  C   UNL     1       2.207   8.416  18.360  0.00  0.00    +0.000 A 
ATOM     12  N   UNL     1       1.487   9.253  19.198  0.00  0.00    +0.000 N 
ATOM     13  O   UNL     1       1.199  10.436  18.850  0.00  0.00    +0.000 OA
ATOM     14  C   UNL     1       1.085   8.765  20.428  0.00  0.00    +0.000 A 
ATOM     15  C   UNL     1       1.380   7.464  20.825  0.00  0.00    +0.000 A 
ENDBRANCH   2   9
BRANCH   7  16
ATOM     16  C   UNL     1       4.422   3.976  17.222  0.00  0.00    +0.000 A 
ATOM     17  C   UNL     1       4.903   4.380  18.478  0.00  0.00    +0.000 A 
ATOM     18  C   UNL     1       6.221   4.813  18.637  0.00  0.00    +0.000 A 
ATOM     19  C   UNL     1       7.087   4.824  17.550  0.00  0.00    +0.000 A 
ATOM     20  C   UNL     1       6.648   4.380  16.308  0.00  0.00    +0.000 A 
ATOM     21  C   UNL     1       5.330   3.943  16.153  0.00  0.00    +0.000 A 
ENDBRANCH   7  16
TORSDOF 2
ENDMDL
MODEL 8
REMARK VINA RESULT:      -6.9      2.381      6.189
REMARK  Name = 
REMARK  2 active torsions:
REMARK  status: ('A' for Active; 'I' for Inactive)
REMARK    1  A    between atoms: C_2  and  C_3
REMARK    2  A    between atoms: C_14  and  C_15
REMARK                            x       y       z     vdW  Elec       q    Type
REMARK                         _______ _______ _______ _____ _____    ______ ____
ROOT
ATOM      1  O   UNL     1       3.357   7.326  17.468  0.00  0.00    +0.000 OA
ATOM      2  C   UNL     1       3.877   6.294  17.888  0.00  0.00    +0.000 C 
ATOM      3  N   UNL     1       5.246   6.153  18.095  0.00  0.00    +0.000 N 
ATOM      4  C   UNL     1       6.111   7.333  18.042  0.00  0.00    +0.000 C 
ATOM      5  C   UNL     1       7.389   7.103  17.224  0.00  0.00    +0.000 C 
ATOM      6  O   UNL     1       8.035   5.847  17.495  0.00  0.00    +0.000 OA
ATOM      7  C   UNL     1       7.145   4.718  17.348  0.00  0.00    +0.000 C 
ATOM      8  C   UNL     1       5.979   4.901  18.342  0.00  0.00    +0.000 C 
ENDROOT
BRANCH   2   9
ATOM      9  C   UNL     1       2.971   5.152  18.189  0.00  0.00    +0.000 A 
ATOM     10  C   UNL     1       2.254   5.132  19.388  0.00  0.00    +0.000 A 
ATOM     11  C   UNL     1       1.362   4.084  19.634  0.00  0.00    +0.000 A 
ATOM     12  N   UNL     1       1.165   3.070  18.711  0.00  0.00    +0.000 N 
ATOM     13  O   UNL     1       0.316   2.154  18.917  0.00  0.00    +0.000 OA
ATOM     14  C   UNL     1       1.919   3.080  17.551  0.00  0.00    +0.000 A 
ATOM     15  C   UNL     1       2.850   4.084  17.299  0.00  0.00    +0.000 A 
ENDBRANCH   2   9
BRANCH   7  16
ATOM     16  C   UNL     1       6.749   4.463  15.894  0.00  0.00    +0.000 A 
ATOM     17  C   UNL     1       5.599   3.708  15.613  0.00  0.00    +0.000 A 
ATOM     18  C   UNL     1       5.235   3.417  14.297  0.00  0.00    +0.000 A 
ATOM     19  C   UNL     1       5.998   3.897  13.240  0.00  0.00    +0.000 A 
ATOM     20  C   UNL     1       7.112   4.690  13.492  0.00  0.00    +0.000 A 
ATOM     21  C   UNL     1       7.472   4.983  14.810  0.00  0.00    +0.000 A 
ENDBRANCH   7  16
TORSDOF 2
ENDMDL
MODEL 9
REMARK VINA RESULT:      -6.9      2.372      6.223
REMARK  Name = 
REMARK  2 active torsions:
REMARK  status: ('A' for Active; 'I' for Inactive)
REMARK    1  A    between atoms: C_2  and  C_3
REMARK    2  A    between atoms: C_14  and  C_15
REMARK                            x       y       z     vdW  Elec       q    Type
REMARK                         _______ _______ _______ _____ _____    ______ ____
ROOT
ATOM      1  O   UNL     1       3.305   7.331  17.460  0.00  0.00    +0.000 OA
ATOM      2  C   UNL     1       3.831   6.312  17.903  0.00  0.00    +0.000 C 
ATOM      3  N   UNL     1       5.201   6.184  18.113  0.00  0.00    +0.000 N 
ATOM      4  C   UNL     1       6.059   7.368  18.033  0.00  0.00    +0.000 C 
ATOM      5  C   UNL     1       7.338   7.127  17.219  0.00  0.00    +0.000 C 
ATOM      6  O   UNL     1       7.992   5.881  17.518  0.00  0.00    +0.000 OA
ATOM      7  C   UNL     1       7.109   4.745  17.398  0.00  0.00    +0.000 C 
ATOM      8  C   UNL     1       5.942   4.942  18.388  0.00  0.00    +0.000 C 
ENDROOT
BRANCH   2   9
ATOM      9  C   UNL     1       2.933   5.171  18.231  0.00  0.00    +0.000 A 
ATOM     10  C   UNL     1       2.230   5.166  19.439  0.00  0.00    +0.000 A 
ATOM     11  C   UNL     1       1.344   4.120  19.709  0.00  0.00    +0.000 A 
ATOM     12  N   UNL     1       1.140   3.092  18.803  0.00  0.00    +0.000 N 
ATOM     13  O   UNL     1       0.296   2.177  19.032  0.00  0.00    +0.000 OA
ATOM     14  C   UNL     1       1.880   3.088  17.635  0.00  0.00    +0.000 A 
ATOM     15  C   UNL     1       2.805   4.091  17.357  0.00  0.00    +0.000 A 
ENDBRANCH   2   9
BRANCH   7  16
ATOM     16  C   UNL     1       6.714   4.454  15.950  0.00  0.00    +0.000 A 
ATOM     17  C   UNL     1       7.506   4.954  14.904  0.00  0.00    +0.000 A 
ATOM     18  C   UNL     1       7.147   4.747  13.570  0.00  0.00    +0.000 A 
ATOM     19  C   UNL     1       6.008   4.014  13.260  0.00  0.00    +0.000 A 
ATOM     20  C   UNL     1       5.237   3.465  14.279  0.00  0.00    +0.000 A 
ATOM     21  C   UNL     1       5.601   3.670  15.612  0.00  0.00    +0.000 A 
ENDBRANCH   7  16
TORSDOF 2
ENDMDL
