MODEL 1
REMARK VINA RESULT:      -7.4      0.000      0.000
REMARK  Name = 
REMARK  6 active torsions:
REMARK  status: ('A' for Active; 'I' for Inactive)
REMARK    1  A    between atoms: C_1  and  C_2
REMARK    2  A    between atoms: C_7  and  C_8
REMARK    3  A    between atoms: N_10  and  C_11
REMARK    4  A    between atoms: C_11  and  C_12
REMARK    5  A    between atoms: C_11  and  C_13
REMARK    6  A    between atoms: C_17  and  C_18
REMARK                            x       y       z     vdW  Elec       q    Type
REMARK                         _______ _______ _______ _____ _____    ______ ____
ROOT
ATOM      1  C   UNL     1       2.613   6.594  18.980  0.00  0.00    +0.000 C 
ATOM      2  C   UNL     1       1.906   7.757  19.619  0.00  0.00    +0.000 A 
ATOM      3  N   UNL     1       1.374   7.636  20.797  0.00  0.00    +0.000 NA
ATOM      4  C   UNL     1       0.681   8.744  21.344  0.00  0.00    +0.000 A 
ATOM      5  C   UNL     1       0.149   8.603  22.630  0.00  0.00    +0.000 A 
ATOM      6  C   UNL     1      -0.571   9.646  23.226  0.00  0.00    +0.000 A 
ATOM      7  C   UNL     1      -0.810  10.823  22.508  0.00  0.00    +0.000 A 
ATOM      8  C   UNL     1      -0.300  10.964  21.210  0.00  0.00    +0.000 A 
ATOM      9  C   UNL     1       0.500   9.964  20.660  0.00  0.00    +0.000 A 
ATOM     10  N   UNL     1       1.187  10.090  19.430  0.00  0.00    +0.000 N 
ATOM     11  C   UNL     1       1.461  11.130  18.541  0.00  0.00    +0.000 A 
ATOM     12  N   UNL     1       2.125  10.606  17.515  0.00  0.00    +0.000 NA
ATOM     13  N   UNL     1       2.358   9.276  17.745  0.00  0.00    +0.000 NA
ATOM     14  C   UNL     1       1.836   9.001  18.910  0.00  0.00    +0.000 A 
ENDROOT
BRANCH  11  15
ATOM     15  C   UNL     1       1.195  12.571  18.680  0.00  0.00    +0.000 A 
ATOM     16  C   UNL     1       2.239  13.459  19.003  0.00  0.00    +0.000 A 
ATOM     17  C   UNL     1       2.002  14.820  19.215  0.00  0.00    +0.000 A 
ATOM     18  C   UNL     1       0.736  15.347  18.998  0.00  0.00    +0.000 A 
ATOM     19  C   UNL     1      -0.294  14.510  18.581  0.00  0.00    +0.000 A 
ATOM     20  C   UNL     1      -0.076  13.131  18.438  0.00  0.00    +0.000 A 
ATOM     21 CL   UNL     1      -1.455  12.187  17.981  0.00  0.00    +0.000 Cl
ENDBRANCH  11  15
BRANCH   7  22
ATOM     22  C   UNL     1      -1.520  11.988  23.100  0.00  0.00    +0.000 C 
ATOM     23  O   UNL     1      -0.904  13.025  23.309  0.00  0.00    +0.000 OA
ATOM     24  N   UNL     1      -2.863  11.828  23.359  0.00  0.00    +0.000 N 
ATOM     25  H   UNL     1      -3.343  11.029  22.963  0.00  0.00    +0.000 HD
BRANCH  24  26
ATOM     26  C   UNL     1      -3.680  12.935  23.840  0.00  0.00    +0.000 C 
ATOM     27  C   UNL     1      -4.412  13.615  22.682  0.00  0.00    +0.000 C 
ATOM     28  C   UNL     1      -4.671  12.436  24.886  0.00  0.00    +0.000 C 
ENDBRANCH  24  26
ENDBRANCH   7  22
TORSDOF 3
ENDMDL
MODEL 2
REMARK VINA RESULT:      -7.2      3.422      5.134
REMARK  Name = 
REMARK  6 active torsions:
REMARK  status: ('A' for Active; 'I' for Inactive)
REMARK    1  A    between atoms: C_1  and  C_2
REMARK    2  A    between atoms: C_7  and  C_8
REMARK    3  A    between atoms: N_10  and  C_11
REMARK    4  A    between atoms: C_11  and  C_12
REMARK    5  A    between atoms: C_11  and  C_13
REMARK    6  A    between atoms: C_17  and  C_18
REMARK                            x       y       z     vdW  Elec       q    Type
REMARK                         _______ _______ _______ _____ _____    ______ ____
ROOT
ATOM      1  C   UNL     1       1.896   9.401  18.321  0.00  0.00    +0.000 C 
ATOM      2  C   UNL     1       0.528   9.995  18.512  0.00  0.00    +0.000 A 
ATOM      3  N   UNL     1      -0.423   9.740  17.665  0.00  0.00    +0.000 NA
ATOM      4  C   UNL     1      -1.685  10.353  17.860  0.00  0.00    +0.000 A 
ATOM      5  C   UNL     1      -2.704  10.036  16.957  0.00  0.00    +0.000 A 
ATOM      6  C   UNL     1      -3.971  10.622  17.070  0.00  0.00    +0.000 A 
ATOM      7  C   UNL     1      -4.205  11.580  18.063  0.00  0.00    +0.000 A 
ATOM      8  C   UNL     1      -3.182  11.922  18.958  0.00  0.00    +0.000 A 
ATOM      9  C   UNL     1      -1.956  11.262  18.904  0.00  0.00    +0.000 A 
ATOM     10  N   UNL     1      -0.929  11.425  19.863  0.00  0.00    +0.000 N 
ATOM     11  C   UNL     1      -0.819  12.029  21.116  0.00  0.00    +0.000 A 
ATOM     12  N   UNL     1       0.441  11.886  21.512  0.00  0.00    +0.000 NA
ATOM     13  N   UNL     1       1.134  11.143  20.595  0.00  0.00    +0.000 NA
ATOM     14  C   UNL     1       0.290  10.838  19.647  0.00  0.00    +0.000 A 
ENDROOT
BRANCH  11  15
ATOM     15  C   UNL     1      -1.866  12.638  21.954  0.00  0.00    +0.000 A 
ATOM     16  C   UNL     1      -2.416  11.924  23.035  0.00  0.00    +0.000 A 
ATOM     17  C   UNL     1      -3.462  12.447  23.801  0.00  0.00    +0.000 A 
ATOM     18  C   UNL     1      -3.908  13.742  23.575  0.00  0.00    +0.000 A 
ATOM     19  C   UNL     1      -3.314  14.509  22.577  0.00  0.00    +0.000 A 
ATOM     20  C   UNL     1      -2.314  13.961  21.759  0.00  0.00    +0.000 A 
ATOM     21 CL   UNL     1      -1.705  14.993  20.509  0.00  0.00    +0.000 Cl
ENDBRANCH  11  15
BRANCH   7  22
ATOM     22  C   UNL     1      -5.540  12.202  18.272  0.00  0.00    +0.000 C 
ATOM     23  O   UNL     1      -6.544  11.607  17.904  0.00  0.00    +0.000 OA
ATOM     24  N   UNL     1      -5.561  13.427  18.902  0.00  0.00    +0.000 N 
ATOM     25  H   UNL     1      -4.721  13.749  19.365  0.00  0.00    +0.000 HD
BRANCH  24  26
ATOM     26  C   UNL     1      -6.817  14.078  19.251  0.00  0.00    +0.000 C 
ATOM     27  C   UNL     1      -6.894  14.342  20.755  0.00  0.00    +0.000 C 
ATOM     28  C   UNL     1      -6.965  15.379  18.467  0.00  0.00    +0.000 C 
ENDBRANCH  24  26
ENDBRANCH   7  22
TORSDOF 3
ENDMDL
MODEL 3
REMARK VINA RESULT:      -7.0      3.239      4.879
REMARK  Name = 
REMARK  6 active torsions:
REMARK  status: ('A' for Active; 'I' for Inactive)
REMARK    1  A    between atoms: C_1  and  C_2
REMARK    2  A    between atoms: C_7  and  C_8
REMARK    3  A    between atoms: N_10  and  C_11
REMARK    4  A    between atoms: C_11  and  C_12
REMARK    5  A    between atoms: C_11  and  C_13
REMARK    6  A    between atoms: C_17  and  C_18
REMARK                            x       y       z     vdW  Elec       q    Type
REMARK                         _______ _______ _______ _____ _____    ______ ____
ROOT
ATOM      1  C   UNL     1       1.803   9.450  18.018  0.00  0.00    +0.000 C 
ATOM      2  C   UNL     1       0.473  10.052  18.377  0.00  0.00    +0.000 A 
ATOM      3  N   UNL     1      -0.571   9.827  17.639  0.00  0.00    +0.000 NA
ATOM      4  C   UNL     1      -1.795  10.447  17.991  0.00  0.00    +0.000 A 
ATOM      5  C   UNL     1      -2.915  10.160  17.203  0.00  0.00    +0.000 A 
ATOM      6  C   UNL     1      -4.153  10.756  17.474  0.00  0.00    +0.000 A 
ATOM      7  C   UNL     1      -4.261  11.692  18.509  0.00  0.00    +0.000 A 
ATOM      8  C   UNL     1      -3.138  12.003  19.288  0.00  0.00    +0.000 A 
ATOM      9  C   UNL     1      -1.934  11.333  19.079  0.00  0.00    +0.000 A 
ATOM     10  N   UNL     1      -0.803  11.464  19.918  0.00  0.00    +0.000 N 
ATOM     11  C   UNL     1      -0.543  12.036  21.163  0.00  0.00    +0.000 A 
ATOM     12  N   UNL     1       0.753  11.872  21.410  0.00  0.00    +0.000 NA
ATOM     13  N   UNL     1       1.327  11.145  20.402  0.00  0.00    +0.000 NA
ATOM     14  C   UNL     1       0.376  10.870  19.550  0.00  0.00    +0.000 A 
ENDROOT
BRANCH  11  15
ATOM     15  C   UNL     1      -1.480  12.635  22.129  0.00  0.00    +0.000 A 
ATOM     16  C   UNL     1      -2.211  11.817  23.011  0.00  0.00    +0.000 A 
ATOM     17  C   UNL     1      -3.162  12.351  23.886  0.00  0.00    +0.000 A 
ATOM     18  C   UNL     1      -3.324  13.727  23.980  0.00  0.00    +0.000 A 
ATOM     19  C   UNL     1      -2.543  14.566  23.191  0.00  0.00    +0.000 A 
ATOM     20  C   UNL     1      -1.640  14.030  22.260  0.00  0.00    +0.000 A 
ATOM     21 CL   UNL     1      -0.778  15.177  21.289  0.00  0.00    +0.000 Cl
ENDBRANCH  11  15
BRANCH   7  22
ATOM     22  C   UNL     1      -5.556  12.322  18.883  0.00  0.00    +0.000 C 
ATOM     23  O   UNL     1      -6.232  12.864  18.019  0.00  0.00    +0.000 OA
ATOM     24  N   UNL     1      -5.929  12.232  20.206  0.00  0.00    +0.000 N 
ATOM     25  H   UNL     1      -5.430  11.589  20.808  0.00  0.00    +0.000 HD
BRANCH  24  26
ATOM     26  C   UNL     1      -7.223  12.721  20.663  0.00  0.00    +0.000 C 
ATOM     27  C   UNL     1      -7.917  11.682  21.545  0.00  0.00    +0.000 C 
ATOM     28  C   UNL     1      -7.047  14.036  21.415  0.00  0.00    +0.000 C 
ENDBRANCH  24  26
ENDBRANCH   7  22
TORSDOF 3
ENDMDL
MODEL 4
REMARK VINA RESULT:      -6.8      1.206      1.470
REMARK  Name = 
REMARK  6 active torsions:
REMARK  status: ('A' for Active; 'I' for Inactive)
REMARK    1  A    between atoms: C_1  and  C_2
REMARK    2  A    between atoms: C_7  and  C_8
REMARK    3  A    between atoms: N_10  and  C_11
REMARK    4  A    between atoms: C_11  and  C_12
REMARK    5  A    between atoms: C_11  and  C_13
REMARK    6  A    between atoms: C_17  and  C_18
REMARK                            x       y       z     vdW  Elec       q    Type
REMARK                         _______ _______ _______ _____ _____    ______ ____
ROOT
ATOM      1  C   UNL     1       2.531   6.655  19.150  0.00  0.00    +0.000 C 
ATOM      2  C   UNL     1       1.823   7.843  19.739  0.00  0.00    +0.000 A 
ATOM      3  N   UNL     1       1.255   7.760  20.903  0.00  0.00    +0.000 NA
ATOM      4  C   UNL     1       0.564   8.891  21.402  0.00  0.00    +0.000 A 
ATOM      5  C   UNL     1      -0.008   8.790  22.674  0.00  0.00    +0.000 A 
ATOM      6  C   UNL     1      -0.730   9.858  23.223  0.00  0.00    +0.000 A 
ATOM      7  C   UNL     1      -0.929  11.020  22.469  0.00  0.00    +0.000 A 
ATOM      8  C   UNL     1      -0.379  11.121  21.184  0.00  0.00    +0.000 A 
ATOM      9  C   UNL     1       0.422  10.096  20.683  0.00  0.00    +0.000 A 
ATOM     10  N   UNL     1       1.146  10.181  19.471  0.00  0.00    +0.000 N 
ATOM     11  C   UNL     1       1.462  11.194  18.566  0.00  0.00    +0.000 A 
ATOM     12  N   UNL     1       2.148  10.635  17.573  0.00  0.00    +0.000 NA
ATOM     13  N   UNL     1       2.354   9.309  17.842  0.00  0.00    +0.000 NA
ATOM     14  C   UNL     1       1.793   9.070  18.997  0.00  0.00    +0.000 A 
ENDROOT
BRANCH  11  15
ATOM     15  C   UNL     1       1.214  12.642  18.661  0.00  0.00    +0.000 A 
ATOM     16  C   UNL     1       2.268  13.526  18.963  0.00  0.00    +0.000 A 
ATOM     17  C   UNL     1       2.048  14.896  19.133  0.00  0.00    +0.000 A 
ATOM     18  C   UNL     1       0.790  15.433  18.896  0.00  0.00    +0.000 A 
ATOM     19  C   UNL     1      -0.249  14.597  18.498  0.00  0.00    +0.000 A 
ATOM     20  C   UNL     1      -0.049  13.211  18.397  0.00  0.00    +0.000 A 
ATOM     21 CL   UNL     1      -1.438  12.272  17.961  0.00  0.00    +0.000 Cl
ENDBRANCH  11  15
BRANCH   7  22
ATOM     22  C   UNL     1      -1.638  12.210  23.011  0.00  0.00    +0.000 C 
ATOM     23  O   UNL     1      -2.652  12.052  23.678  0.00  0.00    +0.000 OA
ATOM     24  N   UNL     1      -1.083  13.440  22.737  0.00  0.00    +0.000 N 
ATOM     25  H   UNL     1      -0.140  13.476  22.370  0.00  0.00    +0.000 HD
BRANCH  24  26
ATOM     26  C   UNL     1      -1.634  14.664  23.304  0.00  0.00    +0.000 C 
ATOM     27  C   UNL     1      -0.518  15.612  23.744  0.00  0.00    +0.000 C 
ATOM     28  C   UNL     1      -2.549  15.342  22.289  0.00  0.00    +0.000 C 
ENDBRANCH  24  26
ENDBRANCH   7  22
TORSDOF 3
ENDMDL
MODEL 5
REMARK VINA RESULT:      -6.7      3.661      4.971
REMARK  Name = 
REMARK  6 active torsions:
REMARK  status: ('A' for Active; 'I' for Inactive)
REMARK    1  A    between atoms: C_1  and  C_2
REMARK    2  A    between atoms: C_7  and  C_8
REMARK    3  A    between atoms: N_10  and  C_11
REMARK    4  A    between atoms: C_11  and  C_12
REMARK    5  A    between atoms: C_11  and  C_13
REMARK    6  A    between atoms: C_17  and  C_18
REMARK                            x       y       z     vdW  Elec       q    Type
REMARK                         _______ _______ _______ _____ _____    ______ ____
ROOT
ATOM      1  C   UNL     1       1.994   9.289  17.993  0.00  0.00    +0.000 C 
ATOM      2  C   UNL     1       0.673   9.935  18.308  0.00  0.00    +0.000 A 
ATOM      3  N   UNL     1      -0.401   9.578  17.672  0.00  0.00    +0.000 NA
ATOM      4  C   UNL     1      -1.617  10.241  17.971  0.00  0.00    +0.000 A 
ATOM      5  C   UNL     1      -2.768   9.815  17.301  0.00  0.00    +0.000 A 
ATOM      6  C   UNL     1      -4.001  10.440  17.525  0.00  0.00    +0.000 A 
ATOM      7  C   UNL     1      -4.075  11.540  18.387  0.00  0.00    +0.000 A 
ATOM      8  C   UNL     1      -2.921  11.989  19.045  0.00  0.00    +0.000 A 
ATOM      9  C   UNL     1      -1.718  11.301  18.896  0.00  0.00    +0.000 A 
ATOM     10  N   UNL     1      -0.551  11.583  19.643  0.00  0.00    +0.000 N 
ATOM     11  C   UNL     1      -0.242  12.364  20.757  0.00  0.00    +0.000 A 
ATOM     12  N   UNL     1       1.067  12.254  20.964  0.00  0.00    +0.000 NA
ATOM     13  N   UNL     1       1.604  11.367  20.070  0.00  0.00    +0.000 NA
ATOM     14  C   UNL     1       0.619  10.943  19.326  0.00  0.00    +0.000 A 
ENDROOT
BRANCH  11  15
ATOM     15  C   UNL     1      -1.141  13.114  21.650  0.00  0.00    +0.000 A 
ATOM     16  C   UNL     1      -1.489  14.445  21.353  0.00  0.00    +0.000 A 
ATOM     17  C   UNL     1      -2.280  15.205  22.220  0.00  0.00    +0.000 A 
ATOM     18  C   UNL     1      -2.835  14.618  23.349  0.00  0.00    +0.000 A 
ATOM     19  C   UNL     1      -2.590  13.274  23.615  0.00  0.00    +0.000 A 
ATOM     20  C   UNL     1      -1.737  12.529  22.786  0.00  0.00    +0.000 A 
ATOM     21 CL   UNL     1      -1.457  10.887  23.263  0.00  0.00    +0.000 Cl
ENDBRANCH  11  15
BRANCH   7  22
ATOM     22  C   UNL     1      -5.360  12.215  18.710  0.00  0.00    +0.000 C 
ATOM     23  O   UNL     1      -6.004  11.846  19.683  0.00  0.00    +0.000 OA
ATOM     24  N   UNL     1      -5.739  13.252  17.886  0.00  0.00    +0.000 N 
ATOM     25  H   UNL     1      -5.057  13.635  17.243  0.00  0.00    +0.000 HD
BRANCH  24  26
ATOM     26  C   UNL     1      -6.924  14.051  18.170  0.00  0.00    +0.000 C 
ATOM     27  C   UNL     1      -6.570  15.261  19.036  0.00  0.00    +0.000 C 
ATOM     28  C   UNL     1      -7.577  14.495  16.865  0.00  0.00    +0.000 C 
ENDBRANCH  24  26
ENDBRANCH   7  22
TORSDOF 3
ENDMDL
MODEL 6
REMARK VINA RESULT:      -6.6      1.335      1.654
REMARK  Name = 
REMARK  6 active torsions:
REMARK  status: ('A' for Active; 'I' for Inactive)
REMARK    1  A    between atoms: C_1  and  C_2
REMARK    2  A    between atoms: C_7  and  C_8
REMARK    3  A    between atoms: N_10  and  C_11
REMARK    4  A    between atoms: C_11  and  C_12
REMARK    5  A    between atoms: C_11  and  C_13
REMARK    6  A    between atoms: C_17  and  C_18
REMARK                            x       y       z     vdW  Elec       q    Type
REMARK                         _______ _______ _______ _____ _____    ______ ____
ROOT
ATOM      1  C   UNL     1       2.617   7.649  18.443  0.00  0.00    +0.000 C 
ATOM      2  C   UNL     1       1.865   8.679  19.239  0.00  0.00    +0.000 A 
ATOM      3  N   UNL     1       1.294   8.356  20.360  0.00  0.00    +0.000 NA
ATOM      4  C   UNL     1       0.561   9.347  21.057  0.00  0.00    +0.000 A 
ATOM      5  C   UNL     1      -0.015   8.986  22.280  0.00  0.00    +0.000 A 
ATOM      6  C   UNL     1      -0.775   9.905  23.013  0.00  0.00    +0.000 A 
ATOM      7  C   UNL     1      -1.010  11.183  22.493  0.00  0.00    +0.000 A 
ATOM      8  C   UNL     1      -0.457  11.546  21.257  0.00  0.00    +0.000 A 
ATOM      9  C   UNL     1       0.381  10.662  20.579  0.00  0.00    +0.000 A 
ATOM     10  N   UNL     1       1.109  11.001  19.415  0.00  0.00    +0.000 N 
ATOM     11  C   UNL     1       1.395  12.179  18.723  0.00  0.00    +0.000 A 
ATOM     12  N   UNL     1       2.105  11.843  17.651  0.00  0.00    +0.000 NA
ATOM     13  N   UNL     1       2.355  10.497  17.664  0.00  0.00    +0.000 NA
ATOM     14  C   UNL     1       1.797  10.023  18.746  0.00  0.00    +0.000 A 
ENDROOT
BRANCH  11  15
ATOM     15  C   UNL     1       1.097  13.573  19.091  0.00  0.00    +0.000 A 
ATOM     16  C   UNL     1      -0.000  14.241  18.514  0.00  0.00    +0.000 A 
ATOM     17  C   UNL     1      -0.263  15.587  18.786  0.00  0.00    +0.000 A 
ATOM     18  C   UNL     1       0.497  16.266  19.728  0.00  0.00    +0.000 A 
ATOM     19  C   UNL     1       1.526  15.602  20.389  0.00  0.00    +0.000 A 
ATOM     20  C   UNL     1       1.838  14.272  20.064  0.00  0.00    +0.000 A 
ATOM     21 CL   UNL     1       3.185  13.580  20.906  0.00  0.00    +0.000 Cl
ENDBRANCH  11  15
BRANCH   7  22
ATOM     22  C   UNL     1      -1.764  12.223  23.243  0.00  0.00    +0.000 C 
ATOM     23  O   UNL     1      -1.168  13.200  23.677  0.00  0.00    +0.000 OA
ATOM     24  N   UNL     1      -3.119  12.025  23.384  0.00  0.00    +0.000 N 
ATOM     25  H   UNL     1      -3.568  11.316  22.818  0.00  0.00    +0.000 HD
BRANCH  24  26
ATOM     26  C   UNL     1      -3.971  13.030  24.008  0.00  0.00    +0.000 C 
ATOM     27  C   UNL     1      -4.715  13.846  22.950  0.00  0.00    +0.000 C 
ATOM     28  C   UNL     1      -4.955  12.359  24.962  0.00  0.00    +0.000 C 
ENDBRANCH  24  26
ENDBRANCH   7  22
TORSDOF 3
ENDMDL
MODEL 7
REMARK VINA RESULT:      -6.6      3.368      5.141
REMARK  Name = 
REMARK  6 active torsions:
REMARK  status: ('A' for Active; 'I' for Inactive)
REMARK    1  A    between atoms: C_1  and  C_2
REMARK    2  A    between atoms: C_7  and  C_8
REMARK    3  A    between atoms: N_10  and  C_11
REMARK    4  A    between atoms: C_11  and  C_12
REMARK    5  A    between atoms: C_11  and  C_13
REMARK    6  A    between atoms: C_17  and  C_18
REMARK                            x       y       z     vdW  Elec       q    Type
REMARK                         _______ _______ _______ _____ _____    ______ ____
ROOT
ATOM      1  C   UNL     1      -3.066   9.911  14.553  0.00  0.00    +0.000 C 
ATOM      2  C   UNL     1      -3.277  10.479  15.928  0.00  0.00    +0.000 A 
ATOM      3  N   UNL     1      -4.391  11.072  16.231  0.00  0.00    +0.000 NA
ATOM      4  C   UNL     1      -4.533  11.629  17.525  0.00  0.00    +0.000 A 
ATOM      5  C   UNL     1      -5.755  12.230  17.841  0.00  0.00    +0.000 A 
ATOM      6  C   UNL     1      -5.960  12.826  19.093  0.00  0.00    +0.000 A 
ATOM      7  C   UNL     1      -4.911  12.870  20.018  0.00  0.00    +0.000 A 
ATOM      8  C   UNL     1      -3.675  12.292  19.701  0.00  0.00    +0.000 A 
ATOM      9  C   UNL     1      -3.509  11.613  18.495  0.00  0.00    +0.000 A 
ATOM     10  N   UNL     1      -2.355  10.864  18.164  0.00  0.00    +0.000 N 
ATOM     11  C   UNL     1      -1.227  10.413  18.849  0.00  0.00    +0.000 A 
ATOM     12  N   UNL     1      -0.456   9.784  17.966  0.00  0.00    +0.000 NA
ATOM     13  N   UNL     1      -1.083   9.744  16.750  0.00  0.00    +0.000 NA
ATOM     14  C   UNL     1      -2.231  10.348  16.901  0.00  0.00    +0.000 A 
ENDROOT
BRANCH  11  15
ATOM     15  C   UNL     1      -0.915  10.486  20.286  0.00  0.00    +0.000 A 
ATOM     16  C   UNL     1      -0.829   9.310  21.055  0.00  0.00    +0.000 A 
ATOM     17  C   UNL     1      -0.610   9.352  22.435  0.00  0.00    +0.000 A 
ATOM     18  C   UNL     1      -0.359  10.566  23.061  0.00  0.00    +0.000 A 
ATOM     19  C   UNL     1      -0.338  11.736  22.308  0.00  0.00    +0.000 A 
ATOM     20  C   UNL     1      -0.630  11.704  20.936  0.00  0.00    +0.000 A 
ATOM     21 CL   UNL     1      -0.642  13.235  20.125  0.00  0.00    +0.000 Cl
ENDBRANCH  11  15
BRANCH   7  22
ATOM     22  C   UNL     1      -5.076  13.440  21.383  0.00  0.00    +0.000 C 
ATOM     23  O   UNL     1      -5.002  14.651  21.541  0.00  0.00    +0.000 OA
ATOM     24  N   UNL     1      -5.331  12.547  22.400  0.00  0.00    +0.000 N 
ATOM     25  H   UNL     1      -5.592  11.598  22.160  0.00  0.00    +0.000 HD
BRANCH  24  26
ATOM     26  C   UNL     1      -5.613  13.002  23.755  0.00  0.00    +0.000 C 
ATOM     27  C   UNL     1      -7.053  12.671  24.152  0.00  0.00    +0.000 C 
ATOM     28  C   UNL     1      -4.626  12.371  24.733  0.00  0.00    +0.000 C 
ENDBRANCH  24  26
ENDBRANCH   7  22
TORSDOF 3
ENDMDL
MODEL 8
REMARK VINA RESULT:      -6.6      4.047      7.660
REMARK  Name = 
REMARK  6 active torsions:
REMARK  status: ('A' for Active; 'I' for Inactive)
REMARK    1  A    between atoms: C_1  and  C_2
REMARK    2  A    between atoms: C_7  and  C_8
REMARK    3  A    between atoms: N_10  and  C_11
REMARK    4  A    between atoms: C_11  and  C_12
REMARK    5  A    between atoms: C_11  and  C_13
REMARK    6  A    between atoms: C_17  and  C_18
REMARK                            x       y       z     vdW  Elec       q    Type
REMARK                         _______ _______ _______ _____ _____    ______ ____
ROOT
ATOM      1  C   UNL     1       6.304   5.491  14.839  0.00  0.00    +0.000 C 
ATOM      2  C   UNL     1       5.328   5.788  15.944  0.00  0.00    +0.000 A 
ATOM      3  N   UNL     1       4.783   6.962  16.042  0.00  0.00    +0.000 NA
ATOM      4  C   UNL     1       3.902   7.212  17.121  0.00  0.00    +0.000 A 
ATOM      5  C   UNL     1       3.297   8.472  17.185  0.00  0.00    +0.000 A 
ATOM      6  C   UNL     1       2.434   8.801  18.239  0.00  0.00    +0.000 A 
ATOM      7  C   UNL     1       2.216   7.880  19.269  0.00  0.00    +0.000 A 
ATOM      8  C   UNL     1       2.837   6.624  19.226  0.00  0.00    +0.000 A 
ATOM      9  C   UNL     1       3.614   6.265  18.126  0.00  0.00    +0.000 A 
ATOM     10  N   UNL     1       4.141   4.968  17.922  0.00  0.00    +0.000 N 
ATOM     11  C   UNL     1       3.964   3.715  18.508  0.00  0.00    +0.000 A 
ATOM     12  N   UNL     1       4.791   2.874  17.895  0.00  0.00    +0.000 NA
ATOM     13  N   UNL     1       5.442   3.522  16.880  0.00  0.00    +0.000 NA
ATOM     14  C   UNL     1       5.005   4.753  16.882  0.00  0.00    +0.000 A 
ENDROOT
BRANCH  11  15
ATOM     15  C   UNL     1       3.000   3.293  19.539  0.00  0.00    +0.000 A 
ATOM     16  C   UNL     1       3.449   2.904  20.815  0.00  0.00    +0.000 A 
ATOM     17  C   UNL     1       2.564   2.428  21.787  0.00  0.00    +0.000 A 
ATOM     18  C   UNL     1       1.197   2.436  21.547  0.00  0.00    +0.000 A 
ATOM     19  C   UNL     1       0.717   2.911  20.330  0.00  0.00    +0.000 A 
ATOM     20  C   UNL     1       1.607   3.320  19.325  0.00  0.00    +0.000 A 
ATOM     21 CL   UNL     1       0.888   3.823  17.831  0.00  0.00    +0.000 Cl
ENDBRANCH  11  15
BRANCH   7  22
ATOM     22  C   UNL     1       1.272   8.145  20.388  0.00  0.00    +0.000 C 
ATOM     23  O   UNL     1       1.059   7.267  21.215  0.00  0.00    +0.000 OA
ATOM     24  N   UNL     1       0.703   9.398  20.435  0.00  0.00    +0.000 N 
ATOM     25  H   UNL     1       1.090  10.129  19.852  0.00  0.00    +0.000 HD
BRANCH  24  26
ATOM     26  C   UNL     1      -0.153   9.801  21.543  0.00  0.00    +0.000 C 
ATOM     27  C   UNL     1       0.537   9.548  22.884  0.00  0.00    +0.000 C 
ATOM     28  C   UNL     1      -0.532  11.271  21.401  0.00  0.00    +0.000 C 
ENDBRANCH  24  26
ENDBRANCH   7  22
TORSDOF 3
ENDMDL
MODEL 9
REMARK VINA RESULT:      -6.5      4.066      5.873
REMARK  Name = 
REMARK  6 active torsions:
REMARK  status: ('A' for Active; 'I' for Inactive)
REMARK    1  A    between atoms: C_1  and  C_2
REMARK    2  A    between atoms: C_7  and  C_8
REMARK    3  A    between atoms: N_10  and  C_11
REMARK    4  A    between atoms: C_11  and  C_12
REMARK    5  A    between atoms: C_11  and  C_13
REMARK    6  A    between atoms: C_17  and  C_18
REMARK                            x       y       z     vdW  Elec       q    Type
REMARK                         _______ _______ _______ _____ _____    ______ ____
ROOT
ATOM      1  C   UNL     1       1.409   9.743  18.966  0.00  0.00    +0.000 C 
ATOM      2  C   UNL     1       0.015  10.306  18.932  0.00  0.00    +0.000 A 
ATOM      3  N   UNL     1      -0.817   9.946  18.003  0.00  0.00    +0.000 NA
ATOM      4  C   UNL     1      -2.106  10.531  17.984  0.00  0.00    +0.000 A 
ATOM      5  C   UNL     1      -2.998  10.101  16.997  0.00  0.00    +0.000 A 
ATOM      6  C   UNL     1      -4.282  10.653  16.899  0.00  0.00    +0.000 A 
ATOM      7  C   UNL     1      -4.659  11.687  17.762  0.00  0.00    +0.000 A 
ATOM      8  C   UNL     1      -3.763  12.142  18.740  0.00  0.00    +0.000 A 
ATOM      9  C   UNL     1      -2.525  11.521  18.898  0.00  0.00    +0.000 A 
ATOM     10  N   UNL     1      -1.630  11.804  19.956  0.00  0.00    +0.000 N 
ATOM     11  C   UNL     1      -1.690  12.521  21.150  0.00  0.00    +0.000 A 
ATOM     12  N   UNL     1      -0.486  12.456  21.710  0.00  0.00    +0.000 NA
ATOM     13  N   UNL     1       0.332  11.657  20.957  0.00  0.00    +0.000 NA
ATOM     14  C   UNL     1      -0.381  11.240  19.945  0.00  0.00    +0.000 A 
ENDROOT
BRANCH  11  15
ATOM     15  C   UNL     1      -2.846  13.168  21.793  0.00  0.00    +0.000 A 
ATOM     16  C   UNL     1      -3.660  12.445  22.686  0.00  0.00    +0.000 A 
ATOM     17  C   UNL     1      -4.807  13.010  23.252  0.00  0.00    +0.000 A 
ATOM     18  C   UNL     1      -5.105  14.347  23.030  0.00  0.00    +0.000 A 
ATOM     19  C   UNL     1      -4.262  15.115  22.232  0.00  0.00    +0.000 A 
ATOM     20  C   UNL     1      -3.151  14.531  21.603  0.00  0.00    +0.000 A 
ATOM     21 CL   UNL     1      -2.221  15.575  20.580  0.00  0.00    +0.000 Cl
ENDBRANCH  11  15
BRANCH   7  22
ATOM     22  C   UNL     1      -6.022  12.282  17.747  0.00  0.00    +0.000 C 
ATOM     23  O   UNL     1      -6.972  11.615  18.136  0.00  0.00    +0.000 OA
ATOM     24  N   UNL     1      -6.126  13.583  17.308  0.00  0.00    +0.000 N 
ATOM     25  H   UNL     1      -5.281  14.132  17.212  0.00  0.00    +0.000 HD
BRANCH  24  26
ATOM     26  C   UNL     1      -7.395  14.298  17.349  0.00  0.00    +0.000 C 
ATOM     27  C   UNL     1      -7.388  15.356  18.453  0.00  0.00    +0.000 C 
ATOM     28  C   UNL     1      -7.679  14.935  15.993  0.00  0.00    +0.000 C 
ENDBRANCH  24  26
ENDBRANCH   7  22
TORSDOF 3
ENDMDL
