MODEL 1
REMARK VINA RESULT:      -8.2      0.000      0.000
REMARK  Name = 
REMARK  6 active torsions:
REMARK  status: ('A' for Active; 'I' for Inactive)
REMARK    1  A    between atoms: C_1  and  O_2
REMARK    2  A    between atoms: O_2  and  C_3
REMARK    3  A    between atoms: C_6  and  C_7
REMARK    4  A    between atoms: C_9  and  S_10
REMARK    5  A    between atoms: S_10  and  N_13
REMARK    6  A    between atoms: N_20  and  C_21
REMARK                            x       y       z     vdW  Elec       q    Type
REMARK                         _______ _______ _______ _____ _____    ______ ____
ROOT
ATOM      1  S   UNL     1       3.454   3.572  17.948  0.00  0.00    +0.000 S 
ATOM      2  O   UNL     1       2.458   4.599  17.685  0.00  0.00    +0.000 OA
ATOM      3  O   UNL     1       3.192   2.210  17.465  0.00  0.00    +0.000 OA
ENDROOT
BRANCH   1   4
ATOM      4  N   UNL     1       3.695   3.542  19.762  0.00  0.00    +0.000 NA
ATOM      5  C   UNL     1       2.941   2.451  20.397  0.00  0.00    +0.000 C 
ATOM      6  C   UNL     1       1.478   2.696  20.082  0.00  0.00    +0.000 C 
ATOM      7  C   UNL     1       1.024   4.214  20.039  0.00  0.00    +0.000 C 
ATOM      8  C   UNL     1       2.074   5.448  20.069  0.00  0.00    +0.000 C 
ATOM      9  C   UNL     1       1.288   6.574  20.783  0.00  0.00    +0.000 C 
ATOM     10  C   UNL     1       1.711   7.943  20.258  0.00  0.00    +0.000 C 
ATOM     11  N   UNL     1       2.503   7.720  19.073  0.00  0.00    +0.000 NA
ATOM     12  C   UNL     1       2.014   8.303  17.830  0.00  0.00    +0.000 C 
ATOM     13  C   UNL     1       2.661   6.282  18.887  0.00  0.00    +0.000 C 
ATOM     14  C   UNL     1       3.339   4.812  20.633  0.00  0.00    +0.000 C 
ENDBRANCH   1   4
BRANCH   1  21
ATOM     15  C   UNL     1       6.112   4.436  17.839  0.00  0.00    +0.000 A 
ATOM     16  C   UNL     1       7.246   4.630  17.055  0.00  0.00    +0.000 A 
ATOM     17  C   UNL     1       7.195   4.457  15.652  0.00  0.00    +0.000 A 
ATOM     18  C   UNL     1       5.998   4.114  15.020  0.00  0.00    +0.000 A 
ATOM     19  C   UNL     1       5.853   3.921  13.539  0.00  0.00    +0.000 C 
ATOM     20  C   UNL     1       4.880   3.904  15.793  0.00  0.00    +0.000 A 
ATOM     21  C   UNL     1       4.922   4.078  17.173  0.00  0.00    +0.000 A 
BRANCH  15  23
ATOM     22  C   UNL     1       7.347   5.618  19.535  0.00  0.00    +0.000 C 
ATOM     23  O   UNL     1       6.169   4.915  19.120  0.00  0.00    +0.000 OA
ENDBRANCH  15  23
ENDBRANCH   1  21
TORSDOF 3
ENDMDL
MODEL 2
REMARK VINA RESULT:      -7.7      1.617      2.865
REMARK  Name = 
REMARK  6 active torsions:
REMARK  status: ('A' for Active; 'I' for Inactive)
REMARK    1  A    between atoms: C_1  and  O_2
REMARK    2  A    between atoms: O_2  and  C_3
REMARK    3  A    between atoms: C_6  and  C_7
REMARK    4  A    between atoms: C_9  and  S_10
REMARK    5  A    between atoms: S_10  and  N_13
REMARK    6  A    between atoms: N_20  and  C_21
REMARK                            x       y       z     vdW  Elec       q    Type
REMARK                         _______ _______ _______ _____ _____    ______ ____
ROOT
ATOM      1  S   UNL     1       4.505   3.972  17.386  0.00  0.00    +0.000 S 
ATOM      2  O   UNL     1       3.329   4.816  17.245  0.00  0.00    +0.000 OA
ATOM      3  O   UNL     1       4.823   3.036  16.300  0.00  0.00    +0.000 OA
ENDROOT
BRANCH   1   4
ATOM      4  N   UNL     1       4.290   3.046  18.949  0.00  0.00    +0.000 NA
ATOM      5  C   UNL     1       3.654   1.739  18.728  0.00  0.00    +0.000 C 
ATOM      6  C   UNL     1       2.297   2.016  18.110  0.00  0.00    +0.000 C 
ATOM      7  C   UNL     1       1.554   3.316  18.629  0.00  0.00    +0.000 C 
ATOM      8  C   UNL     1       2.273   4.429  19.561  0.00  0.00    +0.000 C 
ATOM      9  C   UNL     1       1.112   4.988  20.418  0.00  0.00    +0.000 C 
ATOM     10  C   UNL     1       1.348   6.458  20.752  0.00  0.00    +0.000 C 
ATOM     11  N   UNL     1       2.438   6.915  19.924  0.00  0.00    +0.000 NA
ATOM     12  C   UNL     1       2.159   8.014  19.008  0.00  0.00    +0.000 C 
ATOM     13  C   UNL     1       2.942   5.781  19.158  0.00  0.00    +0.000 C 
ATOM     14  C   UNL     1       3.465   3.677  20.141  0.00  0.00    +0.000 C 
ENDBRANCH   1   4
BRANCH   1  21
ATOM     15  C   UNL     1       6.202   6.056  16.609  0.00  0.00    +0.000 A 
ATOM     16  C   UNL     1       7.224   6.928  16.974  0.00  0.00    +0.000 A 
ATOM     17  C   UNL     1       7.887   6.787  18.216  0.00  0.00    +0.000 A 
ATOM     18  C   UNL     1       7.549   5.753  19.091  0.00  0.00    +0.000 A 
ATOM     19  C   UNL     1       8.206   5.526  20.421  0.00  0.00    +0.000 C 
ATOM     20  C   UNL     1       6.527   4.901  18.741  0.00  0.00    +0.000 A 
ATOM     21  C   UNL     1       5.875   5.030  17.519  0.00  0.00    +0.000 A 
BRANCH  15  23
ATOM     22  C   UNL     1       6.487   5.167  14.389  0.00  0.00    +0.000 C 
ATOM     23  O   UNL     1       5.833   6.069  15.291  0.00  0.00    +0.000 OA
ENDBRANCH  15  23
ENDBRANCH   1  21
TORSDOF 3
ENDMDL
MODEL 3
REMARK VINA RESULT:      -7.6      0.994      2.418
REMARK  Name = 
REMARK  6 active torsions:
REMARK  status: ('A' for Active; 'I' for Inactive)
REMARK    1  A    between atoms: C_1  and  O_2
REMARK    2  A    between atoms: O_2  and  C_3
REMARK    3  A    between atoms: C_6  and  C_7
REMARK    4  A    between atoms: C_9  and  S_10
REMARK    5  A    between atoms: S_10  and  N_13
REMARK    6  A    between atoms: N_20  and  C_21
REMARK                            x       y       z     vdW  Elec       q    Type
REMARK                         _______ _______ _______ _____ _____    ______ ____
ROOT
ATOM      1  S   UNL     1       3.699   3.589  17.990  0.00  0.00    +0.000 S 
ATOM      2  O   UNL     1       2.619   4.507  17.663  0.00  0.00    +0.000 OA
ATOM      3  O   UNL     1       3.683   2.253  17.381  0.00  0.00    +0.000 OA
ENDROOT
BRANCH   1   4
ATOM      4  N   UNL     1       3.707   3.431  19.812  0.00  0.00    +0.000 NA
ATOM      5  C   UNL     1       2.902   2.288  20.267  0.00  0.00    +0.000 C 
ATOM      6  C   UNL     1       1.486   2.537  19.783  0.00  0.00    +0.000 C 
ATOM      7  C   UNL     1       1.009   4.048  19.789  0.00  0.00    +0.000 C 
ATOM      8  C   UNL     1       2.019   5.290  20.040  0.00  0.00    +0.000 C 
ATOM      9  C   UNL     1       1.124   6.351  20.724  0.00  0.00    +0.000 C 
ATOM     10  C   UNL     1       1.582   7.760  20.356  0.00  0.00    +0.000 C 
ATOM     11  N   UNL     1       2.523   7.633  19.270  0.00  0.00    +0.000 NA
ATOM     12  C   UNL     1       2.185   8.299  18.018  0.00  0.00    +0.000 C 
ATOM     13  C   UNL     1       2.735   6.214  19.006  0.00  0.00    +0.000 C 
ATOM     14  C   UNL     1       3.216   4.630  20.717  0.00  0.00    +0.000 C 
ENDBRANCH   1   4
BRANCH   1  21
ATOM     15  C   UNL     1       5.471   4.704  16.135  0.00  0.00    +0.000 A 
ATOM     16  C   UNL     1       6.620   5.464  15.926  0.00  0.00    +0.000 A 
ATOM     17  C   UNL     1       7.437   5.853  17.013  0.00  0.00    +0.000 A 
ATOM     18  C   UNL     1       7.124   5.462  18.317  0.00  0.00    +0.000 A 
ATOM     19  C   UNL     1       7.940   5.823  19.523  0.00  0.00    +0.000 C 
ATOM     20  C   UNL     1       5.981   4.727  18.528  0.00  0.00    +0.000 A 
ATOM     21  C   UNL     1       5.175   4.335  17.463  0.00  0.00    +0.000 A 
BRANCH  15  23
ATOM     22  C   UNL     1       5.717   4.014  13.841  0.00  0.00    +0.000 C 
ATOM     23  O   UNL     1       4.919   4.120  15.027  0.00  0.00    +0.000 OA
ENDBRANCH  15  23
ENDBRANCH   1  21
TORSDOF 3
ENDMDL
MODEL 4
REMARK VINA RESULT:      -7.5      2.685      4.616
REMARK  Name = 
REMARK  6 active torsions:
REMARK  status: ('A' for Active; 'I' for Inactive)
REMARK    1  A    between atoms: C_1  and  O_2
REMARK    2  A    between atoms: O_2  and  C_3
REMARK    3  A    between atoms: C_6  and  C_7
REMARK    4  A    between atoms: C_9  and  S_10
REMARK    5  A    between atoms: S_10  and  N_13
REMARK    6  A    between atoms: N_20  and  C_21
REMARK                            x       y       z     vdW  Elec       q    Type
REMARK                         _______ _______ _______ _____ _____    ______ ____
ROOT
ATOM      1  S   UNL     1       6.390   4.587  15.828  0.00  0.00    +0.000 S 
ATOM      2  O   UNL     1       5.283   3.722  16.206  0.00  0.00    +0.000 OA
ATOM      3  O   UNL     1       7.728   4.266  16.340  0.00  0.00    +0.000 OA
ENDROOT
BRANCH   1   4
ATOM      4  N   UNL     1       5.924   6.277  16.352  0.00  0.00    +0.000 NA
ATOM      5  C   UNL     1       7.008   6.938  17.093  0.00  0.00    +0.000 C 
ATOM      6  C   UNL     1       7.282   6.083  18.316  0.00  0.00    +0.000 C 
ATOM      7  C   UNL     1       6.016   5.393  18.974  0.00  0.00    +0.000 C 
ATOM      8  C   UNL     1       4.558   5.370  18.268  0.00  0.00    +0.000 C 
ATOM      9  C   UNL     1       3.577   5.363  19.465  0.00  0.00    +0.000 C 
ATOM     10  C   UNL     1       2.305   4.595  19.114  0.00  0.00    +0.000 C 
ATOM     11  N   UNL     1       2.558   3.892  17.879  0.00  0.00    +0.000 NA
ATOM     12  C   UNL     1       2.449   2.439  17.910  0.00  0.00    +0.000 C 
ATOM     13  C   UNL     1       3.889   4.255  17.405  0.00  0.00    +0.000 C 
ATOM     14  C   UNL     1       4.647   6.506  17.255  0.00  0.00    +0.000 C 
ENDBRANCH   1   4
BRANCH   1  21
ATOM     15  C   UNL     1       7.636   4.934  13.348  0.00  0.00    +0.000 A 
ATOM     16  C   UNL     1       7.634   4.636  11.988  0.00  0.00    +0.000 A 
ATOM     17  C   UNL     1       6.552   3.940  11.400  0.00  0.00    +0.000 A 
ATOM     18  C   UNL     1       5.449   3.560  12.167  0.00  0.00    +0.000 A 
ATOM     19  C   UNL     1       4.257   2.828  11.623  0.00  0.00    +0.000 C 
ATOM     20  C   UNL     1       5.455   3.837  13.514  0.00  0.00    +0.000 A 
ATOM     21  C   UNL     1       6.514   4.526  14.098  0.00  0.00    +0.000 A 
BRANCH  15  23
ATOM     22  C   UNL     1       9.608   6.231  12.870  0.00  0.00    +0.000 C 
ATOM     23  O   UNL     1       8.553   5.861  13.767  0.00  0.00    +0.000 OA
ENDBRANCH  15  23
ENDBRANCH   1  21
TORSDOF 3
ENDMDL
MODEL 5
REMARK VINA RESULT:      -7.5      2.128      6.151
REMARK  Name = 
REMARK  6 active torsions:
REMARK  status: ('A' for Active; 'I' for Inactive)
REMARK    1  A    between atoms: C_1  and  O_2
REMARK    2  A    between atoms: O_2  and  C_3
REMARK    3  A    between atoms: C_6  and  C_7
REMARK    4  A    between atoms: C_9  and  S_10
REMARK    5  A    between atoms: S_10  and  N_13
REMARK    6  A    between atoms: N_20  and  C_21
REMARK                            x       y       z     vdW  Elec       q    Type
REMARK                         _______ _______ _______ _____ _____    ______ ____
ROOT
ATOM      1  S   UNL     1       4.389   4.346  17.419  0.00  0.00    +0.000 S 
ATOM      2  O   UNL     1       4.074   2.955  17.134  0.00  0.00    +0.000 OA
ATOM      3  O   UNL     1       4.064   5.354  16.402  0.00  0.00    +0.000 OA
ENDROOT
BRANCH   1   4
ATOM      4  N   UNL     1       6.181   4.404  17.785  0.00  0.00    +0.000 NA
ATOM      5  C   UNL     1       6.555   5.634  18.498  0.00  0.00    +0.000 C 
ATOM      6  C   UNL     1       6.183   6.791  17.590  0.00  0.00    +0.000 C 
ATOM      7  C   UNL     1       6.378   6.541  16.037  0.00  0.00    +0.000 C 
ATOM      8  C   UNL     1       6.704   5.081  15.413  0.00  0.00    +0.000 C 
ATOM      9  C   UNL     1       7.548   5.405  14.157  0.00  0.00    +0.000 C 
ATOM     10  C   UNL     1       7.308   4.366  13.065  0.00  0.00    +0.000 C 
ATOM     11  N   UNL     1       6.163   3.584  13.463  0.00  0.00    +0.000 NA
ATOM     12  C   UNL     1       5.011   3.593  12.569  0.00  0.00    +0.000 C 
ATOM     13  C   UNL     1       5.736   4.031  14.785  0.00  0.00    +0.000 C 
ATOM     14  C   UNL     1       7.236   4.304  16.612  0.00  0.00    +0.000 C 
ENDBRANCH   1   4
BRANCH   1  21
ATOM     15  C   UNL     1       2.839   6.025  19.032  0.00  0.00    +0.000 A 
ATOM     16  C   UNL     1       2.007   6.137  20.142  0.00  0.00    +0.000 A 
ATOM     17  C   UNL     1       1.820   5.042  21.019  0.00  0.00    +0.000 A 
ATOM     18  C   UNL     1       2.487   3.835  20.804  0.00  0.00    +0.000 A 
ATOM     19  C   UNL     1       2.353   2.630  21.689  0.00  0.00    +0.000 C 
ATOM     20  C   UNL     1       3.297   3.716  19.699  0.00  0.00    +0.000 A 
ATOM     21  C   UNL     1       3.490   4.790  18.835  0.00  0.00    +0.000 A 
BRANCH  15  23
ATOM     22  C   UNL     1       2.176   8.143  18.097  0.00  0.00    +0.000 C 
ATOM     23  O   UNL     1       3.202   7.197  18.423  0.00  0.00    +0.000 OA
ENDBRANCH  15  23
ENDBRANCH   1  21
TORSDOF 3
ENDMDL
MODEL 6
REMARK VINA RESULT:      -7.3      2.162      6.186
REMARK  Name = 
REMARK  6 active torsions:
REMARK  status: ('A' for Active; 'I' for Inactive)
REMARK    1  A    between atoms: C_1  and  O_2
REMARK    2  A    between atoms: O_2  and  C_3
REMARK    3  A    between atoms: C_6  and  C_7
REMARK    4  A    between atoms: C_9  and  S_10
REMARK    5  A    between atoms: S_10  and  N_13
REMARK    6  A    between atoms: N_20  and  C_21
REMARK                            x       y       z     vdW  Elec       q    Type
REMARK                         _______ _______ _______ _____ _____    ______ ____
ROOT
ATOM      1  S   UNL     1       4.405   4.801  17.424  0.00  0.00    +0.000 S 
ATOM      2  O   UNL     1       4.052   3.758  16.474  0.00  0.00    +0.000 OA
ATOM      3  O   UNL     1       4.141   6.197  17.053  0.00  0.00    +0.000 OA
ENDROOT
BRANCH   1   4
ATOM      4  N   UNL     1       6.187   4.591  17.782  0.00  0.00    +0.000 NA
ATOM      5  C   UNL     1       6.753   5.768  18.456  0.00  0.00    +0.000 C 
ATOM      6  C   UNL     1       6.558   6.941  17.514  0.00  0.00    +0.000 C 
ATOM      7  C   UNL     1       6.699   6.618  15.969  0.00  0.00    +0.000 C 
ATOM      8  C   UNL     1       6.789   5.108  15.389  0.00  0.00    +0.000 C 
ATOM      9  C   UNL     1       7.663   5.259  14.121  0.00  0.00    +0.000 C 
ATOM     10  C   UNL     1       7.256   4.239  13.061  0.00  0.00    +0.000 C 
ATOM     11  N   UNL     1       6.006   3.657  13.487  0.00  0.00    +0.000 NA
ATOM     12  C   UNL     1       4.863   3.818  12.597  0.00  0.00    +0.000 C 
ATOM     13  C   UNL     1       5.665   4.203  14.796  0.00  0.00    +0.000 C 
ATOM     14  C   UNL     1       7.204   4.294  16.609  0.00  0.00    +0.000 C 
ENDBRANCH   1   4
BRANCH   1  21
ATOM     15  C   UNL     1       3.603   3.372  19.691  0.00  0.00    +0.000 A 
ATOM     16  C   UNL     1       2.922   3.394  20.905  0.00  0.00    +0.000 A 
ATOM     17  C   UNL     1       2.157   4.522  21.287  0.00  0.00    +0.000 A 
ATOM     18  C   UNL     1       2.047   5.627  20.441  0.00  0.00    +0.000 A 
ATOM     19  C   UNL     1       1.251   6.858  20.763  0.00  0.00    +0.000 C 
ATOM     20  C   UNL     1       2.733   5.616  19.248  0.00  0.00    +0.000 A 
ATOM     21  C   UNL     1       3.482   4.508  18.864  0.00  0.00    +0.000 A 
BRANCH  15  23
ATOM     22  C   UNL     1       3.173   1.329  18.491  0.00  0.00    +0.000 C 
ATOM     23  O   UNL     1       4.054   2.150  19.268  0.00  0.00    +0.000 OA
ENDBRANCH  15  23
ENDBRANCH   1  21
TORSDOF 3
ENDMDL
MODEL 7
REMARK VINA RESULT:      -7.3      1.021      1.030
REMARK  Name = 
REMARK  6 active torsions:
REMARK  status: ('A' for Active; 'I' for Inactive)
REMARK    1  A    between atoms: C_1  and  O_2
REMARK    2  A    between atoms: O_2  and  C_3
REMARK    3  A    between atoms: C_6  and  C_7
REMARK    4  A    between atoms: C_9  and  S_10
REMARK    5  A    between atoms: S_10  and  N_13
REMARK    6  A    between atoms: N_20  and  C_21
REMARK                            x       y       z     vdW  Elec       q    Type
REMARK                         _______ _______ _______ _____ _____    ______ ____
ROOT
ATOM      1  S   UNL     1       3.634   4.468  17.305  0.00  0.00    +0.000 S 
ATOM      2  O   UNL     1       2.938   5.744  17.340  0.00  0.00    +0.000 OA
ATOM      3  O   UNL     1       2.944   3.316  16.710  0.00  0.00    +0.000 OA
ENDROOT
BRANCH   1   4
ATOM      4  N   UNL     1       4.087   4.081  19.035  0.00  0.00    +0.000 NA
ATOM      5  C   UNL     1       3.585   2.764  19.452  0.00  0.00    +0.000 C 
ATOM      6  C   UNL     1       2.075   2.814  19.320  0.00  0.00    +0.000 C 
ATOM      7  C   UNL     1       1.396   4.201  19.673  0.00  0.00    +0.000 C 
ATOM      8  C   UNL     1       2.243   5.562  19.911  0.00  0.00    +0.000 C 
ATOM      9  C   UNL     1       1.385   6.348  20.931  0.00  0.00    +0.000 C 
ATOM     10  C   UNL     1       1.534   7.852  20.713  0.00  0.00    +0.000 C 
ATOM     11  N   UNL     1       2.206   8.036  19.450  0.00  0.00    +0.000 NA
ATOM     12  C   UNL     1       1.493   8.785  18.422  0.00  0.00    +0.000 C 
ATOM     13  C   UNL     1       2.557   6.724  18.918  0.00  0.00    +0.000 C 
ATOM     14  C   UNL     1       3.648   5.047  20.207  0.00  0.00    +0.000 C 
ENDBRANCH   1   4
BRANCH   1  21
ATOM     15  C   UNL     1       6.301   5.186  16.860  0.00  0.00    +0.000 A 
ATOM     16  C   UNL     1       7.400   5.127  16.008  0.00  0.00    +0.000 A 
ATOM     17  C   UNL     1       7.279   4.585  14.706  0.00  0.00    +0.000 A 
ATOM     18  C   UNL     1       6.047   4.122  14.239  0.00  0.00    +0.000 A 
ATOM     19  C   UNL     1       5.829   3.541  12.873  0.00  0.00    +0.000 C 
ATOM     20  C   UNL     1       4.963   4.163  15.085  0.00  0.00    +0.000 A 
ATOM     21  C   UNL     1       5.074   4.700  16.364  0.00  0.00    +0.000 A 
BRANCH  15  23
ATOM     22  C   UNL     1       7.384   7.057  17.921  0.00  0.00    +0.000 C 
ATOM     23  O   UNL     1       6.427   5.991  17.961  0.00  0.00    +0.000 OA
ENDBRANCH  15  23
ENDBRANCH   1  21
TORSDOF 3
ENDMDL
MODEL 8
REMARK VINA RESULT:      -6.9      2.110      5.958
REMARK  Name = 
REMARK  6 active torsions:
REMARK  status: ('A' for Active; 'I' for Inactive)
REMARK    1  A    between atoms: C_1  and  O_2
REMARK    2  A    between atoms: O_2  and  C_3
REMARK    3  A    between atoms: C_6  and  C_7
REMARK    4  A    between atoms: C_9  and  S_10
REMARK    5  A    between atoms: S_10  and  N_13
REMARK    6  A    between atoms: N_20  and  C_21
REMARK                            x       y       z     vdW  Elec       q    Type
REMARK                         _______ _______ _______ _____ _____    ______ ____
ROOT
ATOM      1  S   UNL     1       4.312   4.103  17.328  0.00  0.00    +0.000 S 
ATOM      2  O   UNL     1       4.016   2.686  17.463  0.00  0.00    +0.000 OA
ATOM      3  O   UNL     1       4.038   4.750  16.038  0.00  0.00    +0.000 OA
ENDROOT
BRANCH   1   4
ATOM      4  N   UNL     1       6.081   4.302  17.748  0.00  0.00    +0.000 NA
ATOM      5  C   UNL     1       6.332   5.550  18.484  0.00  0.00    +0.000 C 
ATOM      6  C   UNL     1       5.894   6.684  17.576  0.00  0.00    +0.000 C 
ATOM      7  C   UNL     1       6.154   6.470  16.028  0.00  0.00    +0.000 C 
ATOM      8  C   UNL     1       6.615   5.049  15.400  0.00  0.00    +0.000 C 
ATOM      9  C   UNL     1       7.467   5.456  14.173  0.00  0.00    +0.000 C 
ATOM     10  C   UNL     1       7.344   4.415  13.064  0.00  0.00    +0.000 C 
ATOM     11  N   UNL     1       6.255   3.537  13.420  0.00  0.00    +0.000 NA
ATOM     12  C   UNL     1       5.133   3.463  12.492  0.00  0.00    +0.000 C 
ATOM     13  C   UNL     1       5.756   3.931  14.732  0.00  0.00    +0.000 C 
ATOM     14  C   UNL     1       7.175   4.304  16.607  0.00  0.00    +0.000 C 
ENDBRANCH   1   4
BRANCH   1  21
ATOM     15  C   UNL     1       3.108   4.509  19.820  0.00  0.00    +0.000 A 
ATOM     16  C   UNL     1       2.460   5.398  20.673  0.00  0.00    +0.000 A 
ATOM     17  C   UNL     1       2.068   6.681  20.222  0.00  0.00    +0.000 A 
ATOM     18  C   UNL     1       2.299   7.072  18.901  0.00  0.00    +0.000 A 
ATOM     19  C   UNL     1       1.908   8.407  18.338  0.00  0.00    +0.000 C 
ATOM     20  C   UNL     1       2.954   6.203  18.061  0.00  0.00    +0.000 A 
ATOM     21  C   UNL     1       3.337   4.938  18.497  0.00  0.00    +0.000 A 
BRANCH  15  23
ATOM     22  C   UNL     1       2.481   2.836  21.434  0.00  0.00    +0.000 C 
ATOM     23  O   UNL     1       3.172   3.206  20.234  0.00  0.00    +0.000 OA
ENDBRANCH  15  23
ENDBRANCH   1  21
TORSDOF 3
ENDMDL
MODEL 9
REMARK VINA RESULT:      -6.8      1.648      3.384
REMARK  Name = 
REMARK  6 active torsions:
REMARK  status: ('A' for Active; 'I' for Inactive)
REMARK    1  A    between atoms: C_1  and  O_2
REMARK    2  A    between atoms: O_2  and  C_3
REMARK    3  A    between atoms: C_6  and  C_7
REMARK    4  A    between atoms: C_9  and  S_10
REMARK    5  A    between atoms: S_10  and  N_13
REMARK    6  A    between atoms: N_20  and  C_21
REMARK                            x       y       z     vdW  Elec       q    Type
REMARK                         _______ _______ _______ _____ _____    ______ ____
ROOT
ATOM      1  S   UNL     1       4.648   4.821  17.932  0.00  0.00    +0.000 S 
ATOM      2  O   UNL     1       4.690   3.433  18.365  0.00  0.00    +0.000 OA
ATOM      3  O   UNL     1       5.102   5.855  18.870  0.00  0.00    +0.000 OA
ENDROOT
BRANCH   1   4
ATOM      4  N   UNL     1       2.917   5.156  17.444  0.00  0.00    +0.000 NA
ATOM      5  C   UNL     1       2.624   6.597  17.420  0.00  0.00    +0.000 C 
ATOM      6  C   UNL     1       2.865   7.112  18.826  0.00  0.00    +0.000 C 
ATOM      7  C   UNL     1       2.477   6.122  20.001  0.00  0.00    +0.000 C 
ATOM      8  C   UNL     1       2.090   4.568  19.753  0.00  0.00    +0.000 C 
ATOM      9  C   UNL     1       1.090   4.258  20.892  0.00  0.00    +0.000 C 
ATOM     10  C   UNL     1       1.201   2.798  21.323  0.00  0.00    +0.000 C 
ATOM     11  N   UNL     1       2.395   2.263  20.716  0.00  0.00    +0.000 NA
ATOM     12  C   UNL     1       3.424   1.754  21.616  0.00  0.00    +0.000 C 
ATOM     13  C   UNL     1       2.981   3.292  19.865  0.00  0.00    +0.000 C 
ATOM     14  C   UNL     1       1.722   4.536  18.273  0.00  0.00    +0.000 C 
ENDBRANCH   1   4
BRANCH   1  21
ATOM     15  C   UNL     1       7.034   5.346  16.570  0.00  0.00    +0.000 A 
ATOM     16  C   UNL     1       7.760   5.208  15.390  0.00  0.00    +0.000 A 
ATOM     17  C   UNL     1       7.156   4.679  14.225  0.00  0.00    +0.000 A 
ATOM     18  C   UNL     1       5.810   4.308  14.227  0.00  0.00    +0.000 A 
ATOM     19  C   UNL     1       5.090   3.748  13.036  0.00  0.00    +0.000 C 
ATOM     20  C   UNL     1       5.095   4.426  15.396  0.00  0.00    +0.000 A 
ATOM     21  C   UNL     1       5.681   4.951  16.543  0.00  0.00    +0.000 A 
BRANCH  15  23
ATOM     22  C   UNL     1       7.577   7.557  17.352  0.00  0.00    +0.000 C 
ATOM     23  O   UNL     1       7.592   6.136  17.539  0.00  0.00    +0.000 OA
ENDBRANCH  15  23
ENDBRANCH   1  21
TORSDOF 3
ENDMDL
