MODEL 1
REMARK VINA RESULT:      -7.5      0.000      0.000
REMARK  Name = 
REMARK  6 active torsions:
REMARK  status: ('A' for Active; 'I' for Inactive)
REMARK    1  A    between atoms: C_1  and  C_2
REMARK    2  A    between atoms: C_5  and  N_6
REMARK    3  A    between atoms: C_7  and  C_9
REMARK    4  A    between atoms: C_9  and  S_10
REMARK    5  A    between atoms: S_10  and  C_11
REMARK    6  A    between atoms: C_11  and  C_12
REMARK                            x       y       z     vdW  Elec       q    Type
REMARK                         _______ _______ _______ _____ _____    ______ ____
ROOT
ATOM      1  C   UNL     1       2.249   2.904  21.462  0.00  0.00    +0.000 C 
ENDROOT
BRANCH   1   3
ATOM      2  N   UNL     1       2.581   5.154  20.570  0.00  0.00    +0.000 N 
ATOM      3  C   UNL     1       1.725   4.064  20.636  0.00  0.00    +0.000 C 
ATOM      4  O   UNL     1       0.638   3.965  20.070  0.00  0.00    +0.000 OA
ATOM      5  H   UNL     1       3.507   5.039  20.970  0.00  0.00    +0.000 HD
BRANCH   2  10
ATOM      6  C   UNL     1       1.437  10.251  18.203  0.00  0.00    +0.000 C 
ATOM      7  C   UNL     1       1.728   8.912  18.812  0.00  0.00    +0.000 A 
ATOM      8  C   UNL     1       2.338   7.910  18.058  0.00  0.00    +0.000 A 
ATOM      9  C   UNL     1       2.621   6.666  18.623  0.00  0.00    +0.000 A 
ATOM     10  C   UNL     1       2.302   6.394  19.955  0.00  0.00    +0.000 A 
ATOM     11  C   UNL     1       1.663   7.384  20.707  0.00  0.00    +0.000 A 
ATOM     12  C   UNL     1       1.387   8.638  20.143  0.00  0.00    +0.000 A 
ENDBRANCH   2  10
ENDBRANCH   1   3
BRANCH   1  13
ATOM     13  S   UNL     1       3.876   2.336  20.884  0.00  0.00    +0.000 S 
BRANCH  13  14
ATOM     14  C   UNL     1       3.545   2.217  19.082  0.00  0.00    +0.000 C 
BRANCH  14  15
ATOM     15  C   UNL     1       4.384   3.266  18.380  0.00  0.00    +0.000 A 
ATOM     16  C   UNL     1       4.232   3.493  17.061  0.00  0.00    +0.000 A 
ATOM     17  C   UNL     1       5.110   4.467  16.382  0.00  0.00    +0.000 A 
ATOM     18  O   UNL     1       5.000   4.652  15.173  0.00  0.00    +0.000 OA
ATOM     19  N   UNL     1       6.012   5.088  17.209  0.00  0.00    +0.000 N 
ATOM     20  C   UNL     1       6.941   6.023  16.803  0.00  0.00    +0.000 A 
ATOM     21  C   UNL     1       7.703   6.495  17.796  0.00  0.00    +0.000 A 
ATOM     22  S   UNL     1       7.280   5.772  19.325  0.00  0.00    +0.000 S 
ATOM     23  C   UNL     1       6.040   4.797  18.553  0.00  0.00    +0.000 A 
ATOM     24  N   UNL     1       5.286   3.951  19.170  0.00  0.00    +0.000 NA
ENDBRANCH  14  15
ENDBRANCH  13  14
ENDBRANCH   1  13
TORSDOF 5
ENDMDL
MODEL 2
REMARK VINA RESULT:      -6.8      1.610      2.121
REMARK  Name = 
REMARK  6 active torsions:
REMARK  status: ('A' for Active; 'I' for Inactive)
REMARK    1  A    between atoms: C_1  and  C_2
REMARK    2  A    between atoms: C_5  and  N_6
REMARK    3  A    between atoms: C_7  and  C_9
REMARK    4  A    between atoms: C_9  and  S_10
REMARK    5  A    between atoms: S_10  and  C_11
REMARK    6  A    between atoms: C_11  and  C_12
REMARK                            x       y       z     vdW  Elec       q    Type
REMARK                         _______ _______ _______ _____ _____    ______ ____
ROOT
ATOM      1  C   UNL     1       1.775   3.167  21.535  0.00  0.00    +0.000 C 
ENDROOT
BRANCH   1   3
ATOM      2  N   UNL     1       2.206   5.450  20.782  0.00  0.00    +0.000 N 
ATOM      3  C   UNL     1       1.468   4.295  20.568  0.00  0.00    +0.000 C 
ATOM      4  O   UNL     1       0.646   4.119  19.671  0.00  0.00    +0.000 OA
ATOM      5  H   UNL     1       2.950   5.402  21.471  0.00  0.00    +0.000 HD
BRANCH   2  10
ATOM      6  C   UNL     1       1.602  10.351  17.866  0.00  0.00    +0.000 C 
ATOM      7  C   UNL     1       1.767   9.077  18.638  0.00  0.00    +0.000 A 
ATOM      8  C   UNL     1       1.270   8.968  19.936  0.00  0.00    +0.000 A 
ATOM      9  C   UNL     1       1.411   7.780  20.656  0.00  0.00    +0.000 A 
ATOM     10  C   UNL     1       2.052   6.674  20.095  0.00  0.00    +0.000 A 
ATOM     11  C   UNL     1       2.579   6.787  18.805  0.00  0.00    +0.000 A 
ATOM     12  C   UNL     1       2.429   7.977  18.078  0.00  0.00    +0.000 A 
ENDBRANCH   2  10
ENDBRANCH   1   3
BRANCH   1  13
ATOM     13  S   UNL     1       3.241   2.218  21.032  0.00  0.00    +0.000 S 
BRANCH  13  14
ATOM     14  C   UNL     1       3.068   2.317  19.206  0.00  0.00    +0.000 C 
BRANCH  14  15
ATOM     15  C   UNL     1       4.195   3.178  18.673  0.00  0.00    +0.000 A 
ATOM     16  C   UNL     1       5.029   3.814  19.519  0.00  0.00    +0.000 A 
ATOM     17  C   UNL     1       6.074   4.707  18.979  0.00  0.00    +0.000 A 
ATOM     18  O   UNL     1       6.814   5.316  19.745  0.00  0.00    +0.000 OA
ATOM     19  N   UNL     1       6.105   4.778  17.609  0.00  0.00    +0.000 N 
ATOM     20  C   UNL     1       6.982   5.552  16.879  0.00  0.00    +0.000 A 
ATOM     21  C   UNL     1       6.826   5.444  15.554  0.00  0.00    +0.000 A 
ATOM     22  S   UNL     1       5.541   4.337  15.151  0.00  0.00    +0.000 S 
ATOM     23  C   UNL     1       5.221   4.044  16.852  0.00  0.00    +0.000 A 
ATOM     24  N   UNL     1       4.300   3.258  17.298  0.00  0.00    +0.000 NA
ENDBRANCH  14  15
ENDBRANCH  13  14
ENDBRANCH   1  13
TORSDOF 5
ENDMDL
MODEL 3
REMARK VINA RESULT:      -6.5      1.309      1.496
REMARK  Name = 
REMARK  6 active torsions:
REMARK  status: ('A' for Active; 'I' for Inactive)
REMARK    1  A    between atoms: C_1  and  C_2
REMARK    2  A    between atoms: C_5  and  N_6
REMARK    3  A    between atoms: C_7  and  C_9
REMARK    4  A    between atoms: C_9  and  S_10
REMARK    5  A    between atoms: S_10  and  C_11
REMARK    6  A    between atoms: C_11  and  C_12
REMARK                            x       y       z     vdW  Elec       q    Type
REMARK                         _______ _______ _______ _____ _____    ______ ____
ROOT
ATOM      1  C   UNL     1       2.707   3.750  19.819  0.00  0.00    +0.000 C 
ENDROOT
BRANCH   1   3
ATOM      2  N   UNL     1       2.517   6.106  19.201  0.00  0.00    +0.000 N 
ATOM      3  C   UNL     1       1.942   5.058  19.905  0.00  0.00    +0.000 C 
ATOM      4  O   UNL     1       0.888   5.104  20.537  0.00  0.00    +0.000 OA
ATOM      5  H   UNL     1       3.311   5.884  18.609  0.00  0.00    +0.000 HD
BRANCH   2  10
ATOM      6  C   UNL     1       0.720  11.550  19.303  0.00  0.00    +0.000 C 
ATOM      7  C   UNL     1       1.179  10.124  19.267  0.00  0.00    +0.000 A 
ATOM      8  C   UNL     1       1.602   9.548  18.070  0.00  0.00    +0.000 A 
ATOM      9  C   UNL     1       2.041   8.223  18.032  0.00  0.00    +0.000 A 
ATOM     10  C   UNL     1       2.069   7.444  19.190  0.00  0.00    +0.000 A 
ATOM     11  C   UNL     1       1.618   8.007  20.388  0.00  0.00    +0.000 A 
ATOM     12  C   UNL     1       1.186   9.341  20.428  0.00  0.00    +0.000 A 
ENDBRANCH   2  10
ENDBRANCH   1   3
BRANCH   1  13
ATOM     13  S   UNL     1       2.441   2.908  18.231  0.00  0.00    +0.000 S 
BRANCH  13  14
ATOM     14  C   UNL     1       4.183   2.558  17.766  0.00  0.00    +0.000 C 
BRANCH  14  15
ATOM     15  C   UNL     1       4.901   3.883  17.604  0.00  0.00    +0.000 A 
ATOM     16  C   UNL     1       4.568   4.724  16.606  0.00  0.00    +0.000 A 
ATOM     17  C   UNL     1       5.330   5.975  16.421  0.00  0.00    +0.000 A 
ATOM     18  O   UNL     1       5.054   6.729  15.492  0.00  0.00    +0.000 OA
ATOM     19  N   UNL     1       6.326   6.172  17.344  0.00  0.00    +0.000 N 
ATOM     20  C   UNL     1       7.176   7.258  17.368  0.00  0.00    +0.000 A 
ATOM     21  C   UNL     1       8.058   7.233  18.374  0.00  0.00    +0.000 A 
ATOM     22  S   UNL     1       7.858   5.812  19.364  0.00  0.00    +0.000 S 
ATOM     23  C   UNL     1       6.541   5.253  18.345  0.00  0.00    +0.000 A 
ATOM     24  N   UNL     1       5.891   4.154  18.528  0.00  0.00    +0.000 NA
ENDBRANCH  14  15
ENDBRANCH  13  14
ENDBRANCH   1  13
TORSDOF 5
ENDMDL
MODEL 4
REMARK VINA RESULT:      -6.4      1.303      1.728
REMARK  Name = 
REMARK  6 active torsions:
REMARK  status: ('A' for Active; 'I' for Inactive)
REMARK    1  A    between atoms: C_1  and  C_2
REMARK    2  A    between atoms: C_5  and  N_6
REMARK    3  A    between atoms: C_7  and  C_9
REMARK    4  A    between atoms: C_9  and  S_10
REMARK    5  A    between atoms: S_10  and  C_11
REMARK    6  A    between atoms: C_11  and  C_12
REMARK                            x       y       z     vdW  Elec       q    Type
REMARK                         _______ _______ _______ _____ _____    ______ ____
ROOT
ATOM      1  C   UNL     1       2.518   3.298  19.552  0.00  0.00    +0.000 C 
ENDROOT
BRANCH   1   3
ATOM      2  N   UNL     1       2.437   5.693  19.079  0.00  0.00    +0.000 N 
ATOM      3  C   UNL     1       1.837   4.639  19.753  0.00  0.00    +0.000 C 
ATOM      4  O   UNL     1       0.822   4.707  20.443  0.00  0.00    +0.000 OA
ATOM      5  H   UNL     1       3.186   5.462  18.434  0.00  0.00    +0.000 HD
BRANCH   2  10
ATOM      6  C   UNL     1       0.934  11.223  19.300  0.00  0.00    +0.000 C 
ATOM      7  C   UNL     1       1.337   9.779  19.253  0.00  0.00    +0.000 A 
ATOM      8  C   UNL     1       1.223   8.977  20.386  0.00  0.00    +0.000 A 
ATOM      9  C   UNL     1       1.585   7.629  20.345  0.00  0.00    +0.000 A 
ATOM     10  C   UNL     1       2.070   7.053  19.169  0.00  0.00    +0.000 A 
ATOM     11  C   UNL     1       2.215   7.861  18.037  0.00  0.00    +0.000 A 
ATOM     12  C   UNL     1       1.841   9.212  18.076  0.00  0.00    +0.000 A 
ENDBRANCH   2  10
ENDBRANCH   1   3
BRANCH   1  13
ATOM     13  S   UNL     1       2.505   2.781  17.809  0.00  0.00    +0.000 S 
BRANCH  13  14
ATOM     14  C   UNL     1       4.298   2.477  17.559  0.00  0.00    +0.000 C 
BRANCH  14  15
ATOM     15  C   UNL     1       4.993   3.820  17.456  0.00  0.00    +0.000 A 
ATOM     16  C   UNL     1       4.688   4.674  16.460  0.00  0.00    +0.000 A 
ATOM     17  C   UNL     1       5.430   5.945  16.335  0.00  0.00    +0.000 A 
ATOM     18  O   UNL     1       5.180   6.710  15.408  0.00  0.00    +0.000 OA
ATOM     19  N   UNL     1       6.376   6.146  17.308  0.00  0.00    +0.000 N 
ATOM     20  C   UNL     1       7.198   7.249  17.393  0.00  0.00    +0.000 A 
ATOM     21  C   UNL     1       8.032   7.223  18.439  0.00  0.00    +0.000 A 
ATOM     22  S   UNL     1       7.818   5.779  19.391  0.00  0.00    +0.000 S 
ATOM     23  C   UNL     1       6.564   5.212  18.301  0.00  0.00    +0.000 A 
ATOM     24  N   UNL     1       5.932   4.095  18.432  0.00  0.00    +0.000 NA
ENDBRANCH  14  15
ENDBRANCH  13  14
ENDBRANCH   1  13
TORSDOF 5
ENDMDL
MODEL 5
REMARK VINA RESULT:      -6.3      3.752      5.918
REMARK  Name = 
REMARK  6 active torsions:
REMARK  status: ('A' for Active; 'I' for Inactive)
REMARK    1  A    between atoms: C_1  and  C_2
REMARK    2  A    between atoms: C_5  and  N_6
REMARK    3  A    between atoms: C_7  and  C_9
REMARK    4  A    between atoms: C_9  and  S_10
REMARK    5  A    between atoms: S_10  and  C_11
REMARK    6  A    between atoms: C_11  and  C_12
REMARK                            x       y       z     vdW  Elec       q    Type
REMARK                         _______ _______ _______ _____ _____    ______ ____
ROOT
ATOM      1  C   UNL     1       1.936  10.116  18.155  0.00  0.00    +0.000 C 
ENDROOT
BRANCH   1   3
ATOM      2  N   UNL     1       0.811  11.086  20.094  0.00  0.00    +0.000 N 
ATOM      3  C   UNL     1       0.647  10.383  18.909  0.00  0.00    +0.000 C 
ATOM      4  O   UNL     1      -0.424  10.008  18.434  0.00  0.00    +0.000 OA
ATOM      5  H   UNL     1       1.737  11.453  20.289  0.00  0.00    +0.000 HD
BRANCH   2  10
ATOM      6  C   UNL     1      -3.379  12.355  23.799  0.00  0.00    +0.000 C 
ATOM      7  C   UNL     1      -2.274  12.026  22.841  0.00  0.00    +0.000 A 
ATOM      8  C   UNL     1      -1.369  11.005  23.129  0.00  0.00    +0.000 A 
ATOM      9  C   UNL     1      -0.344  10.687  22.235  0.00  0.00    +0.000 A 
ATOM     10  C   UNL     1      -0.202  11.381  21.032  0.00  0.00    +0.000 A 
ATOM     11  C   UNL     1      -1.089  12.426  20.751  0.00  0.00    +0.000 A 
ATOM     12  C   UNL     1      -2.123  12.739  21.644  0.00  0.00    +0.000 A 
ENDBRANCH   2  10
ENDBRANCH   1   3
BRANCH   1  13
ATOM     13  S   UNL     1       2.214   8.340  17.888  0.00  0.00    +0.000 S 
BRANCH  13  14
ATOM     14  C   UNL     1       2.132   7.745  19.623  0.00  0.00    +0.000 C 
BRANCH  14  15
ATOM     15  C   UNL     1       2.253   6.234  19.608  0.00  0.00    +0.000 A 
ATOM     16  C   UNL     1       1.787   5.500  20.637  0.00  0.00    +0.000 A 
ATOM     17  C   UNL     1       1.982   4.036  20.637  0.00  0.00    +0.000 A 
ATOM     18  O   UNL     1       1.590   3.367  21.588  0.00  0.00    +0.000 OA
ATOM     19  N   UNL     1       2.622   3.551  19.525  0.00  0.00    +0.000 N 
ATOM     20  C   UNL     1       2.926   2.224  19.305  0.00  0.00    +0.000 A 
ATOM     21  C   UNL     1       3.543   1.996  18.140  0.00  0.00    +0.000 A 
ATOM     22  S   UNL     1       3.775   3.470  17.240  0.00  0.00    +0.000 S 
ATOM     23  C   UNL     1       3.015   4.403  18.519  0.00  0.00    +0.000 A 
ATOM     24  N   UNL     1       2.858   5.684  18.495  0.00  0.00    +0.000 NA
ENDBRANCH  14  15
ENDBRANCH  13  14
ENDBRANCH   1  13
TORSDOF 5
ENDMDL
MODEL 6
REMARK VINA RESULT:      -6.2      1.041      1.274
REMARK  Name = 
REMARK  6 active torsions:
REMARK  status: ('A' for Active; 'I' for Inactive)
REMARK    1  A    between atoms: C_1  and  C_2
REMARK    2  A    between atoms: C_5  and  N_6
REMARK    3  A    between atoms: C_7  and  C_9
REMARK    4  A    between atoms: C_9  and  S_10
REMARK    5  A    between atoms: S_10  and  C_11
REMARK    6  A    between atoms: C_11  and  C_12
REMARK                            x       y       z     vdW  Elec       q    Type
REMARK                         _______ _______ _______ _____ _____    ______ ____
ROOT
ATOM      1  C   UNL     1       2.390   4.043  20.425  0.00  0.00    +0.000 C 
ENDROOT
BRANCH   1   3
ATOM      2  N   UNL     1       2.089   6.467  20.447  0.00  0.00    +0.000 N 
ATOM      3  C   UNL     1       2.104   5.323  19.662  0.00  0.00    +0.000 C 
ATOM      4  O   UNL     1       1.944   5.281  18.443  0.00  0.00    +0.000 OA
ATOM      5  H   UNL     1       2.379   6.367  21.414  0.00  0.00    +0.000 HD
BRANCH   2  10
ATOM      6  C   UNL     1       0.734  11.797  18.822  0.00  0.00    +0.000 C 
ATOM      7  C   UNL     1       1.079  10.399  19.237  0.00  0.00    +0.000 A 
ATOM      8  C   UNL     1       1.617   9.501  18.317  0.00  0.00    +0.000 A 
ATOM      9  C   UNL     1       1.950   8.201  18.700  0.00  0.00    +0.000 A 
ATOM     10  C   UNL     1       1.755   7.768  20.013  0.00  0.00    +0.000 A 
ATOM     11  C   UNL     1       1.188   8.655  20.933  0.00  0.00    +0.000 A 
ATOM     12  C   UNL     1       0.862   9.964  20.551  0.00  0.00    +0.000 A 
ENDBRANCH   2  10
ENDBRANCH   1   3
BRANCH   1  13
ATOM     13  S   UNL     1       2.169   2.567  19.387  0.00  0.00    +0.000 S 
BRANCH  13  14
ATOM     14  C   UNL     1       3.924   2.072  19.170  0.00  0.00    +0.000 C 
BRANCH  14  15
ATOM     15  C   UNL     1       4.653   3.210  18.484  0.00  0.00    +0.000 A 
ATOM     16  C   UNL     1       4.390   3.514  17.198  0.00  0.00    +0.000 A 
ATOM     17  C   UNL     1       5.165   4.578  16.527  0.00  0.00    +0.000 A 
ATOM     18  O   UNL     1       4.954   4.836  15.346  0.00  0.00    +0.000 OA
ATOM     19  N   UNL     1       6.094   5.192  17.328  0.00  0.00    +0.000 N 
ATOM     20  C   UNL     1       6.940   6.203  16.923  0.00  0.00    +0.000 A 
ATOM     21  C   UNL     1       7.751   6.650  17.889  0.00  0.00    +0.000 A 
ATOM     22  S   UNL     1       7.481   5.806  19.391  0.00  0.00    +0.000 S 
ATOM     23  C   UNL     1       6.238   4.816  18.644  0.00  0.00    +0.000 A 
ATOM     24  N   UNL     1       5.576   3.891  19.253  0.00  0.00    +0.000 NA
ENDBRANCH  14  15
ENDBRANCH  13  14
ENDBRANCH   1  13
TORSDOF 5
ENDMDL
MODEL 7
REMARK VINA RESULT:      -6.2      3.867      6.919
REMARK  Name = 
REMARK  6 active torsions:
REMARK  status: ('A' for Active; 'I' for Inactive)
REMARK    1  A    between atoms: C_1  and  C_2
REMARK    2  A    between atoms: C_5  and  N_6
REMARK    3  A    between atoms: C_7  and  C_9
REMARK    4  A    between atoms: C_9  and  S_10
REMARK    5  A    between atoms: S_10  and  C_11
REMARK    6  A    between atoms: C_11  and  C_12
REMARK                            x       y       z     vdW  Elec       q    Type
REMARK                         _______ _______ _______ _____ _____    ______ ____
ROOT
ATOM      1  C   UNL     1       7.644   6.567  18.370  0.00  0.00    +0.000 C 
ENDROOT
BRANCH   1   3
ATOM      2  N   UNL     1       8.807   8.593  19.083  0.00  0.00    +0.000 N 
ATOM      3  C   UNL     1       8.013   8.014  18.104  0.00  0.00    +0.000 C 
ATOM      4  O   UNL     1       7.634   8.557  17.068  0.00  0.00    +0.000 OA
ATOM      5  H   UNL     1       9.161   7.981  19.812  0.00  0.00    +0.000 HD
BRANCH   2  10
ATOM      6  C   UNL     1      10.413  14.098  19.149  0.00  0.00    +0.000 C 
ATOM      7  C   UNL     1      10.004  12.655  19.140  0.00  0.00    +0.000 A 
ATOM      8  C   UNL     1       9.729  11.991  20.334  0.00  0.00    +0.000 A 
ATOM      9  C   UNL     1       9.337  10.651  20.331  0.00  0.00    +0.000 A 
ATOM     10  C   UNL     1       9.211   9.944  19.134  0.00  0.00    +0.000 A 
ATOM     11  C   UNL     1       9.515  10.597  17.935  0.00  0.00    +0.000 A 
ATOM     12  C   UNL     1       9.899  11.945  17.937  0.00  0.00    +0.000 A 
ENDBRANCH   2  10
ENDBRANCH   1   3
BRANCH   1  13
ATOM     13  S   UNL     1       6.659   5.854  17.019  0.00  0.00    +0.000 S 
BRANCH  13  14
ATOM     14  C   UNL     1       5.100   6.800  17.235  0.00  0.00    +0.000 C 
BRANCH  14  15
ATOM     15  C   UNL     1       4.110   5.914  17.964  0.00  0.00    +0.000 A 
ATOM     16  C   UNL     1       3.327   6.420  18.936  0.00  0.00    +0.000 A 
ATOM     17  C   UNL     1       2.423   5.523  19.685  0.00  0.00    +0.000 A 
ATOM     18  O   UNL     1       1.732   5.971  20.595  0.00  0.00    +0.000 OA
ATOM     19  N   UNL     1       2.455   4.215  19.273  0.00  0.00    +0.000 N 
ATOM     20  C   UNL     1       1.710   3.195  19.826  0.00  0.00    +0.000 A 
ATOM     21  C   UNL     1       1.905   2.005  19.245  0.00  0.00    +0.000 A 
ATOM     22  S   UNL     1       3.059   2.112  17.943  0.00  0.00    +0.000 S 
ATOM     23  C   UNL     1       3.272   3.831  18.235  0.00  0.00    +0.000 A 
ATOM     24  N   UNL     1       4.071   4.592  17.567  0.00  0.00    +0.000 NA
ENDBRANCH  14  15
ENDBRANCH  13  14
ENDBRANCH   1  13
TORSDOF 5
ENDMDL
MODEL 8
REMARK VINA RESULT:      -6.2      3.765      5.948
REMARK  Name = 
REMARK  6 active torsions:
REMARK  status: ('A' for Active; 'I' for Inactive)
REMARK    1  A    between atoms: C_1  and  C_2
REMARK    2  A    between atoms: C_5  and  N_6
REMARK    3  A    between atoms: C_7  and  C_9
REMARK    4  A    between atoms: C_9  and  S_10
REMARK    5  A    between atoms: S_10  and  C_11
REMARK    6  A    between atoms: C_11  and  C_12
REMARK                            x       y       z     vdW  Elec       q    Type
REMARK                         _______ _______ _______ _____ _____    ______ ____
ROOT
ATOM      1  C   UNL     1       2.149   9.745  18.198  0.00  0.00    +0.000 C 
ENDROOT
BRANCH   1   3
ATOM      2  N   UNL     1      -0.199  10.171  17.677  0.00  0.00    +0.000 N 
ATOM      3  C   UNL     1       0.744  10.042  18.687  0.00  0.00    +0.000 C 
ATOM      4  O   UNL     1       0.524  10.114  19.894  0.00  0.00    +0.000 OA
ATOM      5  H   UNL     1       0.101   9.945  16.734  0.00  0.00    +0.000 HD
BRANCH   2  10
ATOM      6  C   UNL     1      -5.731  11.533  18.328  0.00  0.00    +0.000 C 
ATOM      7  C   UNL     1      -4.282  11.190  18.152  0.00  0.00    +0.000 A 
ATOM      8  C   UNL     1      -3.292  11.997  18.709  0.00  0.00    +0.000 A 
ATOM      9  C   UNL     1      -1.942  11.676  18.557  0.00  0.00    +0.000 A 
ATOM     10  C   UNL     1      -1.551  10.540  17.846  0.00  0.00    +0.000 A 
ATOM     11  C   UNL     1      -2.539   9.743  17.260  0.00  0.00    +0.000 A 
ATOM     12  C   UNL     1      -3.895  10.060  17.420  0.00  0.00    +0.000 A 
ENDBRANCH   2  10
ENDBRANCH   1   3
BRANCH   1  13
ATOM     13  S   UNL     1       2.443   7.962  18.007  0.00  0.00    +0.000 S 
BRANCH  13  14
ATOM     14  C   UNL     1       2.232   7.421  19.749  0.00  0.00    +0.000 C 
BRANCH  14  15
ATOM     15  C   UNL     1       2.372   5.912  19.793  0.00  0.00    +0.000 A 
ATOM     16  C   UNL     1       2.043   5.227  20.905  0.00  0.00    +0.000 A 
ATOM     17  C   UNL     1       2.258   3.767  20.953  0.00  0.00    +0.000 A 
ATOM     18  O   UNL     1       1.993   3.142  21.975  0.00  0.00    +0.000 OA
ATOM     19  N   UNL     1       2.767   3.232  19.796  0.00  0.00    +0.000 N 
ATOM     20  C   UNL     1       3.061   1.898  19.606  0.00  0.00    +0.000 A 
ATOM     21  C   UNL     1       3.537   1.617  18.387  0.00  0.00    +0.000 A 
ATOM     22  S   UNL     1       3.637   3.047  17.395  0.00  0.00    +0.000 S 
ATOM     23  C   UNL     1       3.023   4.036  18.709  0.00  0.00    +0.000 A 
ATOM     24  N   UNL     1       2.846   5.312  18.643  0.00  0.00    +0.000 NA
ENDBRANCH  14  15
ENDBRANCH  13  14
ENDBRANCH   1  13
TORSDOF 5
ENDMDL
MODEL 9
REMARK VINA RESULT:      -6.2      1.916      4.433
REMARK  Name = 
REMARK  6 active torsions:
REMARK  status: ('A' for Active; 'I' for Inactive)
REMARK    1  A    between atoms: C_1  and  C_2
REMARK    2  A    between atoms: C_5  and  N_6
REMARK    3  A    between atoms: C_7  and  C_9
REMARK    4  A    between atoms: C_9  and  S_10
REMARK    5  A    between atoms: S_10  and  C_11
REMARK    6  A    between atoms: C_11  and  C_12
REMARK                            x       y       z     vdW  Elec       q    Type
REMARK                         _______ _______ _______ _____ _____    ______ ____
ROOT
ATOM      1  C   UNL     1       5.799   6.236  15.922  0.00  0.00    +0.000 C 
ENDROOT
BRANCH   1   3
ATOM      2  N   UNL     1       3.785   7.072  17.024  0.00  0.00    +0.000 N 
ATOM      3  C   UNL     1       5.112   6.705  17.192  0.00  0.00    +0.000 C 
ATOM      4  O   UNL     1       5.732   6.701  18.254  0.00  0.00    +0.000 OA
ATOM      5  H   UNL     1       3.366   6.888  16.118  0.00  0.00    +0.000 HD
BRANCH   2  10
ATOM      6  C   UNL     1       0.317   9.432  20.934  0.00  0.00    +0.000 C 
ATOM      7  C   UNL     1       1.235   8.815  19.921  0.00  0.00    +0.000 A 
ATOM      8  C   UNL     1       1.860   7.597  20.183  0.00  0.00    +0.000 A 
ATOM      9  C   UNL     1       2.707   7.013  19.240  0.00  0.00    +0.000 A 
ATOM     10  C   UNL     1       2.947   7.632  18.011  0.00  0.00    +0.000 A 
ATOM     11  C   UNL     1       2.345   8.868  17.755  0.00  0.00    +0.000 A 
ATOM     12  C   UNL     1       1.488   9.451  18.699  0.00  0.00    +0.000 A 
ENDBRANCH   2  10
ENDBRANCH   1   3
BRANCH   1  13
ATOM     13  S   UNL     1       5.310   4.546  15.466  0.00  0.00    +0.000 S 
BRANCH  13  14
ATOM     14  C   UNL     1       5.598   3.694  17.067  0.00  0.00    +0.000 C 
BRANCH  14  15
ATOM     15  C   UNL     1       4.263   3.554  17.772  0.00  0.00    +0.000 A 
ATOM     16  C   UNL     1       3.115   3.838  17.126  0.00  0.00    +0.000 A 
ATOM     17  C   UNL     1       1.832   3.767  17.853  0.00  0.00    +0.000 A 
ATOM     18  O   UNL     1       0.787   4.058  17.279  0.00  0.00    +0.000 OA
ATOM     19  N   UNL     1       1.945   3.374  19.163  0.00  0.00    +0.000 N 
ATOM     20  C   UNL     1       0.890   3.247  20.042  0.00  0.00    +0.000 A 
ATOM     21  C   UNL     1       1.251   2.838  21.264  0.00  0.00    +0.000 A 
ATOM     22  S   UNL     1       2.972   2.584  21.371  0.00  0.00    +0.000 S 
ATOM     23  C   UNL     1       3.176   3.072  19.696  0.00  0.00    +0.000 A 
ATOM     24  N   UNL     1       4.311   3.127  19.085  0.00  0.00    +0.000 NA
ENDBRANCH  14  15
ENDBRANCH  13  14
ENDBRANCH   1  13
TORSDOF 5
ENDMDL
