MODEL 1
REMARK VINA RESULT:      -8.7      0.000      0.000
REMARK  Name = 
REMARK  6 active torsions:
REMARK  status: ('A' for Active; 'I' for Inactive)
REMARK    1  A    between atoms: C_2  and  C_21
REMARK    2  A    between atoms: N_3  and  C_4
REMARK    3  A    between atoms: C_4  and  C_5
REMARK    4  A    between atoms: C_4  and  C_12
REMARK    5  A    between atoms: C_5  and  C_6
REMARK    6  A    between atoms: C_17  and  O_18
REMARK                            x       y       z     vdW  Elec       q    Type
REMARK                         _______ _______ _______ _____ _____    ______ ____
ROOT
ATOM      1  C   UNL     1       3.495   6.513  18.442  0.00  0.00    +0.000 C 
ENDROOT
BRANCH   1   2
ATOM      2  C   UNL     1       2.578   5.358  17.943  0.00  0.00    +0.000 C 
ATOM      3  O   UNL     1       1.397   5.563  17.650  0.00  0.00    +0.000 OA
ATOM      4  N   UNL     1       3.101   4.066  17.897  0.00  0.00    +0.000 N 
ATOM      5  C   UNL     1       4.399   3.648  18.427  0.00  0.00    +0.000 C 
ATOM      6  C   UNL     1       4.188   2.752  19.646  0.00  0.00    +0.000 C 
ATOM      7  C   UNL     1       3.281   1.564  19.314  0.00  0.00    +0.000 C 
ATOM      8  C   UNL     1       1.978   2.008  18.642  0.00  0.00    +0.000 C 
ATOM      9  C   UNL     1       2.235   2.964  17.477  0.00  0.00    +0.000 C 
BRANCH   7  10
ATOM     10  O   UNL     1       3.977   0.626  18.494  0.00  0.00    +0.000 OA
ATOM     11  H   UNL     1       4.734   0.266  18.984  0.00  0.00    +0.000 HD
ENDBRANCH   7  10
ENDBRANCH   1   2
BRANCH   1  14
ATOM     12  O   UNL     1       2.034   6.216  20.921  0.00  0.00    +0.000 OA
ATOM     13  C   UNL     1       1.968   7.266  20.301  0.00  0.00    +0.000 C 
ATOM     14  N   UNL     1       2.627   7.484  19.114  0.00  0.00    +0.000 N 
ATOM     15  H   UNL     1       2.564   8.391  18.677  0.00  0.00    +0.000 HD
BRANCH  13  16
ATOM     16  C   UNL     1       1.186   8.407  20.744  0.00  0.00    +0.000 A 
ATOM     17  C   UNL     1       0.742   8.748  22.008  0.00  0.00    +0.000 A 
ATOM     18  C   UNL     1      -0.082   9.894  21.912  0.00  0.00    +0.000 A 
ATOM     19  C   UNL     1      -0.837  10.614  22.854  0.00  0.00    +0.000 A 
ATOM     20  C   UNL     1      -1.637  11.665  22.409  0.00  0.00    +0.000 A 
ATOM     21 CL   UNL     1      -2.618  12.510  23.546  0.00  0.00    +0.000 Cl
ATOM     22  C   UNL     1      -1.667  12.023  21.063  0.00  0.00    +0.000 A 
ATOM     23  C   UNL     1      -0.883  11.345  20.118  0.00  0.00    +0.000 A 
ATOM     24  C   UNL     1      -0.105  10.273  20.573  0.00  0.00    +0.000 A 
ATOM     25  N   UNL     1       0.729   9.402  19.896  0.00  0.00    +0.000 N 
ATOM     26  H   UNL     1       0.935   9.442  18.906  0.00  0.00    +0.000 HD
ENDBRANCH  13  16
ENDBRANCH   1  14
BRANCH   1  27
ATOM     27  C   UNL     1       4.228   7.197  17.270  0.00  0.00    +0.000 C 
BRANCH  27  28
ATOM     28  C   UNL     1       5.317   6.354  16.645  0.00  0.00    +0.000 A 
ATOM     29  C   UNL     1       5.159   5.843  15.348  0.00  0.00    +0.000 A 
ATOM     30  C   UNL     1       6.137   5.025  14.782  0.00  0.00    +0.000 A 
ATOM     31  C   UNL     1       7.285   4.712  15.506  0.00  0.00    +0.000 A 
ATOM     32  C   UNL     1       7.461   5.228  16.788  0.00  0.00    +0.000 A 
ATOM     33  C   UNL     1       6.487   6.053  17.352  0.00  0.00    +0.000 A 
ENDBRANCH  27  28
ENDBRANCH   1  27
TORSDOF 6
ENDMDL
MODEL 2
REMARK VINA RESULT:      -8.7      1.971      4.288
REMARK  Name = 
REMARK  6 active torsions:
REMARK  status: ('A' for Active; 'I' for Inactive)
REMARK    1  A    between atoms: C_2  and  C_21
REMARK    2  A    between atoms: N_3  and  C_4
REMARK    3  A    between atoms: C_4  and  C_5
REMARK    4  A    between atoms: C_4  and  C_12
REMARK    5  A    between atoms: C_5  and  C_6
REMARK    6  A    between atoms: C_17  and  O_18
REMARK                            x       y       z     vdW  Elec       q    Type
REMARK                         _______ _______ _______ _____ _____    ______ ____
ROOT
ATOM      1  C   UNL     1       2.518   6.135  17.904  0.00  0.00    +0.000 C 
ENDROOT
BRANCH   1   2
ATOM      2  C   UNL     1       3.846   5.770  18.630  0.00  0.00    +0.000 C 
ATOM      3  O   UNL     1       4.014   6.038  19.822  0.00  0.00    +0.000 OA
ATOM      4  N   UNL     1       4.874   5.192  17.886  0.00  0.00    +0.000 N 
ATOM      5  C   UNL     1       4.894   5.032  16.432  0.00  0.00    +0.000 C 
ATOM      6  C   UNL     1       5.945   5.963  15.830  0.00  0.00    +0.000 C 
ATOM      7  C   UNL     1       7.321   5.733  16.463  0.00  0.00    +0.000 C 
ATOM      8  C   UNL     1       7.262   5.777  17.993  0.00  0.00    +0.000 C 
ATOM      9  C   UNL     1       6.146   4.891  18.545  0.00  0.00    +0.000 C 
BRANCH   7  10
ATOM     10  O   UNL     1       7.869   4.495  16.014  0.00  0.00    +0.000 OA
ATOM     11  H   UNL     1       7.509   4.279  15.138  0.00  0.00    +0.000 HD
ENDBRANCH   7  10
ENDBRANCH   1   2
BRANCH   1  14
ATOM     12  O   UNL     1       2.462   8.992  17.459  0.00  0.00    +0.000 OA
ATOM     13  C   UNL     1       1.881   8.517  18.423  0.00  0.00    +0.000 C 
ATOM     14  N   UNL     1       1.866   7.172  18.708  0.00  0.00    +0.000 N 
ATOM     15  H   UNL     1       1.330   6.843  19.495  0.00  0.00    +0.000 HD
BRANCH  13  16
ATOM     16  C   UNL     1       1.141   9.317  19.383  0.00  0.00    +0.000 A 
ATOM     17  C   UNL     1       0.885  10.676  19.403  0.00  0.00    +0.000 A 
ATOM     18  C   UNL     1       0.217  10.999  20.608  0.00  0.00    +0.000 A 
ATOM     19  C   UNL     1      -0.213  12.214  21.170  0.00  0.00    +0.000 A 
ATOM     20  C   UNL     1      -0.767  12.201  22.449  0.00  0.00    +0.000 A 
ATOM     21 CL   UNL     1      -1.233  13.693  23.174  0.00  0.00    +0.000 Cl
ATOM     22  C   UNL     1      -0.928  11.007  23.149  0.00  0.00    +0.000 A 
ATOM     23  C   UNL     1      -0.549   9.782  22.582  0.00  0.00    +0.000 A 
ATOM     24  C   UNL     1       0.034   9.811  21.308  0.00  0.00    +0.000 A 
ATOM     25  N   UNL     1       0.535   8.796  20.513  0.00  0.00    +0.000 N 
ATOM     26  H   UNL     1       0.520   7.811  20.746  0.00  0.00    +0.000 HD
ENDBRANCH  13  16
ENDBRANCH   1  14
BRANCH   1  27
ATOM     27  C   UNL     1       1.587   4.911  17.784  0.00  0.00    +0.000 C 
BRANCH  27  28
ATOM     28  C   UNL     1       1.696   3.936  18.936  0.00  0.00    +0.000 A 
ATOM     29  C   UNL     1       1.097   4.229  20.170  0.00  0.00    +0.000 A 
ATOM     30  C   UNL     1       1.232   3.358  21.251  0.00  0.00    +0.000 A 
ATOM     31  C   UNL     1       1.966   2.183  21.109  0.00  0.00    +0.000 A 
ATOM     32  C   UNL     1       2.550   1.873  19.883  0.00  0.00    +0.000 A 
ATOM     33  C   UNL     1       2.409   2.739  18.798  0.00  0.00    +0.000 A 
ENDBRANCH  27  28
ENDBRANCH   1  27
TORSDOF 6
ENDMDL
MODEL 3
REMARK VINA RESULT:      -8.6      1.981      4.201
REMARK  Name = 
REMARK  6 active torsions:
REMARK  status: ('A' for Active; 'I' for Inactive)
REMARK    1  A    between atoms: C_2  and  C_21
REMARK    2  A    between atoms: N_3  and  C_4
REMARK    3  A    between atoms: C_4  and  C_5
REMARK    4  A    between atoms: C_4  and  C_12
REMARK    5  A    between atoms: C_5  and  C_6
REMARK    6  A    between atoms: C_17  and  O_18
REMARK                            x       y       z     vdW  Elec       q    Type
REMARK                         _______ _______ _______ _____ _____    ______ ____
ROOT
ATOM      1  C   UNL     1       2.447   6.006  17.823  0.00  0.00    +0.000 C 
ENDROOT
BRANCH   1   2
ATOM      2  C   UNL     1       3.758   5.733  18.617  0.00  0.00    +0.000 C 
ATOM      3  O   UNL     1       3.871   6.074  19.797  0.00  0.00    +0.000 OA
ATOM      4  N   UNL     1       4.834   5.152  17.945  0.00  0.00    +0.000 N 
ATOM      5  C   UNL     1       4.915   4.911  16.505  0.00  0.00    +0.000 C 
ATOM      6  C   UNL     1       5.955   5.844  15.888  0.00  0.00    +0.000 C 
ATOM      7  C   UNL     1       7.313   5.703  16.583  0.00  0.00    +0.000 C 
ATOM      8  C   UNL     1       7.194   5.831  18.104  0.00  0.00    +0.000 C 
ATOM      9  C   UNL     1       6.089   4.937  18.666  0.00  0.00    +0.000 C 
BRANCH   7  10
ATOM     10  O   UNL     1       7.921   4.462  16.227  0.00  0.00    +0.000 OA
ATOM     11  H   UNL     1       7.387   4.022  15.544  0.00  0.00    +0.000 HD
ENDBRANCH   7  10
ENDBRANCH   1   2
BRANCH   1  14
ATOM     12  O   UNL     1       2.604   8.810  17.131  0.00  0.00    +0.000 OA
ATOM     13  C   UNL     1       1.912   8.456  18.073  0.00  0.00    +0.000 C 
ATOM     14  N   UNL     1       1.789   7.145  18.469  0.00  0.00    +0.000 N 
ATOM     15  H   UNL     1       1.165   6.917  19.227  0.00  0.00    +0.000 HD
BRANCH  13  16
ATOM     16  C   UNL     1       1.138   9.378  18.885  0.00  0.00    +0.000 A 
ATOM     17  C   UNL     1       0.982   9.443  20.258  0.00  0.00    +0.000 A 
ATOM     18  C   UNL     1       0.034  10.448  20.565  0.00  0.00    +0.000 A 
ATOM     19  C   UNL     1      -0.543  10.886  21.769  0.00  0.00    +0.000 A 
ATOM     20  C   UNL     1      -1.542  11.857  21.719  0.00  0.00    +0.000 A 
ATOM     21 CL   UNL     1      -2.303  12.350  23.183  0.00  0.00    +0.000 Cl
ATOM     22  C   UNL     1      -1.942  12.413  20.506  0.00  0.00    +0.000 A 
ATOM     23  C   UNL     1      -1.342  12.021  19.300  0.00  0.00    +0.000 A 
ATOM     24  C   UNL     1      -0.360  11.024  19.360  0.00  0.00    +0.000 A 
ATOM     25  N   UNL     1       0.376  10.410  18.363  0.00  0.00    +0.000 N 
ATOM     26  H   UNL     1       0.327  10.636  17.378  0.00  0.00    +0.000 HD
ENDBRANCH  13  16
ENDBRANCH   1  14
BRANCH   1  27
ATOM     27  C   UNL     1       1.508   4.782  17.849  0.00  0.00    +0.000 C 
BRANCH  27  28
ATOM     28  C   UNL     1       1.706   3.876  19.044  0.00  0.00    +0.000 A 
ATOM     29  C   UNL     1       1.053   4.150  20.255  0.00  0.00    +0.000 A 
ATOM     30  C   UNL     1       1.266   3.347  21.376  0.00  0.00    +0.000 A 
ATOM     31  C   UNL     1       2.133   2.260  21.296  0.00  0.00    +0.000 A 
ATOM     32  C   UNL     1       2.773   1.967  20.094  0.00  0.00    +0.000 A 
ATOM     33  C   UNL     1       2.554   2.765  18.970  0.00  0.00    +0.000 A 
ENDBRANCH  27  28
ENDBRANCH   1  27
TORSDOF 6
ENDMDL
MODEL 4
REMARK VINA RESULT:      -8.6      0.714      1.170
REMARK  Name = 
REMARK  6 active torsions:
REMARK  status: ('A' for Active; 'I' for Inactive)
REMARK    1  A    between atoms: C_2  and  C_21
REMARK    2  A    between atoms: N_3  and  C_4
REMARK    3  A    between atoms: C_4  and  C_5
REMARK    4  A    between atoms: C_4  and  C_12
REMARK    5  A    between atoms: C_5  and  C_6
REMARK    6  A    between atoms: C_17  and  O_18
REMARK                            x       y       z     vdW  Elec       q    Type
REMARK                         _______ _______ _______ _____ _____    ______ ____
ROOT
ATOM      1  C   UNL     1       3.441   6.490  18.426  0.00  0.00    +0.000 C 
ENDROOT
BRANCH   1   2
ATOM      2  C   UNL     1       2.567   5.312  17.906  0.00  0.00    +0.000 C 
ATOM      3  O   UNL     1       1.391   5.488  17.577  0.00  0.00    +0.000 OA
ATOM      4  N   UNL     1       3.121   4.032  17.883  0.00  0.00    +0.000 N 
ATOM      5  C   UNL     1       4.411   3.646  18.454  0.00  0.00    +0.000 C 
ATOM      6  C   UNL     1       4.184   2.751  19.671  0.00  0.00    +0.000 C 
ATOM      7  C   UNL     1       3.315   1.541  19.319  0.00  0.00    +0.000 C 
ATOM      8  C   UNL     1       2.023   1.952  18.605  0.00  0.00    +0.000 C 
ATOM      9  C   UNL     1       2.293   2.908  17.444  0.00  0.00    +0.000 C 
BRANCH   7  10
ATOM     10  O   UNL     1       4.056   0.616  18.525  0.00  0.00    +0.000 OA
ATOM     11  H   UNL     1       5.007   0.750  18.673  0.00  0.00    +0.000 HD
ENDBRANCH   7  10
ENDBRANCH   1   2
BRANCH   1  14
ATOM     12  O   UNL     1       1.998   6.225  20.919  0.00  0.00    +0.000 OA
ATOM     13  C   UNL     1       1.884   7.246  20.258  0.00  0.00    +0.000 C 
ATOM     14  N   UNL     1       2.531   7.447  19.061  0.00  0.00    +0.000 N 
ATOM     15  H   UNL     1       2.427   8.331  18.589  0.00  0.00    +0.000 HD
BRANCH  13  16
ATOM     16  C   UNL     1       1.052   8.367  20.657  0.00  0.00    +0.000 A 
ATOM     17  C   UNL     1       0.732   9.528  19.978  0.00  0.00    +0.000 A 
ATOM     18  C   UNL     1      -0.021  10.368  20.833  0.00  0.00    +0.000 A 
ATOM     19  C   UNL     1      -0.539  11.667  20.688  0.00  0.00    +0.000 A 
ATOM     20  C   UNL     1      -1.167  12.263  21.780  0.00  0.00    +0.000 A 
ATOM     21 CL   UNL     1      -1.744  13.879  21.634  0.00  0.00    +0.000 Cl
ATOM     22  C   UNL     1      -1.313  11.578  22.985  0.00  0.00    +0.000 A 
ATOM     23  C   UNL     1      -0.844  10.264  23.130  0.00  0.00    +0.000 A 
ATOM     24  C   UNL     1      -0.189   9.687  22.035  0.00  0.00    +0.000 A 
ATOM     25  N   UNL     1       0.406   8.448  21.879  0.00  0.00    +0.000 N 
ATOM     26  H   UNL     1       0.423   7.717  22.580  0.00  0.00    +0.000 HD
ENDBRANCH  13  16
ENDBRANCH   1  14
BRANCH   1  27
ATOM     27  C   UNL     1       4.198   7.181  17.274  0.00  0.00    +0.000 C 
BRANCH  27  28
ATOM     28  C   UNL     1       5.307   6.346  16.672  0.00  0.00    +0.000 A 
ATOM     29  C   UNL     1       5.184   5.839  15.369  0.00  0.00    +0.000 A 
ATOM     30  C   UNL     1       6.180   5.029  14.825  0.00  0.00    +0.000 A 
ATOM     31  C   UNL     1       7.311   4.718  15.576  0.00  0.00    +0.000 A 
ATOM     32  C   UNL     1       7.452   5.229  16.864  0.00  0.00    +0.000 A 
ATOM     33  C   UNL     1       6.460   6.048  17.408  0.00  0.00    +0.000 A 
ENDBRANCH  27  28
ENDBRANCH   1  27
TORSDOF 6
ENDMDL
MODEL 5
REMARK VINA RESULT:      -8.5      0.932      1.464
REMARK  Name = 
REMARK  6 active torsions:
REMARK  status: ('A' for Active; 'I' for Inactive)
REMARK    1  A    between atoms: C_2  and  C_21
REMARK    2  A    between atoms: N_3  and  C_4
REMARK    3  A    between atoms: C_4  and  C_5
REMARK    4  A    between atoms: C_4  and  C_12
REMARK    5  A    between atoms: C_5  and  C_6
REMARK    6  A    between atoms: C_17  and  O_18
REMARK                            x       y       z     vdW  Elec       q    Type
REMARK                         _______ _______ _______ _____ _____    ______ ____
ROOT
ATOM      1  C   UNL     1       3.424   6.474  18.475  0.00  0.00    +0.000 C 
ENDROOT
BRANCH   1   2
ATOM      2  C   UNL     1       2.597   5.255  17.973  0.00  0.00    +0.000 C 
ATOM      3  O   UNL     1       1.406   5.373  17.671  0.00  0.00    +0.000 OA
ATOM      4  N   UNL     1       3.212   4.004  17.934  0.00  0.00    +0.000 N 
ATOM      5  C   UNL     1       4.533   3.682  18.474  0.00  0.00    +0.000 C 
ATOM      6  C   UNL     1       4.378   2.776  19.695  0.00  0.00    +0.000 C 
ATOM      7  C   UNL     1       3.561   1.525  19.360  0.00  0.00    +0.000 C 
ATOM      8  C   UNL     1       2.235   1.872  18.678  0.00  0.00    +0.000 C 
ATOM      9  C   UNL     1       2.430   2.841  17.512  0.00  0.00    +0.000 C 
BRANCH   7  10
ATOM     10  O   UNL     1       4.329   0.638  18.548  0.00  0.00    +0.000 OA
ATOM     11  H   UNL     1       3.815   0.391  17.762  0.00  0.00    +0.000 HD
ENDBRANCH   7  10
ENDBRANCH   1   2
BRANCH   1  14
ATOM     12  O   UNL     1       2.220   8.896  17.449  0.00  0.00    +0.000 OA
ATOM     13  C   UNL     1       1.950   8.516  18.578  0.00  0.00    +0.000 C 
ATOM     14  N   UNL     1       2.484   7.380  19.140  0.00  0.00    +0.000 N 
ATOM     15  H   UNL     1       2.183   7.100  20.061  0.00  0.00    +0.000 HD
BRANCH  13  16
ATOM     16  C   UNL     1       1.034   9.219  19.460  0.00  0.00    +0.000 A 
ATOM     17  C   UNL     1       0.241  10.327  19.223  0.00  0.00    +0.000 A 
ATOM     18  C   UNL     1      -0.389  10.707  20.432  0.00  0.00    +0.000 A 
ATOM     19  C   UNL     1      -1.230  11.779  20.778  0.00  0.00    +0.000 A 
ATOM     20  C   UNL     1      -1.612  11.926  22.111  0.00  0.00    +0.000 A 
ATOM     21 CL   UNL     1      -2.586  13.275  22.558  0.00  0.00    +0.000 Cl
ATOM     22  C   UNL     1      -1.199  11.014  23.080  0.00  0.00    +0.000 A 
ATOM     23  C   UNL     1      -0.399   9.913  22.741  0.00  0.00    +0.000 A 
ATOM     24  C   UNL     1       0.001   9.792  21.405  0.00  0.00    +0.000 A 
ATOM     25  N   UNL     1       0.804   8.857  20.776  0.00  0.00    +0.000 N 
ATOM     26  H   UNL     1       1.219   8.050  21.224  0.00  0.00    +0.000 HD
ENDBRANCH  13  16
ENDBRANCH   1  14
BRANCH   1  27
ATOM     27  C   UNL     1       4.110   7.209  17.305  0.00  0.00    +0.000 C 
BRANCH  27  28
ATOM     28  C   UNL     1       5.247   6.437  16.672  0.00  0.00    +0.000 A 
ATOM     29  C   UNL     1       5.105   5.894  15.386  0.00  0.00    +0.000 A 
ATOM     30  C   UNL     1       6.131   5.141  14.815  0.00  0.00    +0.000 A 
ATOM     31  C   UNL     1       7.311   4.926  15.522  0.00  0.00    +0.000 A 
ATOM     32  C   UNL     1       7.471   5.475  16.792  0.00  0.00    +0.000 A 
ATOM     33  C   UNL     1       6.449   6.235  17.362  0.00  0.00    +0.000 A 
ENDBRANCH  27  28
ENDBRANCH   1  27
TORSDOF 6
ENDMDL
MODEL 6
REMARK VINA RESULT:      -8.3      2.488      2.977
REMARK  Name = 
REMARK  6 active torsions:
REMARK  status: ('A' for Active; 'I' for Inactive)
REMARK    1  A    between atoms: C_2  and  C_21
REMARK    2  A    between atoms: N_3  and  C_4
REMARK    3  A    between atoms: C_4  and  C_5
REMARK    4  A    between atoms: C_4  and  C_12
REMARK    5  A    between atoms: C_5  and  C_6
REMARK    6  A    between atoms: C_17  and  O_18
REMARK                            x       y       z     vdW  Elec       q    Type
REMARK                         _______ _______ _______ _____ _____    ______ ____
ROOT
ATOM      1  C   UNL     1       2.850   6.722  18.188  0.00  0.00    +0.000 C 
ENDROOT
BRANCH   1   2
ATOM      2  C   UNL     1       2.280   5.276  18.111  0.00  0.00    +0.000 C 
ATOM      3  O   UNL     1       1.477   4.953  17.231  0.00  0.00    +0.000 OA
ATOM      4  N   UNL     1       2.644   4.364  19.101  0.00  0.00    +0.000 N 
ATOM      5  C   UNL     1       3.397   4.674  20.316  0.00  0.00    +0.000 C 
ATOM      6  C   UNL     1       2.480   4.542  21.532  0.00  0.00    +0.000 C 
ATOM      7  C   UNL     1       1.823   3.160  21.587  0.00  0.00    +0.000 C 
ATOM      8  C   UNL     1       1.147   2.794  20.263  0.00  0.00    +0.000 C 
ATOM      9  C   UNL     1       2.075   3.016  19.069  0.00  0.00    +0.000 C 
BRANCH   7  10
ATOM     10  O   UNL     1       2.785   2.171  21.952  0.00  0.00    +0.000 OA
ATOM     11  H   UNL     1       3.184   1.795  21.150  0.00  0.00    +0.000 HD
ENDBRANCH   7  10
ENDBRANCH   1   2
BRANCH   1  14
ATOM     12  O   UNL     1       2.844   9.614  18.101  0.00  0.00    +0.000 OA
ATOM     13  C   UNL     1       1.785   9.005  18.106  0.00  0.00    +0.000 C 
ATOM     14  N   UNL     1       1.702   7.633  18.152  0.00  0.00    +0.000 N 
ATOM     15  H   UNL     1       0.796   7.194  18.109  0.00  0.00    +0.000 HD
BRANCH  13  16
ATOM     16  C   UNL     1       0.489   9.659  18.066  0.00  0.00    +0.000 A 
ATOM     17  C   UNL     1      -0.072  10.584  18.927  0.00  0.00    +0.000 A 
ATOM     18  C   UNL     1      -1.405  10.836  18.526  0.00  0.00    +0.000 A 
ATOM     19  C   UNL     1      -2.437  11.621  19.068  0.00  0.00    +0.000 A 
ATOM     20  C   UNL     1      -3.696  11.579  18.471  0.00  0.00    +0.000 A 
ATOM     21 CL   UNL     1      -4.985  12.483  19.169  0.00  0.00    +0.000 Cl
ATOM     22  C   UNL     1      -3.925  10.802  17.336  0.00  0.00    +0.000 A 
ATOM     23  C   UNL     1      -2.893  10.051  16.755  0.00  0.00    +0.000 A 
ATOM     24  C   UNL     1      -1.641  10.080  17.382  0.00  0.00    +0.000 A 
ATOM     25  N   UNL     1      -0.456   9.432  17.079  0.00  0.00    +0.000 N 
ATOM     26  H   UNL     1      -0.310   8.826  16.282  0.00  0.00    +0.000 HD
ENDBRANCH  13  16
ENDBRANCH   1  14
BRANCH   1  27
ATOM     27  C   UNL     1       3.786   7.023  16.999  0.00  0.00    +0.000 C 
BRANCH  27  28
ATOM     28  C   UNL     1       5.005   6.130  16.931  0.00  0.00    +0.000 A 
ATOM     29  C   UNL     1       6.117   6.387  17.747  0.00  0.00    +0.000 A 
ATOM     30  C   UNL     1       7.263   5.597  17.656  0.00  0.00    +0.000 A 
ATOM     31  C   UNL     1       7.308   4.540  16.751  0.00  0.00    +0.000 A 
ATOM     32  C   UNL     1       6.204   4.264  15.948  0.00  0.00    +0.000 A 
ATOM     33  C   UNL     1       5.053   5.048  16.043  0.00  0.00    +0.000 A 
ENDBRANCH  27  28
ENDBRANCH   1  27
TORSDOF 6
ENDMDL
MODEL 7
REMARK VINA RESULT:      -8.3      1.696      2.121
REMARK  Name = 
REMARK  6 active torsions:
REMARK  status: ('A' for Active; 'I' for Inactive)
REMARK    1  A    between atoms: C_2  and  C_21
REMARK    2  A    between atoms: N_3  and  C_4
REMARK    3  A    between atoms: C_4  and  C_5
REMARK    4  A    between atoms: C_4  and  C_12
REMARK    5  A    between atoms: C_5  and  C_6
REMARK    6  A    between atoms: C_17  and  O_18
REMARK                            x       y       z     vdW  Elec       q    Type
REMARK                         _______ _______ _______ _____ _____    ______ ____
ROOT
ATOM      1  C   UNL     1       3.150   6.710  18.430  0.00  0.00    +0.000 C 
ENDROOT
BRANCH   1   2
ATOM      2  C   UNL     1       2.338   5.398  18.232  0.00  0.00    +0.000 C 
ATOM      3  O   UNL     1       1.505   5.294  17.328  0.00  0.00    +0.000 OA
ATOM      4  N   UNL     1       2.520   4.358  19.143  0.00  0.00    +0.000 N 
ATOM      5  C   UNL     1       3.297   4.430  20.381  0.00  0.00    +0.000 C 
ATOM      6  C   UNL     1       2.353   4.362  21.580  0.00  0.00    +0.000 C 
ATOM      7  C   UNL     1       1.463   3.117  21.519  0.00  0.00    +0.000 C 
ATOM      8  C   UNL     1       0.754   2.985  20.168  0.00  0.00    +0.000 C 
ATOM      9  C   UNL     1       1.726   3.138  18.998  0.00  0.00    +0.000 C 
BRANCH   7  10
ATOM     10  O   UNL     1       2.231   1.948  21.802  0.00  0.00    +0.000 OA
ATOM     11  H   UNL     1       1.699   1.329  22.329  0.00  0.00    +0.000 HD
ENDBRANCH   7  10
ENDBRANCH   1   2
BRANCH   1  14
ATOM     12  O   UNL     1       2.097   7.714  20.930  0.00  0.00    +0.000 OA
ATOM     13  C   UNL     1       1.729   8.208  19.875  0.00  0.00    +0.000 C 
ATOM     14  N   UNL     1       2.177   7.784  18.646  0.00  0.00    +0.000 N 
ATOM     15  H   UNL     1       1.866   8.266  17.817  0.00  0.00    +0.000 HD
BRANCH  13  16
ATOM     16  C   UNL     1       0.774   9.300  19.795  0.00  0.00    +0.000 A 
ATOM     17  C   UNL     1       0.270  10.119  20.788  0.00  0.00    +0.000 A 
ATOM     18  C   UNL     1      -0.722  10.960  20.230  0.00  0.00    +0.000 A 
ATOM     19  C   UNL     1      -1.589  11.918  20.783  0.00  0.00    +0.000 A 
ATOM     20  C   UNL     1      -2.538  12.518  19.958  0.00  0.00    +0.000 A 
ATOM     21 CL   UNL     1      -3.650  13.642  20.641  0.00  0.00    +0.000 Cl
ATOM     22  C   UNL     1      -2.610  12.206  18.602  0.00  0.00    +0.000 A 
ATOM     23  C   UNL     1      -1.720  11.287  18.025  0.00  0.00    +0.000 A 
ATOM     24  C   UNL     1      -0.790  10.669  18.870  0.00  0.00    +0.000 A 
ATOM     25  N   UNL     1       0.177   9.713  18.616  0.00  0.00    +0.000 N 
ATOM     26  H   UNL     1       0.384   9.321  17.707  0.00  0.00    +0.000 HD
ENDBRANCH  13  16
ENDBRANCH   1  14
BRANCH   1  27
ATOM     27  C   UNL     1       4.010   7.032  17.190  0.00  0.00    +0.000 C 
BRANCH  27  28
ATOM     28  C   UNL     1       5.210   6.127  17.018  0.00  0.00    +0.000 A 
ATOM     29  C   UNL     1       6.058   5.862  18.103  0.00  0.00    +0.000 A 
ATOM     30  C   UNL     1       7.193   5.067  17.942  0.00  0.00    +0.000 A 
ATOM     31  C   UNL     1       7.490   4.527  16.693  0.00  0.00    +0.000 A 
ATOM     32  C   UNL     1       6.646   4.770  15.611  0.00  0.00    +0.000 A 
ATOM     33  C   UNL     1       5.506   5.558  15.773  0.00  0.00    +0.000 A 
ENDBRANCH  27  28
ENDBRANCH   1  27
TORSDOF 6
ENDMDL
MODEL 8
REMARK VINA RESULT:      -8.2      1.588      1.988
REMARK  Name = 
REMARK  6 active torsions:
REMARK  status: ('A' for Active; 'I' for Inactive)
REMARK    1  A    between atoms: C_2  and  C_21
REMARK    2  A    between atoms: N_3  and  C_4
REMARK    3  A    between atoms: C_4  and  C_5
REMARK    4  A    between atoms: C_4  and  C_12
REMARK    5  A    between atoms: C_5  and  C_6
REMARK    6  A    between atoms: C_17  and  O_18
REMARK                            x       y       z     vdW  Elec       q    Type
REMARK                         _______ _______ _______ _____ _____    ______ ____
ROOT
ATOM      1  C   UNL     1       3.437   6.415  18.651  0.00  0.00    +0.000 C 
ENDROOT
BRANCH   1   2
ATOM      2  C   UNL     1       2.619   5.120  18.376  0.00  0.00    +0.000 C 
ATOM      3  O   UNL     1       1.879   5.030  17.393  0.00  0.00    +0.000 OA
ATOM      4  N   UNL     1       2.685   4.081  19.305  0.00  0.00    +0.000 N 
ATOM      5  C   UNL     1       3.335   4.143  20.614  0.00  0.00    +0.000 C 
ATOM      6  C   UNL     1       2.273   4.102  21.713  0.00  0.00    +0.000 C 
ATOM      7  C   UNL     1       1.366   2.877  21.566  0.00  0.00    +0.000 C 
ATOM      8  C   UNL     1       0.794   2.754  20.151  0.00  0.00    +0.000 C 
ATOM      9  C   UNL     1       1.881   2.878  19.084  0.00  0.00    +0.000 C 
BRANCH   7  10
ATOM     10  O   UNL     1       2.075   1.693  21.928  0.00  0.00    +0.000 OA
ATOM     11  H   UNL     1       2.879   1.618  21.388  0.00  0.00    +0.000 HD
ENDBRANCH   7  10
ENDBRANCH   1   2
BRANCH   1  14
ATOM     12  O   UNL     1       2.209   8.724  17.414  0.00  0.00    +0.000 OA
ATOM     13  C   UNL     1       1.964   8.459  18.581  0.00  0.00    +0.000 C 
ATOM     14  N   UNL     1       2.511   7.385  19.243  0.00  0.00    +0.000 N 
ATOM     15  H   UNL     1       2.231   7.199  20.193  0.00  0.00    +0.000 HD
BRANCH  13  16
ATOM     16  C   UNL     1       1.068   9.249  19.407  0.00  0.00    +0.000 A 
ATOM     17  C   UNL     1       0.361  10.399  19.110  0.00  0.00    +0.000 A 
ATOM     18  C   UNL     1      -0.284  10.858  20.283  0.00  0.00    +0.000 A 
ATOM     19  C   UNL     1      -1.063  11.993  20.567  0.00  0.00    +0.000 A 
ATOM     20  C   UNL     1      -1.480  12.207  21.880  0.00  0.00    +0.000 A 
ATOM     21 CL   UNL     1      -2.376  13.631  22.251  0.00  0.00    +0.000 Cl
ATOM     22  C   UNL     1      -1.165  11.300  22.890  0.00  0.00    +0.000 A 
ATOM     23  C   UNL     1      -0.430  10.138  22.612  0.00  0.00    +0.000 A 
ATOM     24  C   UNL     1       0.008   9.949  21.295  0.00  0.00    +0.000 A 
ATOM     25  N   UNL     1       0.768   8.944  20.724  0.00  0.00    +0.000 N 
ATOM     26  H   UNL     1       1.111   8.125  21.210  0.00  0.00    +0.000 HD
ENDBRANCH  13  16
ENDBRANCH   1  14
BRANCH   1  27
ATOM     27  C   UNL     1       4.030   6.993  17.349  0.00  0.00    +0.000 C 
BRANCH  27  28
ATOM     28  C   UNL     1       5.158   6.171  16.765  0.00  0.00    +0.000 A 
ATOM     29  C   UNL     1       5.199   5.902  15.389  0.00  0.00    +0.000 A 
ATOM     30  C   UNL     1       6.209   5.106  14.850  0.00  0.00    +0.000 A 
ATOM     31  C   UNL     1       7.191   4.573  15.681  0.00  0.00    +0.000 A 
ATOM     32  C   UNL     1       7.171   4.848  17.046  0.00  0.00    +0.000 A 
ATOM     33  C   UNL     1       6.166   5.651  17.586  0.00  0.00    +0.000 A 
ENDBRANCH  27  28
ENDBRANCH   1  27
TORSDOF 6
ENDMDL
MODEL 9
REMARK VINA RESULT:      -8.2      4.005      8.712
REMARK  Name = 
REMARK  6 active torsions:
REMARK  status: ('A' for Active; 'I' for Inactive)
REMARK    1  A    between atoms: C_2  and  C_21
REMARK    2  A    between atoms: N_3  and  C_4
REMARK    3  A    between atoms: C_4  and  C_5
REMARK    4  A    between atoms: C_4  and  C_12
REMARK    5  A    between atoms: C_5  and  C_6
REMARK    6  A    between atoms: C_17  and  O_18
REMARK                            x       y       z     vdW  Elec       q    Type
REMARK                         _______ _______ _______ _____ _____    ______ ____
ROOT
ATOM      1  C   UNL     1       3.090   6.865  18.935  0.00  0.00    +0.000 C 
ENDROOT
BRANCH   1   2
ATOM      2  C   UNL     1       2.253   8.106  18.507  0.00  0.00    +0.000 C 
ATOM      3  O   UNL     1       2.458   8.673  17.431  0.00  0.00    +0.000 OA
ATOM      4  N   UNL     1       1.306   8.610  19.399  0.00  0.00    +0.000 N 
ATOM      5  C   UNL     1       1.122   8.181  20.785  0.00  0.00    +0.000 C 
ATOM      6  C   UNL     1       1.559   9.300  21.728  0.00  0.00    +0.000 C 
ATOM      7  C   UNL     1       0.826  10.609  21.418  0.00  0.00    +0.000 C 
ATOM      8  C   UNL     1       0.920  10.980  19.935  0.00  0.00    +0.000 C 
ATOM      9  C   UNL     1       0.548   9.806  19.029  0.00  0.00    +0.000 C 
BRANCH   7  10
ATOM     10  O   UNL     1      -0.537  10.520  21.830  0.00  0.00    +0.000 OA
ATOM     11  H   UNL     1      -0.773  11.309  22.345  0.00  0.00    +0.000 HD
ENDBRANCH   7  10
ENDBRANCH   1   2
BRANCH   1  14
ATOM     12  O   UNL     1       5.841   6.068  18.532  0.00  0.00    +0.000 OA
ATOM     13  C   UNL     1       5.042   5.976  17.612  0.00  0.00    +0.000 C 
ATOM     14  N   UNL     1       3.720   6.339  17.721  0.00  0.00    +0.000 N 
ATOM     15  H   UNL     1       3.105   6.195  16.936  0.00  0.00    +0.000 HD
BRANCH  13  16
ATOM     16  C   UNL     1       5.394   5.473  16.296  0.00  0.00    +0.000 A 
ATOM     17  C   UNL     1       4.832   4.453  15.550  0.00  0.00    +0.000 A 
ATOM     18  C   UNL     1       5.601   4.265  14.377  0.00  0.00    +0.000 A 
ATOM     19  C   UNL     1       5.527   3.340  13.321  0.00  0.00    +0.000 A 
ATOM     20  C   UNL     1       6.519   3.362  12.342  0.00  0.00    +0.000 A 
ATOM     21 CL   UNL     1       6.476   2.189  11.081  0.00  0.00    +0.000 Cl
ATOM     22  C   UNL     1       7.547   4.302  12.383  0.00  0.00    +0.000 A 
ATOM     23  C   UNL     1       7.607   5.261  13.404  0.00  0.00    +0.000 A 
ATOM     24  C   UNL     1       6.622   5.210  14.398  0.00  0.00    +0.000 A 
ATOM     25  N   UNL     1       6.433   5.979  15.533  0.00  0.00    +0.000 N 
ATOM     26  H   UNL     1       7.006   6.767  15.806  0.00  0.00    +0.000 HD
ENDBRANCH  13  16
ENDBRANCH   1  14
BRANCH   1  27
ATOM     27  C   UNL     1       2.199   5.777  19.570  0.00  0.00    +0.000 C 
BRANCH  27  28
ATOM     28  C   UNL     1       2.553   4.367  19.151  0.00  0.00    +0.000 A 
ATOM     29  C   UNL     1       3.513   3.636  19.867  0.00  0.00    +0.000 A 
ATOM     30  C   UNL     1       3.879   2.353  19.459  0.00  0.00    +0.000 A 
ATOM     31  C   UNL     1       3.286   1.787  18.333  0.00  0.00    +0.000 A 
ATOM     32  C   UNL     1       2.319   2.496  17.625  0.00  0.00    +0.000 A 
ATOM     33  C   UNL     1       1.946   3.777  18.036  0.00  0.00    +0.000 A 
ENDBRANCH  27  28
ENDBRANCH   1  27
TORSDOF 6
ENDMDL
