MODEL 1
REMARK VINA RESULT:      -8.8      0.000      0.000
REMARK  Name = 
REMARK  6 active torsions:
REMARK  status: ('A' for Active; 'I' for Inactive)
REMARK    1  A    between atoms: C_1  and  N_2
REMARK    2  A    between atoms: C_6  and  S_7
REMARK    3  A    between atoms: S_7  and  C_8
REMARK    4  A    between atoms: C_11  and  C_12
REMARK    5  A    between atoms: C_12  and  N_13
REMARK    6  A    between atoms: C_20  and  C_21
REMARK                            x       y       z     vdW  Elec       q    Type
REMARK                         _______ _______ _______ _____ _____    ______ ____
ROOT
ATOM      1  N   UNL     1       3.360   6.078  17.547  0.00  0.00    +0.000 NA
ATOM      2  C   UNL     1       3.316   4.627  17.781  0.00  0.00    +0.000 C 
ATOM      3  C   UNL     1       4.530   3.961  18.464  0.00  0.00    +0.000 C 
ATOM      4  O   UNL     1       5.778   4.063  17.756  0.00  0.00    +0.000 OA
ATOM      5  C   UNL     1       6.384   5.284  17.894  0.00  0.00    +0.000 A 
ATOM      6  C   UNL     1       7.639   5.351  18.503  0.00  0.00    +0.000 A 
ATOM      7  C   UNL     1       8.303   6.585  18.635  0.00  0.00    +0.000 A 
ATOM      8  C   UNL     1       7.727   7.764  18.149  0.00  0.00    +0.000 A 
ATOM      9  C   UNL     1       6.503   7.655  17.474  0.00  0.00    +0.000 A 
ATOM     10  C   UNL     1       5.820   6.434  17.350  0.00  0.00    +0.000 A 
ATOM     11  C   UNL     1       4.483   6.412  16.664  0.00  0.00    +0.000 C 
ENDROOT
BRANCH   8  12
ATOM     12  C   UNL     1       8.340   9.094  18.301  0.00  0.00    +0.000 C 
ATOM     13  C   UNL     1       9.238   9.411  19.257  0.00  0.00    +0.000 C 
ATOM     14  C   UNL     1       9.576  10.813  19.128  0.00  0.00    +0.000 A 
ATOM     15  C   UNL     1      10.422  11.587  19.911  0.00  0.00    +0.000 A 
ATOM     16  C   UNL     1      10.545  12.942  19.597  0.00  0.00    +0.000 A 
ATOM     17  C   UNL     1       9.834  13.492  18.514  0.00  0.00    +0.000 A 
ATOM     18  C   UNL     1       8.993  12.695  17.727  0.00  0.00    +0.000 A 
ATOM     19  C   UNL     1       8.874  11.354  18.047  0.00  0.00    +0.000 A 
ATOM     20  C   UNL     1       8.048  10.277  17.396  0.00  0.00    +0.000 C 
ENDBRANCH   8  12
BRANCH   1  21
ATOM     21  C   UNL     1       3.355   6.883  18.782  0.00  0.00    +0.000 C 
BRANCH  21  25
ATOM     22  C   UNL     1       0.921   9.403  19.636  0.00  0.00    +0.000 A 
ATOM     23  C   UNL     1       1.097   9.786  18.318  0.00  0.00    +0.000 A 
ATOM     24  C   UNL     1       1.990   8.862  17.731  0.00  0.00    +0.000 A 
ATOM     25  C   UNL     1       2.372   8.003  18.736  0.00  0.00    +0.000 A 
ATOM     26  O   UNL     1       1.736   8.332  19.899  0.00  0.00    +0.000 OA
BRANCH  22  27
ATOM     27  S   UNL     1      -0.092  10.103  20.877  0.00  0.00    +0.000 S 
BRANCH  27  33
ATOM     28  C   UNL     1      -1.584  12.478  19.244  0.00  0.00    +0.000 C 
ATOM     29  N   UNL     1      -0.368  12.674  19.985  0.00  0.00    +0.000 N 
ATOM     30  C   UNL     1       0.309  13.856  20.085  0.00  0.00    +0.000 A 
ATOM     31  N   UNL     1       1.368  13.694  20.841  0.00  0.00    +0.000 NA
ATOM     32  N   UNL     1       1.396  12.378  21.235  0.00  0.00    +0.000 NA
ATOM     33  C   UNL     1       0.358  11.768  20.707  0.00  0.00    +0.000 A 
ENDBRANCH  27  33
ENDBRANCH  22  27
ENDBRANCH  21  25
ENDBRANCH   1  21
TORSDOF 5
ENDMDL
MODEL 2
REMARK VINA RESULT:      -8.8      3.786      7.695
REMARK  Name = 
REMARK  6 active torsions:
REMARK  status: ('A' for Active; 'I' for Inactive)
REMARK    1  A    between atoms: C_1  and  N_2
REMARK    2  A    between atoms: C_6  and  S_7
REMARK    3  A    between atoms: S_7  and  C_8
REMARK    4  A    between atoms: C_11  and  C_12
REMARK    5  A    between atoms: C_12  and  N_13
REMARK    6  A    between atoms: C_20  and  C_21
REMARK                            x       y       z     vdW  Elec       q    Type
REMARK                         _______ _______ _______ _____ _____    ______ ____
ROOT
ATOM      1  N   UNL     1       7.243   5.573  17.761  0.00  0.00    +0.000 NA
ATOM      2  C   UNL     1       7.355   4.507  16.755  0.00  0.00    +0.000 C 
ATOM      3  C   UNL     1       6.069   4.050  16.031  0.00  0.00    +0.000 C 
ATOM      4  O   UNL     1       5.044   3.493  16.873  0.00  0.00    +0.000 OA
ATOM      5  C   UNL     1       4.317   4.440  17.543  0.00  0.00    +0.000 A 
ATOM      6  C   UNL     1       2.945   4.540  17.296  0.00  0.00    +0.000 A 
ATOM      7  C   UNL     1       2.162   5.482  17.989  0.00  0.00    +0.000 A 
ATOM      8  C   UNL     1       2.737   6.327  18.945  0.00  0.00    +0.000 A 
ATOM      9  C   UNL     1       4.099   6.151  19.226  0.00  0.00    +0.000 A 
ATOM     10  C   UNL     1       4.897   5.228  18.533  0.00  0.00    +0.000 A 
ATOM     11  C   UNL     1       6.363   5.143  18.854  0.00  0.00    +0.000 C 
ENDROOT
BRANCH   8  12
ATOM     12  C   UNL     1       1.988   7.371  19.665  0.00  0.00    +0.000 C 
ATOM     13  C   UNL     1       1.707   8.590  19.160  0.00  0.00    +0.000 C 
ATOM     14  C   UNL     1       1.008   9.359  20.167  0.00  0.00    +0.000 A 
ATOM     15  C   UNL     1       0.558  10.670  20.113  0.00  0.00    +0.000 A 
ATOM     16  C   UNL     1      -0.058  11.197  21.250  0.00  0.00    +0.000 A 
ATOM     17  C   UNL     1      -0.218  10.409  22.406  0.00  0.00    +0.000 A 
ATOM     18  C   UNL     1       0.232   9.084  22.440  0.00  0.00    +0.000 A 
ATOM     19  C   UNL     1       0.845   8.571  21.311  0.00  0.00    +0.000 A 
ATOM     20  C   UNL     1       1.428   7.205  21.066  0.00  0.00    +0.000 C 
ENDBRANCH   8  12
BRANCH   1  21
ATOM     21  C   UNL     1       6.855   6.882  17.206  0.00  0.00    +0.000 C 
BRANCH  21  25
ATOM     22  C   UNL     1       8.237  10.130  17.944  0.00  0.00    +0.000 A 
ATOM     23  C   UNL     1       8.941   9.430  18.908  0.00  0.00    +0.000 A 
ATOM     24  C   UNL     1       8.608   8.066  18.759  0.00  0.00    +0.000 A 
ATOM     25  C   UNL     1       7.662   8.006  17.761  0.00  0.00    +0.000 A 
ATOM     26  O   UNL     1       7.423   9.257  17.269  0.00  0.00    +0.000 OA
BRANCH  22  27
ATOM     27  S   UNL     1       8.246  11.839  17.575  0.00  0.00    +0.000 S 
BRANCH  27  33
ATOM     28  C   UNL     1       9.177  13.100  20.417  0.00  0.00    +0.000 C 
ATOM     29  N   UNL     1      10.096  12.770  19.362  0.00  0.00    +0.000 N 
ATOM     30  C   UNL     1      11.448  12.952  19.413  0.00  0.00    +0.000 A 
ATOM     31  N   UNL     1      11.991  12.538  18.293  0.00  0.00    +0.000 NA
ATOM     32  N   UNL     1      10.975  12.087  17.485  0.00  0.00    +0.000 NA
ATOM     33  C   UNL     1       9.838  12.241  18.127  0.00  0.00    +0.000 A 
ENDBRANCH  27  33
ENDBRANCH  22  27
ENDBRANCH  21  25
ENDBRANCH   1  21
TORSDOF 5
ENDMDL
MODEL 3
REMARK VINA RESULT:      -8.7      0.170      1.044
REMARK  Name = 
REMARK  6 active torsions:
REMARK  status: ('A' for Active; 'I' for Inactive)
REMARK    1  A    between atoms: C_1  and  N_2
REMARK    2  A    between atoms: C_6  and  S_7
REMARK    3  A    between atoms: S_7  and  C_8
REMARK    4  A    between atoms: C_11  and  C_12
REMARK    5  A    between atoms: C_12  and  N_13
REMARK    6  A    between atoms: C_20  and  C_21
REMARK                            x       y       z     vdW  Elec       q    Type
REMARK                         _______ _______ _______ _____ _____    ______ ____
ROOT
ATOM      1  N   UNL     1       3.402   6.137  17.461  0.00  0.00    +0.000 NA
ATOM      2  C   UNL     1       3.365   4.683  17.677  0.00  0.00    +0.000 C 
ATOM      3  C   UNL     1       4.571   4.018  18.375  0.00  0.00    +0.000 C 
ATOM      4  O   UNL     1       5.831   4.137  17.692  0.00  0.00    +0.000 OA
ATOM      5  C   UNL     1       6.425   5.360  17.856  0.00  0.00    +0.000 A 
ATOM      6  C   UNL     1       7.668   5.429  18.489  0.00  0.00    +0.000 A 
ATOM      7  C   UNL     1       8.320   6.667  18.648  0.00  0.00    +0.000 A 
ATOM      8  C   UNL     1       7.745   7.847  18.165  0.00  0.00    +0.000 A 
ATOM      9  C   UNL     1       6.534   7.737  17.467  0.00  0.00    +0.000 A 
ATOM     10  C   UNL     1       5.863   6.513  17.315  0.00  0.00    +0.000 A 
ATOM     11  C   UNL     1       4.540   6.489  16.603  0.00  0.00    +0.000 C 
ENDROOT
BRANCH   8  12
ATOM     12  C   UNL     1       8.345   9.180  18.345  0.00  0.00    +0.000 C 
ATOM     13  C   UNL     1       8.102  10.237  17.543  0.00  0.00    +0.000 C 
ATOM     14  C   UNL     1       8.902  11.355  17.994  0.00  0.00    +0.000 A 
ATOM     15  C   UNL     1       9.012  12.629  17.455  0.00  0.00    +0.000 A 
ATOM     16  C   UNL     1       9.898  13.522  18.062  0.00  0.00    +0.000 A 
ATOM     17  C   UNL     1      10.645  13.131  19.189  0.00  0.00    +0.000 A 
ATOM     18  C   UNL     1      10.516  11.844  19.727  0.00  0.00    +0.000 A 
ATOM     19  C   UNL     1       9.638  10.965  19.117  0.00  0.00    +0.000 A 
ATOM     20  C   UNL     1       9.307   9.538  19.463  0.00  0.00    +0.000 C 
ENDBRANCH   8  12
BRANCH   1  21
ATOM     21  C   UNL     1       3.368   6.928  18.705  0.00  0.00    +0.000 C 
BRANCH  21  25
ATOM     22  C   UNL     1       0.894   9.391  19.609  0.00  0.00    +0.000 A 
ATOM     23  C   UNL     1       0.960   9.711  18.265  0.00  0.00    +0.000 A 
ATOM     24  C   UNL     1       1.848   8.794  17.660  0.00  0.00    +0.000 A 
ATOM     25  C   UNL     1       2.338   8.004  18.676  0.00  0.00    +0.000 A 
ATOM     26  O   UNL     1       1.771   8.368  19.865  0.00  0.00    +0.000 OA
BRANCH  22  27
ATOM     27  S   UNL     1      -0.058  10.113  20.885  0.00  0.00    +0.000 S 
BRANCH  27  33
ATOM     28  C   UNL     1      -1.568  12.470  19.243  0.00  0.00    +0.000 C 
ATOM     29  N   UNL     1      -0.335  12.671  19.955  0.00  0.00    +0.000 N 
ATOM     30  C   UNL     1       0.351  13.849  20.020  0.00  0.00    +0.000 A 
ATOM     31  N   UNL     1       1.425  13.693  20.756  0.00  0.00    +0.000 NA
ATOM     32  N   UNL     1       1.452  12.384  21.173  0.00  0.00    +0.000 NA
ATOM     33  C   UNL     1       0.399  11.772  20.677  0.00  0.00    +0.000 A 
ENDBRANCH  27  33
ENDBRANCH  22  27
ENDBRANCH  21  25
ENDBRANCH   1  21
TORSDOF 5
ENDMDL
MODEL 4
REMARK VINA RESULT:      -8.7      3.593      7.644
REMARK  Name = 
REMARK  6 active torsions:
REMARK  status: ('A' for Active; 'I' for Inactive)
REMARK    1  A    between atoms: C_1  and  N_2
REMARK    2  A    between atoms: C_6  and  S_7
REMARK    3  A    between atoms: S_7  and  C_8
REMARK    4  A    between atoms: C_11  and  C_12
REMARK    5  A    between atoms: C_12  and  N_13
REMARK    6  A    between atoms: C_20  and  C_21
REMARK                            x       y       z     vdW  Elec       q    Type
REMARK                         _______ _______ _______ _____ _____    ______ ____
ROOT
ATOM      1  N   UNL     1       7.219   5.585  17.792  0.00  0.00    +0.000 NA
ATOM      2  C   UNL     1       7.310   4.517  16.784  0.00  0.00    +0.000 C 
ATOM      3  C   UNL     1       6.019   4.095  16.051  0.00  0.00    +0.000 C 
ATOM      4  O   UNL     1       4.973   3.565  16.884  0.00  0.00    +0.000 OA
ATOM      5  C   UNL     1       4.266   4.530  17.550  0.00  0.00    +0.000 A 
ATOM      6  C   UNL     1       2.899   4.666  17.293  0.00  0.00    +0.000 A 
ATOM      7  C   UNL     1       2.136   5.629  17.982  0.00  0.00    +0.000 A 
ATOM      8  C   UNL     1       2.726   6.456  18.943  0.00  0.00    +0.000 A 
ATOM      9  C   UNL     1       4.081   6.244  19.235  0.00  0.00    +0.000 A 
ATOM     10  C   UNL     1       4.859   5.301  18.545  0.00  0.00    +0.000 A 
ATOM     11  C   UNL     1       6.320   5.177  18.877  0.00  0.00    +0.000 C 
ENDROOT
BRANCH   8  12
ATOM     12  C   UNL     1       2.000   7.518  19.660  0.00  0.00    +0.000 C 
ATOM     13  C   UNL     1       1.621   7.440  20.953  0.00  0.00    +0.000 C 
ATOM     14  C   UNL     1       0.890   8.642  21.295  0.00  0.00    +0.000 A 
ATOM     15  C   UNL     1       0.278   8.985  22.492  0.00  0.00    +0.000 A 
ATOM     16  C   UNL     1      -0.407  10.200  22.551  0.00  0.00    +0.000 A 
ATOM     17  C   UNL     1      -0.461  11.045  21.427  0.00  0.00    +0.000 A 
ATOM     18  C   UNL     1       0.172  10.689  20.228  0.00  0.00    +0.000 A 
ATOM     19  C   UNL     1       0.845   9.481  20.178  0.00  0.00    +0.000 A 
ATOM     20  C   UNL     1       1.596   8.843  19.040  0.00  0.00    +0.000 C 
ENDBRANCH   8  12
BRANCH   1  21
ATOM     21  C   UNL     1       6.870   6.905  17.236  0.00  0.00    +0.000 C 
BRANCH  21  25
ATOM     22  C   UNL     1       8.341  10.112  17.980  0.00  0.00    +0.000 A 
ATOM     23  C   UNL     1       9.009   9.395  18.956  0.00  0.00    +0.000 A 
ATOM     24  C   UNL     1       8.636   8.041  18.809  0.00  0.00    +0.000 A 
ATOM     25  C   UNL     1       7.703   8.006  17.798  0.00  0.00    +0.000 A 
ATOM     26  O   UNL     1       7.510   9.261  17.296  0.00  0.00    +0.000 OA
BRANCH  22  27
ATOM     27  S   UNL     1       8.409  11.818  17.602  0.00  0.00    +0.000 S 
BRANCH  27  33
ATOM     28  C   UNL     1      11.592  12.442  17.490  0.00  0.00    +0.000 C 
ATOM     29  N   UNL     1      10.803  12.579  18.684  0.00  0.00    +0.000 N 
ATOM     30  C   UNL     1      11.283  12.967  19.901  0.00  0.00    +0.000 A 
ATOM     31  N   UNL     1      10.303  12.999  20.772  0.00  0.00    +0.000 NA
ATOM     32  N   UNL     1       9.159  12.612  20.118  0.00  0.00    +0.000 NA
ATOM     33  C   UNL     1       9.468  12.347  18.867  0.00  0.00    +0.000 A 
ENDBRANCH  27  33
ENDBRANCH  22  27
ENDBRANCH  21  25
ENDBRANCH   1  21
TORSDOF 5
ENDMDL
MODEL 5
REMARK VINA RESULT:      -8.7      1.385      1.765
REMARK  Name = 
REMARK  6 active torsions:
REMARK  status: ('A' for Active; 'I' for Inactive)
REMARK    1  A    between atoms: C_1  and  N_2
REMARK    2  A    between atoms: C_6  and  S_7
REMARK    3  A    between atoms: S_7  and  C_8
REMARK    4  A    between atoms: C_11  and  C_12
REMARK    5  A    between atoms: C_12  and  N_13
REMARK    6  A    between atoms: C_20  and  C_21
REMARK                            x       y       z     vdW  Elec       q    Type
REMARK                         _______ _______ _______ _____ _____    ______ ____
ROOT
ATOM      1  N   UNL     1       3.364   5.817  17.621  0.00  0.00    +0.000 NA
ATOM      2  C   UNL     1       3.350   4.380  17.934  0.00  0.00    +0.000 C 
ATOM      3  C   UNL     1       4.569   3.783  18.670  0.00  0.00    +0.000 C 
ATOM      4  O   UNL     1       5.825   3.876  17.974  0.00  0.00    +0.000 OA
ATOM      5  C   UNL     1       6.400   5.116  18.053  0.00  0.00    +0.000 A 
ATOM      6  C   UNL     1       7.644   5.247  18.673  0.00  0.00    +0.000 A 
ATOM      7  C   UNL     1       8.277   6.503  18.745  0.00  0.00    +0.000 A 
ATOM      8  C   UNL     1       7.681   7.638  18.186  0.00  0.00    +0.000 A 
ATOM      9  C   UNL     1       6.469   7.462  17.503  0.00  0.00    +0.000 A 
ATOM     10  C   UNL     1       5.818   6.220  17.437  0.00  0.00    +0.000 A 
ATOM     11  C   UNL     1       4.492   6.128  16.735  0.00  0.00    +0.000 C 
ENDROOT
BRANCH   8  12
ATOM     12  C   UNL     1       8.260   8.990  18.273  0.00  0.00    +0.000 C 
ATOM     13  C   UNL     1       9.211   9.353  19.158  0.00  0.00    +0.000 C 
ATOM     14  C   UNL     1       9.495  10.762  18.982  0.00  0.00    +0.000 A 
ATOM     15  C   UNL     1      10.367  11.576  19.690  0.00  0.00    +0.000 A 
ATOM     16  C   UNL     1      10.425  12.928  19.345  0.00  0.00    +0.000 A 
ATOM     17  C   UNL     1       9.625  13.434  18.303  0.00  0.00    +0.000 A 
ATOM     18  C   UNL     1       8.757  12.596  17.591  0.00  0.00    +0.000 A 
ATOM     19  C   UNL     1       8.703  11.259  17.942  0.00  0.00    +0.000 A 
ATOM     20  C   UNL     1       7.869  10.145  17.369  0.00  0.00    +0.000 C 
ENDBRANCH   8  12
BRANCH   1  21
ATOM     21  C   UNL     1       3.322   6.689  18.809  0.00  0.00    +0.000 C 
BRANCH  21  25
ATOM     22  C   UNL     1       1.065   9.475  19.195  0.00  0.00    +0.000 A 
ATOM     23  C   UNL     1       1.589   9.857  17.972  0.00  0.00    +0.000 A 
ATOM     24  C   UNL     1       2.481   8.841  17.564  0.00  0.00    +0.000 A 
ATOM     25  C   UNL     1       2.514   7.923  18.590  0.00  0.00    +0.000 A 
ATOM     26  O   UNL     1       1.666   8.307  19.588  0.00  0.00    +0.000 OA
BRANCH  22  27
ATOM     27  S   UNL     1      -0.122  10.273  20.200  0.00  0.00    +0.000 S 
BRANCH  27  33
ATOM     28  C   UNL     1      -2.324  12.654  20.077  0.00  0.00    +0.000 C 
ATOM     29  N   UNL     1      -2.216  11.628  19.075  0.00  0.00    +0.000 N 
ATOM     30  C   UNL     1      -3.016  11.518  17.975  0.00  0.00    +0.000 A 
ATOM     31  N   UNL     1      -2.644  10.481  17.262  0.00  0.00    +0.000 NA
ATOM     32  N   UNL     1      -1.588   9.891  17.914  0.00  0.00    +0.000 NA
ATOM     33  C   UNL     1      -1.344  10.577  19.009  0.00  0.00    +0.000 A 
ENDBRANCH  27  33
ENDBRANCH  22  27
ENDBRANCH  21  25
ENDBRANCH   1  21
TORSDOF 5
ENDMDL
MODEL 6
REMARK VINA RESULT:      -8.6      3.551      7.636
REMARK  Name = 
REMARK  6 active torsions:
REMARK  status: ('A' for Active; 'I' for Inactive)
REMARK    1  A    between atoms: C_1  and  N_2
REMARK    2  A    between atoms: C_6  and  S_7
REMARK    3  A    between atoms: S_7  and  C_8
REMARK    4  A    between atoms: C_11  and  C_12
REMARK    5  A    between atoms: C_12  and  N_13
REMARK    6  A    between atoms: C_20  and  C_21
REMARK                            x       y       z     vdW  Elec       q    Type
REMARK                         _______ _______ _______ _____ _____    ______ ____
ROOT
ATOM      1  N   UNL     1       7.314   5.680  17.873  0.00  0.00    +0.000 NA
ATOM      2  C   UNL     1       7.458   4.615  16.869  0.00  0.00    +0.000 C 
ATOM      3  C   UNL     1       6.192   4.144  16.120  0.00  0.00    +0.000 C 
ATOM      4  O   UNL     1       5.156   3.576  16.942  0.00  0.00    +0.000 OA
ATOM      5  C   UNL     1       4.406   4.515  17.597  0.00  0.00    +0.000 A 
ATOM      6  C   UNL     1       3.038   4.600  17.323  0.00  0.00    +0.000 A 
ATOM      7  C   UNL     1       2.231   5.534  17.999  0.00  0.00    +0.000 A 
ATOM      8  C   UNL     1       2.777   6.384  18.966  0.00  0.00    +0.000 A 
ATOM      9  C   UNL     1       4.135   6.224  19.275  0.00  0.00    +0.000 A 
ATOM     10  C   UNL     1       4.957   5.309  18.598  0.00  0.00    +0.000 A 
ATOM     11  C   UNL     1       6.417   5.241  18.948  0.00  0.00    +0.000 C 
ENDROOT
BRANCH   8  12
ATOM     12  C   UNL     1       2.004   7.420  19.672  0.00  0.00    +0.000 C 
ATOM     13  C   UNL     1       1.716   8.635  19.159  0.00  0.00    +0.000 C 
ATOM     14  C   UNL     1       0.989   9.397  20.152  0.00  0.00    +0.000 A 
ATOM     15  C   UNL     1       0.524  10.703  20.088  0.00  0.00    +0.000 A 
ATOM     16  C   UNL     1      -0.118  11.224  21.212  0.00  0.00    +0.000 A 
ATOM     17  C   UNL     1      -0.289  10.436  22.367  0.00  0.00    +0.000 A 
ATOM     18  C   UNL     1       0.177   9.116  22.412  0.00  0.00    +0.000 A 
ATOM     19  C   UNL     1       0.816   8.609  21.294  0.00  0.00    +0.000 A 
ATOM     20  C   UNL     1       1.420   7.250  21.063  0.00  0.00    +0.000 C 
ENDBRANCH   8  12
BRANCH   1  21
ATOM     21  C   UNL     1       6.923   6.985  17.310  0.00  0.00    +0.000 C 
BRANCH  21  25
ATOM     22  C   UNL     1       8.327  10.235  17.994  0.00  0.00    +0.000 A 
ATOM     23  C   UNL     1       9.038   9.543  18.959  0.00  0.00    +0.000 A 
ATOM     24  C   UNL     1       8.697   8.179  18.831  0.00  0.00    +0.000 A 
ATOM     25  C   UNL     1       7.740   8.112  17.843  0.00  0.00    +0.000 A 
ATOM     26  O   UNL     1       7.502   9.358  17.338  0.00  0.00    +0.000 OA
BRANCH  22  27
ATOM     27  S   UNL     1       8.340  11.939  17.603  0.00  0.00    +0.000 S 
BRANCH  27  33
ATOM     28  C   UNL     1      11.532  12.525  17.575  0.00  0.00    +0.000 C 
ATOM     29  N   UNL     1      10.704  12.725  18.734  0.00  0.00    +0.000 N 
ATOM     30  C   UNL     1      11.147  13.164  19.948  0.00  0.00    +0.000 A 
ATOM     31  N   UNL     1      10.137  13.246  20.781  0.00  0.00    +0.000 NA
ATOM     32  N   UNL     1       9.012  12.841  20.105  0.00  0.00    +0.000 NA
ATOM     33  C   UNL     1       9.361  12.516  18.879  0.00  0.00    +0.000 A 
ENDBRANCH  27  33
ENDBRANCH  22  27
ENDBRANCH  21  25
ENDBRANCH   1  21
TORSDOF 5
ENDMDL
MODEL 7
REMARK VINA RESULT:      -8.6      3.913      7.525
REMARK  Name = 
REMARK  6 active torsions:
REMARK  status: ('A' for Active; 'I' for Inactive)
REMARK    1  A    between atoms: C_1  and  N_2
REMARK    2  A    between atoms: C_6  and  S_7
REMARK    3  A    between atoms: S_7  and  C_8
REMARK    4  A    between atoms: C_11  and  C_12
REMARK    5  A    between atoms: C_12  and  N_13
REMARK    6  A    between atoms: C_20  and  C_21
REMARK                            x       y       z     vdW  Elec       q    Type
REMARK                         _______ _______ _______ _____ _____    ______ ____
ROOT
ATOM      1  N   UNL     1       0.385  12.559  19.179  0.00  0.00    +0.000 NA
ATOM      2  C   UNL     1      -0.229  12.970  20.450  0.00  0.00    +0.000 C 
ATOM      3  C   UNL     1      -0.034  12.059  21.682  0.00  0.00    +0.000 C 
ATOM      4  O   UNL     1      -0.568  10.728  21.564  0.00  0.00    +0.000 OA
ATOM      5  C   UNL     1       0.226   9.887  20.830  0.00  0.00    +0.000 A 
ATOM      6  C   UNL     1       0.766   8.756  21.448  0.00  0.00    +0.000 A 
ATOM      7  C   UNL     1       1.562   7.855  20.716  0.00  0.00    +0.000 A 
ATOM      8  C   UNL     1       1.815   8.065  19.356  0.00  0.00    +0.000 A 
ATOM      9  C   UNL     1       1.196   9.165  18.745  0.00  0.00    +0.000 A 
ATOM     10  C   UNL     1       0.414  10.082  19.465  0.00  0.00    +0.000 A 
ATOM     11  C   UNL     1      -0.165  11.269  18.748  0.00  0.00    +0.000 C 
ENDROOT
BRANCH   8  12
ATOM     12  C   UNL     1       2.681   7.193  18.544  0.00  0.00    +0.000 C 
ATOM     13  C   UNL     1       3.605   7.643  17.669  0.00  0.00    +0.000 C 
ATOM     14  C   UNL     1       4.223   6.505  17.022  0.00  0.00    +0.000 A 
ATOM     15  C   UNL     1       5.191   6.480  16.028  0.00  0.00    +0.000 A 
ATOM     16  C   UNL     1       5.592   5.236  15.537  0.00  0.00    +0.000 A 
ATOM     17  C   UNL     1       5.031   4.051  16.049  0.00  0.00    +0.000 A 
ATOM     18  C   UNL     1       4.061   4.093  17.060  0.00  0.00    +0.000 A 
ATOM     19  C   UNL     1       3.667   5.330  17.538  0.00  0.00    +0.000 A 
ATOM     20  C   UNL     1       2.654   5.677  18.596  0.00  0.00    +0.000 C 
ENDBRANCH   8  12
BRANCH   1  21
ATOM     21  C   UNL     1       1.859  12.566  19.196  0.00  0.00    +0.000 C 
BRANCH  21  25
ATOM     22  C   UNL     1       3.548  15.548  20.319  0.00  0.00    +0.000 A 
ATOM     23  C   UNL     1       3.251  15.998  19.045  0.00  0.00    +0.000 A 
ATOM     24  C   UNL     1       2.495  14.988  18.410  0.00  0.00    +0.000 A 
ATOM     25  C   UNL     1       2.428  13.940  19.301  0.00  0.00    +0.000 A 
ATOM     26  O   UNL     1       3.075  14.269  20.458  0.00  0.00    +0.000 OA
BRANCH  22  27
ATOM     27  S   UNL     1       4.413  16.345  21.612  0.00  0.00    +0.000 S 
BRANCH  27  33
ATOM     28  C   UNL     1       7.101  14.649  20.954  0.00  0.00    +0.000 C 
ATOM     29  N   UNL     1       6.214  14.330  22.040  0.00  0.00    +0.000 N 
ATOM     30  C   UNL     1       6.377  13.288  22.907  0.00  0.00    +0.000 A 
ATOM     31  N   UNL     1       5.400  13.286  23.782  0.00  0.00    +0.000 NA
ATOM     32  N   UNL     1       4.572  14.340  23.476  0.00  0.00    +0.000 NA
ATOM     33  C   UNL     1       5.059  14.955  22.421  0.00  0.00    +0.000 A 
ENDBRANCH  27  33
ENDBRANCH  22  27
ENDBRANCH  21  25
ENDBRANCH   1  21
TORSDOF 5
ENDMDL
MODEL 8
REMARK VINA RESULT:      -8.5      6.460     10.960
REMARK  Name = 
REMARK  6 active torsions:
REMARK  status: ('A' for Active; 'I' for Inactive)
REMARK    1  A    between atoms: C_1  and  N_2
REMARK    2  A    between atoms: C_6  and  S_7
REMARK    3  A    between atoms: S_7  and  C_8
REMARK    4  A    between atoms: C_11  and  C_12
REMARK    5  A    between atoms: C_12  and  N_13
REMARK    6  A    between atoms: C_20  and  C_21
REMARK                            x       y       z     vdW  Elec       q    Type
REMARK                         _______ _______ _______ _____ _____    ______ ____
ROOT
ATOM      1  N   UNL     1      -0.537  10.685  18.278  0.00  0.00    +0.000 NA
ATOM      2  C   UNL     1       0.643   9.851  18.550  0.00  0.00    +0.000 C 
ATOM      3  C   UNL     1       0.890   9.387  20.002  0.00  0.00    +0.000 C 
ATOM      4  O   UNL     1       1.097  10.436  20.965  0.00  0.00    +0.000 OA
ATOM      5  C   UNL     1      -0.063  11.041  21.367  0.00  0.00    +0.000 A 
ATOM      6  C   UNL     1      -0.433  10.969  22.713  0.00  0.00    +0.000 A 
ATOM      7  C   UNL     1      -1.604  11.605  23.166  0.00  0.00    +0.000 A 
ATOM      8  C   UNL     1      -2.412  12.332  22.284  0.00  0.00    +0.000 A 
ATOM      9  C   UNL     1      -1.975  12.452  20.958  0.00  0.00    +0.000 A 
ATOM     10  C   UNL     1      -0.819  11.809  20.486  0.00  0.00    +0.000 A 
ATOM     11  C   UNL     1      -0.451  11.940  19.035  0.00  0.00    +0.000 C 
ENDROOT
BRANCH   8  12
ATOM     12  C   UNL     1      -3.676  12.975  22.679  0.00  0.00    +0.000 C 
ATOM     13  C   UNL     1      -4.663  12.356  23.361  0.00  0.00    +0.000 C 
ATOM     14  C   UNL     1      -5.765  13.281  23.523  0.00  0.00    +0.000 A 
ATOM     15  C   UNL     1      -7.001  13.076  24.119  0.00  0.00    +0.000 A 
ATOM     16  C   UNL     1      -7.916  14.131  24.106  0.00  0.00    +0.000 A 
ATOM     17  C   UNL     1      -7.579  15.361  23.511  0.00  0.00    +0.000 A 
ATOM     18  C   UNL     1      -6.323  15.555  22.922  0.00  0.00    +0.000 A 
ATOM     19  C   UNL     1      -5.424  14.504  22.936  0.00  0.00    +0.000 A 
ATOM     20  C   UNL     1      -4.028  14.421  22.379  0.00  0.00    +0.000 C 
ENDBRANCH   8  12
BRANCH   1  21
ATOM     21  C   UNL     1      -1.821   9.990  18.482  0.00  0.00    +0.000 C 
BRANCH  21  25
ATOM     22  C   UNL     1      -4.790  11.521  17.124  0.00  0.00    +0.000 A 
ATOM     23  C   UNL     1      -4.212  11.183  15.914  0.00  0.00    +0.000 A 
ATOM     24  C   UNL     1      -3.023  10.477  16.201  0.00  0.00    +0.000 A 
ATOM     25  C   UNL     1      -2.894  10.481  17.572  0.00  0.00    +0.000 A 
ATOM     26  O   UNL     1      -3.958  11.123  18.139  0.00  0.00    +0.000 OA
BRANCH  22  27
ATOM     27  S   UNL     1      -6.290  12.356  17.452  0.00  0.00    +0.000 S 
BRANCH  27  33
ATOM     28  C   UNL     1      -7.610  13.369  20.238  0.00  0.00    +0.000 C 
ATOM     29  N   UNL     1      -7.388  11.983  19.929  0.00  0.00    +0.000 N 
ATOM     30  C   UNL     1      -7.685  10.937  20.755  0.00  0.00    +0.000 A 
ATOM     31  N   UNL     1      -7.369   9.808  20.167  0.00  0.00    +0.000 NA
ATOM     32  N   UNL     1      -6.842  10.118  18.937  0.00  0.00    +0.000 NA
ATOM     33  C   UNL     1      -6.844  11.427  18.805  0.00  0.00    +0.000 A 
ENDBRANCH  27  33
ENDBRANCH  22  27
ENDBRANCH  21  25
ENDBRANCH   1  21
TORSDOF 5
ENDMDL
MODEL 9
REMARK VINA RESULT:      -8.4      3.534      7.853
REMARK  Name = 
REMARK  6 active torsions:
REMARK  status: ('A' for Active; 'I' for Inactive)
REMARK    1  A    between atoms: C_1  and  N_2
REMARK    2  A    between atoms: C_6  and  S_7
REMARK    3  A    between atoms: S_7  and  C_8
REMARK    4  A    between atoms: C_11  and  C_12
REMARK    5  A    between atoms: C_12  and  N_13
REMARK    6  A    between atoms: C_20  and  C_21
REMARK                            x       y       z     vdW  Elec       q    Type
REMARK                         _______ _______ _______ _____ _____    ______ ____
ROOT
ATOM      1  N   UNL     1       0.463  12.652  19.170  0.00  0.00    +0.000 NA
ATOM      2  C   UNL     1      -0.179  13.061  20.428  0.00  0.00    +0.000 C 
ATOM      3  C   UNL     1      -0.038  12.133  21.654  0.00  0.00    +0.000 C 
ATOM      4  O   UNL     1      -0.594  10.815  21.506  0.00  0.00    +0.000 OA
ATOM      5  C   UNL     1       0.203   9.966  20.786  0.00  0.00    +0.000 A 
ATOM      6  C   UNL     1       0.703   8.818  21.406  0.00  0.00    +0.000 A 
ATOM      7  C   UNL     1       1.501   7.909  20.686  0.00  0.00    +0.000 A 
ATOM      8  C   UNL     1       1.797   8.128  19.337  0.00  0.00    +0.000 A 
ATOM      9  C   UNL     1       1.218   9.246  18.721  0.00  0.00    +0.000 A 
ATOM     10  C   UNL     1       0.434  10.172  19.429  0.00  0.00    +0.000 A 
ATOM     11  C   UNL     1      -0.101  11.377  18.709  0.00  0.00    +0.000 C 
ENDROOT
BRANCH   8  12
ATOM     12  C   UNL     1       2.669   7.248  18.540  0.00  0.00    +0.000 C 
ATOM     13  C   UNL     1       3.561   7.686  17.628  0.00  0.00    +0.000 C 
ATOM     14  C   UNL     1       4.195   6.540  17.012  0.00  0.00    +0.000 A 
ATOM     15  C   UNL     1       5.142   6.501  15.998  0.00  0.00    +0.000 A 
ATOM     16  C   UNL     1       5.566   5.250  15.547  0.00  0.00    +0.000 A 
ATOM     17  C   UNL     1       5.047   4.072  16.117  0.00  0.00    +0.000 A 
ATOM     18  C   UNL     1       4.100   4.128  17.147  0.00  0.00    +0.000 A 
ATOM     19  C   UNL     1       3.682   5.372  17.585  0.00  0.00    +0.000 A 
ATOM     20  C   UNL     1       2.683   5.734  18.652  0.00  0.00    +0.000 C 
ENDBRANCH   8  12
BRANCH   1  21
ATOM     21  C   UNL     1       1.935  12.629  19.229  0.00  0.00    +0.000 C 
BRANCH  21  25
ATOM     22  C   UNL     1       4.162  15.463  19.117  0.00  0.00    +0.000 A 
ATOM     23  C   UNL     1       3.177  15.997  18.306  0.00  0.00    +0.000 A 
ATOM     24  C   UNL     1       2.122  15.060  18.258  0.00  0.00    +0.000 A 
ATOM     25  C   UNL     1       2.544  13.968  18.982  0.00  0.00    +0.000 A 
ATOM     26  O   UNL     1       3.786  14.201  19.498  0.00  0.00    +0.000 OA
BRANCH  22  27
ATOM     27  S   UNL     1       5.693  16.146  19.613  0.00  0.00    +0.000 S 
BRANCH  27  33
ATOM     28  C   UNL     1       8.558  15.038  20.660  0.00  0.00    +0.000 C 
ATOM     29  N   UNL     1       7.955  14.619  19.424  0.00  0.00    +0.000 N 
ATOM     30  C   UNL     1       8.503  13.730  18.545  0.00  0.00    +0.000 A 
ATOM     31  N   UNL     1       7.693  13.560  17.528  0.00  0.00    +0.000 NA
ATOM     32  N   UNL     1       6.597  14.362  17.736  0.00  0.00    +0.000 NA
ATOM     33  C   UNL     1       6.767  15.006  18.871  0.00  0.00    +0.000 A 
ENDBRANCH  27  33
ENDBRANCH  22  27
ENDBRANCH  21  25
ENDBRANCH   1  21
TORSDOF 5
ENDMDL
