MODEL 1
REMARK VINA RESULT:      -7.3      0.000      0.000
REMARK  Name = 
REMARK  8 active torsions:
REMARK  status: ('A' for Active; 'I' for Inactive)
REMARK    1  A    between atoms: C_1  and  C_2
REMARK    2  A    between atoms: C_2  and  N_3
REMARK    3  A    between atoms: N_3  and  C_4
REMARK    4  A    between atoms: N_3  and  C_6
REMARK    5  A    between atoms: C_4  and  C_5
REMARK    6  A    between atoms: C_9  and  C_10
REMARK    7  A    between atoms: C_11  and  C_12
REMARK    8  A    between atoms: C_11  and  C_14
REMARK                            x       y       z     vdW  Elec       q    Type
REMARK                         _______ _______ _______ _____ _____    ______ ____
ROOT
ATOM      1  C   UNL     1       3.849   6.910  16.958  0.00  0.00    +0.000 C 
ATOM      2  C   UNL     1       4.900   6.076  17.125  0.00  0.00    +0.000 C 
ENDROOT
BRANCH   2   3
ATOM      3  C   UNL     1       5.513   5.477  15.973  0.00  0.00    +0.000 A 
ATOM      4  N   UNL     1       6.660   5.843  15.402  0.00  0.00    +0.000 NA
ATOM      5  C   UNL     1       6.755   5.095  14.256  0.00  0.00    +0.000 A 
ATOM      6  C   UNL     1       7.705   5.097  13.229  0.00  0.00    +0.000 A 
ATOM      7  C   UNL     1       7.499   4.238  12.138  0.00  0.00    +0.000 A 
ATOM      8  C   UNL     1       6.389   3.384  12.088  0.00  0.00    +0.000 A 
ATOM      9  C   UNL     1       5.445   3.355  13.122  0.00  0.00    +0.000 A 
ATOM     10  C   UNL     1       5.677   4.239  14.170  0.00  0.00    +0.000 A 
ATOM     11  O   UNL     1       4.897   4.448  15.265  0.00  0.00    +0.000 OA
ENDBRANCH   2   3
BRANCH   1  15
ATOM     12  C   UNL     1       1.318   8.785  19.981  0.00  0.00    +0.000 A 
ATOM     13  C   UNL     1       1.548   9.356  18.715  0.00  0.00    +0.000 A 
ATOM     14  C   UNL     1       2.368   8.750  17.746  0.00  0.00    +0.000 A 
ATOM     15  C   UNL     1       2.999   7.529  17.997  0.00  0.00    +0.000 A 
ATOM     16  C   UNL     1       2.707   6.904  19.207  0.00  0.00    +0.000 A 
ATOM     17  C   UNL     1       1.896   7.523  20.174  0.00  0.00    +0.000 A 
BRANCH  12  18
ATOM     18  N   UNL     1       0.549   9.411  20.978  0.00  0.00    +0.000 N 
BRANCH  18  20
ATOM     19  C   UNL     1       0.184  11.923  20.838  0.00  0.00    +0.000 C 
ATOM     20  C   UNL     1      -0.340  10.518  20.575  0.00  0.00    +0.000 C 
ENDBRANCH  18  20
BRANCH  18  21
ATOM     21  C   UNL     1       0.947   9.266  22.391  0.00  0.00    +0.000 C 
ATOM     22  C   UNL     1      -0.217   9.434  23.362  0.00  0.00    +0.000 C 
ENDBRANCH  18  21
ENDBRANCH  12  18
ENDBRANCH   1  15
BRANCH   2  23
ATOM     23  C   UNL     1       5.401   5.701  18.407  0.00  0.00    +0.000 C 
ATOM     24  N   UNL     1       5.818   5.372  19.439  0.00  0.00    +0.000 NA
ENDBRANCH   2  23
TORSDOF 6
ENDMDL
MODEL 2
REMARK VINA RESULT:      -7.1      0.377      1.289
REMARK  Name = 
REMARK  8 active torsions:
REMARK  status: ('A' for Active; 'I' for Inactive)
REMARK    1  A    between atoms: C_1  and  C_2
REMARK    2  A    between atoms: C_2  and  N_3
REMARK    3  A    between atoms: N_3  and  C_4
REMARK    4  A    between atoms: N_3  and  C_6
REMARK    5  A    between atoms: C_4  and  C_5
REMARK    6  A    between atoms: C_9  and  C_10
REMARK    7  A    between atoms: C_11  and  C_12
REMARK    8  A    between atoms: C_11  and  C_14
REMARK                            x       y       z     vdW  Elec       q    Type
REMARK                         _______ _______ _______ _____ _____    ______ ____
ROOT
ATOM      1  C   UNL     1       3.770   7.080  17.021  0.00  0.00    +0.000 C 
ATOM      2  C   UNL     1       4.718   6.137  17.225  0.00  0.00    +0.000 C 
ENDROOT
BRANCH   2   3
ATOM      3  C   UNL     1       5.379   5.547  16.095  0.00  0.00    +0.000 A 
ATOM      4  N   UNL     1       6.548   5.920  15.573  0.00  0.00    +0.000 NA
ATOM      5  C   UNL     1       6.691   5.180  14.428  0.00  0.00    +0.000 A 
ATOM      6  C   UNL     1       7.682   5.191  13.440  0.00  0.00    +0.000 A 
ATOM      7  C   UNL     1       7.524   4.339  12.336  0.00  0.00    +0.000 A 
ATOM      8  C   UNL     1       6.419   3.483  12.235  0.00  0.00    +0.000 A 
ATOM      9  C   UNL     1       5.434   3.444  13.229  0.00  0.00    +0.000 A 
ATOM     10  C   UNL     1       5.620   4.322  14.292  0.00  0.00    +0.000 A 
ATOM     11  O   UNL     1       4.796   4.522  15.355  0.00  0.00    +0.000 OA
ENDBRANCH   2   3
BRANCH   1  15
ATOM     12  C   UNL     1       1.141   9.014  19.920  0.00  0.00    +0.000 A 
ATOM     13  C   UNL     1       1.388   9.544  18.639  0.00  0.00    +0.000 A 
ATOM     14  C   UNL     1       2.239   8.919  17.710  0.00  0.00    +0.000 A 
ATOM     15  C   UNL     1       2.887   7.720  18.018  0.00  0.00    +0.000 A 
ATOM     16  C   UNL     1       2.580   7.133  19.244  0.00  0.00    +0.000 A 
ATOM     17  C   UNL     1       1.738   7.771  20.171  0.00  0.00    +0.000 A 
BRANCH  12  18
ATOM     18  N   UNL     1       0.339   9.661  20.877  0.00  0.00    +0.000 N 
BRANCH  18  20
ATOM     19  C   UNL     1      -0.131   9.487  23.369  0.00  0.00    +0.000 C 
ATOM     20  C   UNL     1      -0.203   8.854  21.986  0.00  0.00    +0.000 C 
ENDBRANCH  18  20
BRANCH  18  21
ATOM     21  C   UNL     1      -0.281  10.956  20.538  0.00  0.00    +0.000 C 
ATOM     22  C   UNL     1       0.538  12.153  21.007  0.00  0.00    +0.000 C 
ENDBRANCH  18  21
ENDBRANCH  12  18
ENDBRANCH   1  15
BRANCH   2  23
ATOM     23  C   UNL     1       5.057   5.641  18.518  0.00  0.00    +0.000 C 
ATOM     24  N   UNL     1       5.339   5.262  19.579  0.00  0.00    +0.000 NA
ENDBRANCH   2  23
TORSDOF 6
ENDMDL
MODEL 3
REMARK VINA RESULT:      -6.9      2.269      9.249
REMARK  Name = 
REMARK  8 active torsions:
REMARK  status: ('A' for Active; 'I' for Inactive)
REMARK    1  A    between atoms: C_1  and  C_2
REMARK    2  A    between atoms: C_2  and  N_3
REMARK    3  A    between atoms: N_3  and  C_4
REMARK    4  A    between atoms: N_3  and  C_6
REMARK    5  A    between atoms: C_4  and  C_5
REMARK    6  A    between atoms: C_9  and  C_10
REMARK    7  A    between atoms: C_11  and  C_12
REMARK    8  A    between atoms: C_11  and  C_14
REMARK                            x       y       z     vdW  Elec       q    Type
REMARK                         _______ _______ _______ _____ _____    ______ ____
ROOT
ATOM      1  C   UNL     1       2.433   7.682  18.711  0.00  0.00    +0.000 C 
ATOM      2  C   UNL     1       1.859   7.407  19.905  0.00  0.00    +0.000 C 
ENDROOT
BRANCH   2   3
ATOM      3  C   UNL     1       1.165   8.449  20.609  0.00  0.00    +0.000 A 
ATOM      4  N   UNL     1       0.862   8.467  21.906  0.00  0.00    +0.000 NA
ATOM      5  C   UNL     1       0.072   9.574  22.083  0.00  0.00    +0.000 A 
ATOM      6  C   UNL     1      -0.593  10.062  23.213  0.00  0.00    +0.000 A 
ATOM      7  C   UNL     1      -1.386  11.211  23.068  0.00  0.00    +0.000 A 
ATOM      8  C   UNL     1      -1.490  11.868  21.835  0.00  0.00    +0.000 A 
ATOM      9  C   UNL     1      -0.809  11.404  20.703  0.00  0.00    +0.000 A 
ATOM     10  C   UNL     1      -0.056  10.250  20.887  0.00  0.00    +0.000 A 
ATOM     11  O   UNL     1       0.656   9.566  19.951  0.00  0.00    +0.000 OA
ENDBRANCH   2   3
BRANCH   1  15
ATOM     12  C   UNL     1       5.009   5.147  16.264  0.00  0.00    +0.000 A 
ATOM     13  C   UNL     1       5.171   6.542  16.352  0.00  0.00    +0.000 A 
ATOM     14  C   UNL     1       4.335   7.355  17.139  0.00  0.00    +0.000 A 
ATOM     15  C   UNL     1       3.291   6.806  17.887  0.00  0.00    +0.000 A 
ATOM     16  C   UNL     1       3.177   5.417  17.887  0.00  0.00    +0.000 A 
ATOM     17  C   UNL     1       4.009   4.614  17.088  0.00  0.00    +0.000 A 
BRANCH  12  18
ATOM     18  N   UNL     1       5.801   4.332  15.435  0.00  0.00    +0.000 N 
BRANCH  18  20
ATOM     19  C   UNL     1       7.583   4.528  17.237  0.00  0.00    +0.000 C 
ATOM     20  C   UNL     1       7.205   4.104  15.824  0.00  0.00    +0.000 C 
ENDBRANCH  18  20
BRANCH  18  21
ATOM     21  C   UNL     1       5.378   4.098  14.041  0.00  0.00    +0.000 C 
ATOM     22  C   UNL     1       6.550   3.911  13.083  0.00  0.00    +0.000 C 
ENDBRANCH  18  21
ENDBRANCH  12  18
ENDBRANCH   1  15
BRANCH   2  23
ATOM     23  C   UNL     1       1.960   6.136  20.543  0.00  0.00    +0.000 C 
ATOM     24  N   UNL     1       2.039   5.113  21.088  0.00  0.00    +0.000 NA
ENDBRANCH   2  23
TORSDOF 6
ENDMDL
MODEL 4
REMARK VINA RESULT:      -6.8      3.768     10.669
REMARK  Name = 
REMARK  8 active torsions:
REMARK  status: ('A' for Active; 'I' for Inactive)
REMARK    1  A    between atoms: C_1  and  C_2
REMARK    2  A    between atoms: C_2  and  N_3
REMARK    3  A    between atoms: N_3  and  C_4
REMARK    4  A    between atoms: N_3  and  C_6
REMARK    5  A    between atoms: C_4  and  C_5
REMARK    6  A    between atoms: C_9  and  C_10
REMARK    7  A    between atoms: C_11  and  C_12
REMARK    8  A    between atoms: C_11  and  C_14
REMARK                            x       y       z     vdW  Elec       q    Type
REMARK                         _______ _______ _______ _____ _____    ______ ____
ROOT
ATOM      1  C   UNL     1       0.305  10.086  21.024  0.00  0.00    +0.000 C 
ATOM      2  C   UNL     1       0.414  11.434  21.078  0.00  0.00    +0.000 C 
ENDROOT
BRANCH   2   3
ATOM      3  C   UNL     1      -0.507  12.182  21.886  0.00  0.00    +0.000 A 
ATOM      4  N   UNL     1      -0.271  13.346  22.491  0.00  0.00    +0.000 NA
ATOM      5  C   UNL     1      -1.377  13.589  23.264  0.00  0.00    +0.000 A 
ATOM      6  C   UNL     1      -1.664  14.621  24.165  0.00  0.00    +0.000 A 
ATOM      7  C   UNL     1      -2.881  14.568  24.862  0.00  0.00    +0.000 A 
ATOM      8  C   UNL     1      -3.795  13.528  24.647  0.00  0.00    +0.000 A 
ATOM      9  C   UNL     1      -3.529  12.503  23.730  0.00  0.00    +0.000 A 
ATOM     10  C   UNL     1      -2.302  12.583  23.080  0.00  0.00    +0.000 A 
ATOM     11  O   UNL     1      -1.778  11.701  22.188  0.00  0.00    +0.000 OA
ENDBRANCH   2   3
BRANCH   1  15
ATOM     12  C   UNL     1       2.523   7.251  18.555  0.00  0.00    +0.000 A 
ATOM     13  C   UNL     1       2.259   7.033  19.921  0.00  0.00    +0.000 A 
ATOM     14  C   UNL     1       1.548   7.952  20.712  0.00  0.00    +0.000 A 
ATOM     15  C   UNL     1       1.057   9.142  20.171  0.00  0.00    +0.000 A 
ATOM     16  C   UNL     1       1.225   9.330  18.801  0.00  0.00    +0.000 A 
ATOM     17  C   UNL     1       1.949   8.412  18.020  0.00  0.00    +0.000 A 
BRANCH  12  18
ATOM     18  N   UNL     1       3.284   6.368  17.768  0.00  0.00    +0.000 N 
BRANCH  18  20
ATOM     19  C   UNL     1       1.753   4.344  17.621  0.00  0.00    +0.000 C 
ATOM     20  C   UNL     1       3.113   4.919  17.991  0.00  0.00    +0.000 C 
ENDBRANCH  18  20
BRANCH  18  21
ATOM     21  C   UNL     1       4.494   6.869  17.090  0.00  0.00    +0.000 C 
ATOM     22  C   UNL     1       5.099   5.859  16.120  0.00  0.00    +0.000 C 
ENDBRANCH  18  21
ENDBRANCH  12  18
ENDBRANCH   1  15
BRANCH   2  23
ATOM     23  C   UNL     1       1.368  12.169  20.315  0.00  0.00    +0.000 C 
ATOM     24  N   UNL     1       2.148  12.746  19.676  0.00  0.00    +0.000 NA
ENDBRANCH   2  23
TORSDOF 6
ENDMDL
MODEL 5
REMARK VINA RESULT:      -6.7      2.356      3.737
REMARK  Name = 
REMARK  8 active torsions:
REMARK  status: ('A' for Active; 'I' for Inactive)
REMARK    1  A    between atoms: C_1  and  C_2
REMARK    2  A    between atoms: C_2  and  N_3
REMARK    3  A    between atoms: N_3  and  C_4
REMARK    4  A    between atoms: N_3  and  C_6
REMARK    5  A    between atoms: C_4  and  C_5
REMARK    6  A    between atoms: C_9  and  C_10
REMARK    7  A    between atoms: C_11  and  C_12
REMARK    8  A    between atoms: C_11  and  C_14
REMARK                            x       y       z     vdW  Elec       q    Type
REMARK                         _______ _______ _______ _____ _____    ______ ____
ROOT
ATOM      1  C   UNL     1       2.162   8.658  17.797  0.00  0.00    +0.000 C 
ATOM      2  C   UNL     1       2.638   7.573  18.449  0.00  0.00    +0.000 C 
ENDROOT
BRANCH   2   3
ATOM      3  C   UNL     1       3.669   6.781  17.840  0.00  0.00    +0.000 A 
ATOM      4  N   UNL     1       4.871   7.203  17.450  0.00  0.00    +0.000 NA
ATOM      5  C   UNL     1       5.436   6.143  16.790  0.00  0.00    +0.000 A 
ATOM      6  C   UNL     1       6.654   6.021  16.111  0.00  0.00    +0.000 A 
ATOM      7  C   UNL     1       6.937   4.802  15.475  0.00  0.00    +0.000 A 
ATOM      8  C   UNL     1       6.041   3.727  15.538  0.00  0.00    +0.000 A 
ATOM      9  C   UNL     1       4.830   3.829  16.236  0.00  0.00    +0.000 A 
ATOM     10  C   UNL     1       4.581   5.061  16.829  0.00  0.00    +0.000 A 
ATOM     11  O   UNL     1       3.470   5.441  17.516  0.00  0.00    +0.000 OA
ENDBRANCH   2   3
BRANCH   1  15
ATOM     12  C   UNL     1      -1.221  11.191  18.887  0.00  0.00    +0.000 A 
ATOM     13  C   UNL     1      -1.322  10.141  17.954  0.00  0.00    +0.000 A 
ATOM     14  C   UNL     1      -0.227   9.331  17.604  0.00  0.00    +0.000 A 
ATOM     15  C   UNL     1       1.031   9.530  18.177  0.00  0.00    +0.000 A 
ATOM     16  C   UNL     1       1.125  10.501  19.172  0.00  0.00    +0.000 A 
ATOM     17  C   UNL     1       0.029  11.315  19.506  0.00  0.00    +0.000 A 
BRANCH  12  18
ATOM     18  N   UNL     1      -2.294  12.045  19.200  0.00  0.00    +0.000 N 
BRANCH  18  20
ATOM     19  C   UNL     1      -1.959  14.169  20.556  0.00  0.00    +0.000 C 
ATOM     20  C   UNL     1      -2.304  12.687  20.528  0.00  0.00    +0.000 C 
ENDBRANCH  18  20
BRANCH  18  21
ATOM     21  C   UNL     1      -3.544  11.944  18.423  0.00  0.00    +0.000 C 
ATOM     22  C   UNL     1      -4.796  12.085  19.282  0.00  0.00    +0.000 C 
ENDBRANCH  18  21
ENDBRANCH  12  18
ENDBRANCH   1  15
BRANCH   2  23
ATOM     23  C   UNL     1       2.119   7.127  19.701  0.00  0.00    +0.000 C 
ATOM     24  N   UNL     1       1.691   6.740  20.709  0.00  0.00    +0.000 NA
ENDBRANCH   2  23
TORSDOF 6
ENDMDL
MODEL 6
REMARK VINA RESULT:      -6.7      4.475      8.566
REMARK  Name = 
REMARK  8 active torsions:
REMARK  status: ('A' for Active; 'I' for Inactive)
REMARK    1  A    between atoms: C_1  and  C_2
REMARK    2  A    between atoms: C_2  and  N_3
REMARK    3  A    between atoms: N_3  and  C_4
REMARK    4  A    between atoms: N_3  and  C_6
REMARK    5  A    between atoms: C_4  and  C_5
REMARK    6  A    between atoms: C_9  and  C_10
REMARK    7  A    between atoms: C_11  and  C_12
REMARK    8  A    between atoms: C_11  and  C_14
REMARK                            x       y       z     vdW  Elec       q    Type
REMARK                         _______ _______ _______ _____ _____    ______ ____
ROOT
ATOM      1  C   UNL     1       2.186   9.436  18.443  0.00  0.00    +0.000 C 
ATOM      2  C   UNL     1       1.284  10.358  18.849  0.00  0.00    +0.000 C 
ENDROOT
BRANCH   2   3
ATOM      3  C   UNL     1       1.532  11.748  18.585  0.00  0.00    +0.000 A 
ATOM      4  N   UNL     1       2.643  12.275  18.073  0.00  0.00    +0.000 NA
ATOM      5  C   UNL     1       2.476  13.634  18.154  0.00  0.00    +0.000 A 
ATOM      6  C   UNL     1       3.336  14.690  17.832  0.00  0.00    +0.000 A 
ATOM      7  C   UNL     1       2.896  15.999  18.080  0.00  0.00    +0.000 A 
ATOM      8  C   UNL     1       1.623  16.246  18.612  0.00  0.00    +0.000 A 
ATOM      9  C   UNL     1       0.744  15.199  18.914  0.00  0.00    +0.000 A 
ATOM     10  C   UNL     1       1.231  13.919  18.674  0.00  0.00    +0.000 A 
ATOM     11  O   UNL     1       0.610  12.735  18.925  0.00  0.00    +0.000 OA
ENDBRANCH   2   3
BRANCH   1  15
ATOM     12  C   UNL     1       2.232   5.134  19.185  0.00  0.00    +0.000 A 
ATOM     13  C   UNL     1       2.444   5.693  17.910  0.00  0.00    +0.000 A 
ATOM     14  C   UNL     1       2.424   7.079  17.676  0.00  0.00    +0.000 A 
ATOM     15  C   UNL     1       2.194   7.983  18.715  0.00  0.00    +0.000 A 
ATOM     16  C   UNL     1       2.077   7.453  19.999  0.00  0.00    +0.000 A 
ATOM     17  C   UNL     1       2.086   6.065  20.221  0.00  0.00    +0.000 A 
BRANCH  12  18
ATOM     18  N   UNL     1       2.190   3.748  19.419  0.00  0.00    +0.000 N 
BRANCH  18  20
ATOM     19  C   UNL     1       1.632   2.598  21.615  0.00  0.00    +0.000 C 
ATOM     20  C   UNL     1       2.675   3.250  20.720  0.00  0.00    +0.000 C 
ENDBRANCH  18  20
BRANCH  18  21
ATOM     21  C   UNL     1       2.091   2.827  18.270  0.00  0.00    +0.000 C 
ATOM     22  C   UNL     1       3.219   1.801  18.226  0.00  0.00    +0.000 C 
ENDBRANCH  18  21
ENDBRANCH  12  18
ENDBRANCH   1  15
BRANCH   2  23
ATOM     23  C   UNL     1       0.113  10.028  19.593  0.00  0.00    +0.000 C 
ATOM     24  N   UNL     1      -0.825   9.758  20.222  0.00  0.00    +0.000 NA
ENDBRANCH   2  23
TORSDOF 6
ENDMDL
MODEL 7
REMARK VINA RESULT:      -6.7      0.354      1.115
REMARK  Name = 
REMARK  8 active torsions:
REMARK  status: ('A' for Active; 'I' for Inactive)
REMARK    1  A    between atoms: C_1  and  C_2
REMARK    2  A    between atoms: C_2  and  N_3
REMARK    3  A    between atoms: N_3  and  C_4
REMARK    4  A    between atoms: N_3  and  C_6
REMARK    5  A    between atoms: C_4  and  C_5
REMARK    6  A    between atoms: C_9  and  C_10
REMARK    7  A    between atoms: C_11  and  C_12
REMARK    8  A    between atoms: C_11  and  C_14
REMARK                            x       y       z     vdW  Elec       q    Type
REMARK                         _______ _______ _______ _____ _____    ______ ____
ROOT
ATOM      1  C   UNL     1       3.828   7.020  16.934  0.00  0.00    +0.000 C 
ATOM      2  C   UNL     1       4.836   6.139  17.130  0.00  0.00    +0.000 C 
ENDROOT
BRANCH   2   3
ATOM      3  C   UNL     1       5.465   5.525  15.994  0.00  0.00    +0.000 A 
ATOM      4  N   UNL     1       6.631   5.868  15.448  0.00  0.00    +0.000 NA
ATOM      5  C   UNL     1       6.739   5.114  14.308  0.00  0.00    +0.000 A 
ATOM      6  C   UNL     1       7.712   5.095  13.303  0.00  0.00    +0.000 A 
ATOM      7  C   UNL     1       7.516   4.236  12.210  0.00  0.00    +0.000 A 
ATOM      8  C   UNL     1       6.393   3.401  12.138  0.00  0.00    +0.000 A 
ATOM      9  C   UNL     1       5.425   3.394  13.150  0.00  0.00    +0.000 A 
ATOM     10  C   UNL     1       5.648   4.277  14.200  0.00  0.00    +0.000 A 
ATOM     11  O   UNL     1       4.847   4.505  15.276  0.00  0.00    +0.000 OA
ENDBRANCH   2   3
BRANCH   1  15
ATOM     12  C   UNL     1       1.305   8.875  19.974  0.00  0.00    +0.000 A 
ATOM     13  C   UNL     1       1.868   7.594  20.126  0.00  0.00    +0.000 A 
ATOM     14  C   UNL     1       2.677   7.000  19.142  0.00  0.00    +0.000 A 
ATOM     15  C   UNL     1       2.968   7.665  17.948  0.00  0.00    +0.000 A 
ATOM     16  C   UNL     1       2.498   8.970  17.822  0.00  0.00    +0.000 A 
ATOM     17  C   UNL     1       1.680   9.552  18.806  0.00  0.00    +0.000 A 
BRANCH  12  18
ATOM     18  N   UNL     1       0.447   9.455  20.926  0.00  0.00    +0.000 N 
BRANCH  18  20
ATOM     19  C   UNL     1      -1.321  10.376  19.349  0.00  0.00    +0.000 C 
ATOM     20  C   UNL     1      -0.367  10.613  20.512  0.00  0.00    +0.000 C 
ENDBRANCH  18  20
BRANCH  18  21
ATOM     21  C   UNL     1       0.687   9.201  22.360  0.00  0.00    +0.000 C 
ATOM     22  C   UNL     1      -0.449   9.689  23.253  0.00  0.00    +0.000 C 
ENDBRANCH  18  21
ENDBRANCH  12  18
ENDBRANCH   1  15
BRANCH   2  23
ATOM     23  C   UNL     1       5.274   5.732  18.425  0.00  0.00    +0.000 C 
ATOM     24  N   UNL     1       5.657   5.408  19.472  0.00  0.00    +0.000 NA
ENDBRANCH   2  23
TORSDOF 6
ENDMDL
MODEL 8
REMARK VINA RESULT:      -6.7      2.364      3.913
REMARK  Name = 
REMARK  8 active torsions:
REMARK  status: ('A' for Active; 'I' for Inactive)
REMARK    1  A    between atoms: C_1  and  C_2
REMARK    2  A    between atoms: C_2  and  N_3
REMARK    3  A    between atoms: N_3  and  C_4
REMARK    4  A    between atoms: N_3  and  C_6
REMARK    5  A    between atoms: C_4  and  C_5
REMARK    6  A    between atoms: C_9  and  C_10
REMARK    7  A    between atoms: C_11  and  C_12
REMARK    8  A    between atoms: C_11  and  C_14
REMARK                            x       y       z     vdW  Elec       q    Type
REMARK                         _______ _______ _______ _____ _____    ______ ____
ROOT
ATOM      1  C   UNL     1       1.880   8.885  17.936  0.00  0.00    +0.000 C 
ATOM      2  C   UNL     1       2.396   7.799  18.555  0.00  0.00    +0.000 C 
ENDROOT
BRANCH   2   3
ATOM      3  C   UNL     1       3.358   6.986  17.865  0.00  0.00    +0.000 A 
ATOM      4  N   UNL     1       4.253   7.400  16.968  0.00  0.00    +0.000 NA
ATOM      5  C   UNL     1       4.833   6.260  16.476  0.00  0.00    +0.000 A 
ATOM      6  C   UNL     1       5.786   6.071  15.469  0.00  0.00    +0.000 A 
ATOM      7  C   UNL     1       6.152   4.755  15.145  0.00  0.00    +0.000 A 
ATOM      8  C   UNL     1       5.600   3.661  15.825  0.00  0.00    +0.000 A 
ATOM      9  C   UNL     1       4.664   3.839  16.852  0.00  0.00    +0.000 A 
ATOM     10  C   UNL     1       4.314   5.157  17.122  0.00  0.00    +0.000 A 
ATOM     11  O   UNL     1       3.400   5.604  18.026  0.00  0.00    +0.000 OA
ENDBRANCH   2   3
BRANCH   1  15
ATOM     12  C   UNL     1      -1.264  11.563  19.350  0.00  0.00    +0.000 A 
ATOM     13  C   UNL     1       0.086  11.703  19.725  0.00  0.00    +0.000 A 
ATOM     14  C   UNL     1       1.094  10.835  19.269  0.00  0.00    +0.000 A 
ATOM     15  C   UNL     1       0.799   9.777  18.405  0.00  0.00    +0.000 A 
ATOM     16  C   UNL     1      -0.514   9.681  17.949  0.00  0.00    +0.000 A 
ATOM     17  C   UNL     1      -1.517  10.546  18.419  0.00  0.00    +0.000 A 
BRANCH  12  18
ATOM     18  N   UNL     1      -2.289  12.388  19.846  0.00  0.00    +0.000 N 
BRANCH  18  20
ATOM     19  C   UNL     1      -2.169  12.197  22.377  0.00  0.00    +0.000 C 
ATOM     20  C   UNL     1      -2.067  13.070  21.135  0.00  0.00    +0.000 C 
ENDBRANCH  18  20
BRANCH  18  21
ATOM     21  C   UNL     1      -3.661  12.221  19.330  0.00  0.00    +0.000 C 
ATOM     22  C   UNL     1      -4.692  13.046  20.091  0.00  0.00    +0.000 C 
ENDBRANCH  18  21
ENDBRANCH  12  18
ENDBRANCH   1  15
BRANCH   2  23
ATOM     23  C   UNL     1       1.985   7.374  19.852  0.00  0.00    +0.000 C 
ATOM     24  N   UNL     1       1.631   7.047  20.910  0.00  0.00    +0.000 NA
ENDBRANCH   2  23
TORSDOF 6
ENDMDL
MODEL 9
REMARK VINA RESULT:      -6.7      2.106      3.362
REMARK  Name = 
REMARK  8 active torsions:
REMARK  status: ('A' for Active; 'I' for Inactive)
REMARK    1  A    between atoms: C_1  and  C_2
REMARK    2  A    between atoms: C_2  and  N_3
REMARK    3  A    between atoms: N_3  and  C_4
REMARK    4  A    between atoms: N_3  and  C_6
REMARK    5  A    between atoms: C_4  and  C_5
REMARK    6  A    between atoms: C_9  and  C_10
REMARK    7  A    between atoms: C_11  and  C_12
REMARK    8  A    between atoms: C_11  and  C_14
REMARK                            x       y       z     vdW  Elec       q    Type
REMARK                         _______ _______ _______ _____ _____    ______ ____
ROOT
ATOM      1  C   UNL     1       2.253   8.364  18.485  0.00  0.00    +0.000 C 
ATOM      2  C   UNL     1       2.605   7.088  18.765  0.00  0.00    +0.000 C 
ENDROOT
BRANCH   2   3
ATOM      3  C   UNL     1       3.482   6.387  17.870  0.00  0.00    +0.000 A 
ATOM      4  N   UNL     1       3.366   5.122  17.469  0.00  0.00    +0.000 NA
ATOM      5  C   UNL     1       4.507   4.855  16.758  0.00  0.00    +0.000 A 
ATOM      6  C   UNL     1       4.966   3.678  16.158  0.00  0.00    +0.000 A 
ATOM      7  C   UNL     1       6.224   3.701  15.534  0.00  0.00    +0.000 A 
ATOM      8  C   UNL     1       6.988   4.874  15.490  0.00  0.00    +0.000 A 
ATOM      9  C   UNL     1       6.528   6.066  16.066  0.00  0.00    +0.000 A 
ATOM     10  C   UNL     1       5.289   5.990  16.692  0.00  0.00    +0.000 A 
ATOM     11  O   UNL     1       4.639   6.976  17.367  0.00  0.00    +0.000 OA
ENDBRANCH   2   3
BRANCH   1  15
ATOM     12  C   UNL     1      -0.668  10.896  20.513  0.00  0.00    +0.000 A 
ATOM     13  C   UNL     1      -0.634  10.736  19.115  0.00  0.00    +0.000 A 
ATOM     14  C   UNL     1       0.311   9.922  18.466  0.00  0.00    +0.000 A 
ATOM     15  C   UNL     1       1.276   9.218  19.192  0.00  0.00    +0.000 A 
ATOM     16  C   UNL     1       1.197   9.289  20.581  0.00  0.00    +0.000 A 
ATOM     17  C   UNL     1       0.256  10.115  21.220  0.00  0.00    +0.000 A 
BRANCH  12  18
ATOM     18  N   UNL     1      -1.571  11.753  21.167  0.00  0.00    +0.000 N 
BRANCH  18  20
ATOM     19  C   UNL     1      -1.540  14.153  20.332  0.00  0.00    +0.000 C 
ATOM     20  C   UNL     1      -2.235  12.800  20.368  0.00  0.00    +0.000 C 
ENDBRANCH  18  20
BRANCH  18  21
ATOM     21  C   UNL     1      -1.509  11.878  22.636  0.00  0.00    +0.000 C 
ATOM     22  C   UNL     1      -2.865  12.169  23.270  0.00  0.00    +0.000 C 
ENDBRANCH  18  21
ENDBRANCH  12  18
ENDBRANCH   1  15
BRANCH   2  23
ATOM     23  C   UNL     1       2.094   6.367  19.884  0.00  0.00    +0.000 C 
ATOM     24  N   UNL     1       1.668   5.760  20.779  0.00  0.00    +0.000 NA
ENDBRANCH   2  23
TORSDOF 6
ENDMDL
