MODEL 1
REMARK VINA RESULT:      -9.4      0.000      0.000
REMARK  Name = 
REMARK  6 active torsions:
REMARK  status: ('A' for Active; 'I' for Inactive)
REMARK    1  A    between atoms: C_1  and  C_2
REMARK    2  A    between atoms: C_5  and  S_6
REMARK    3  A    between atoms: S_6  and  N_9
REMARK    4  A    between atoms: C_10  and  C_12
REMARK    5  A    between atoms: C_12  and  O_13
REMARK    6  A    between atoms: O_13  and  C_14
REMARK                            x       y       z     vdW  Elec       q    Type
REMARK                         _______ _______ _______ _____ _____    ______ ____
ROOT
ATOM      1  N   UNL     1       7.412   6.917  16.578  0.00  0.00    +0.000 N 
ATOM      2  C   UNL     1       7.828   7.336  17.853  0.00  0.00    +0.000 C 
ATOM      3  O   UNL     1       7.946   6.562  18.795  0.00  0.00    +0.000 OA
ATOM      4  H   UNL     1       7.235   7.578  15.829  0.00  0.00    +0.000 HD
ENDROOT
BRANCH   1   5
ATOM      5  S   UNL     1       7.082   5.342  16.164  0.00  0.00    +0.000 S 
ATOM      6  O   UNL     1       8.018   4.482  16.857  0.00  0.00    +0.000 OA
ATOM      7  O   UNL     1       7.000   5.336  14.718  0.00  0.00    +0.000 OA
BRANCH   5  12
ATOM      8  C   UNL     1       1.459   4.425  18.248  0.00  0.00    +0.000 C 
ATOM      9  C   UNL     1       2.852   4.657  17.739  0.00  0.00    +0.000 A 
ATOM     10  C   UNL     1       3.419   5.938  17.755  0.00  0.00    +0.000 A 
ATOM     11  C   UNL     1       4.711   6.147  17.272  0.00  0.00    +0.000 A 
ATOM     12  C   UNL     1       5.444   5.064  16.779  0.00  0.00    +0.000 A 
ATOM     13  C   UNL     1       4.894   3.781  16.753  0.00  0.00    +0.000 A 
ATOM     14  C   UNL     1       3.598   3.581  17.233  0.00  0.00    +0.000 A 
ENDBRANCH   5  12
ENDBRANCH   1   5
BRANCH   2  15
ATOM     15  C   UNL     1       8.115   8.826  17.987  0.00  0.00    +0.000 C 
BRANCH  15  16
ATOM     16  O   UNL     1       9.001   9.047  19.079  0.00  0.00    +0.000 OA
BRANCH  16  17
ATOM     17  C   UNL     1       9.388  10.342  19.308  0.00  0.00    +0.000 A 
ATOM     18  C   UNL     1       9.389  10.990  20.542  0.00  0.00    +0.000 A 
ATOM     19  C   UNL     1       9.851  12.307  20.647  0.00  0.00    +0.000 A 
ATOM     20  C   UNL     1      10.322  13.001  19.523  0.00  0.00    +0.000 A 
ATOM     21  C   UNL     1      10.811  14.315  19.621  0.00  0.00    +0.000 A 
ATOM     22  C   UNL     1      11.281  14.987  18.493  0.00  0.00    +0.000 A 
ATOM     23  C   UNL     1      11.259  14.360  17.251  0.00  0.00    +0.000 A 
ATOM     24  C   UNL     1      10.772  13.056  17.137  0.00  0.00    +0.000 A 
ATOM     25  C   UNL     1      10.303  12.358  18.265  0.00  0.00    +0.000 A 
ATOM     26  C   UNL     1       9.830  11.036  18.176  0.00  0.00    +0.000 A 
ENDBRANCH  16  17
ENDBRANCH  15  16
ENDBRANCH   2  15
TORSDOF 5
ENDMDL
MODEL 2
REMARK VINA RESULT:      -8.9      1.087      2.102
REMARK  Name = 
REMARK  6 active torsions:
REMARK  status: ('A' for Active; 'I' for Inactive)
REMARK    1  A    between atoms: C_1  and  C_2
REMARK    2  A    between atoms: C_5  and  S_6
REMARK    3  A    between atoms: S_6  and  N_9
REMARK    4  A    between atoms: C_10  and  C_12
REMARK    5  A    between atoms: C_12  and  O_13
REMARK    6  A    between atoms: O_13  and  C_14
REMARK                            x       y       z     vdW  Elec       q    Type
REMARK                         _______ _______ _______ _____ _____    ______ ____
ROOT
ATOM      1  N   UNL     1       7.130   7.168  16.719  0.00  0.00    +0.000 N 
ATOM      2  C   UNL     1       7.829   7.608  17.856  0.00  0.00    +0.000 C 
ATOM      3  O   UNL     1       8.119   6.860  18.781  0.00  0.00    +0.000 OA
ATOM      4  H   UNL     1       6.820   7.814  16.000  0.00  0.00    +0.000 HD
ENDROOT
BRANCH   1   5
ATOM      5  S   UNL     1       6.658   5.599  16.451  0.00  0.00    +0.000 S 
ATOM      6  O   UNL     1       7.735   4.721  16.860  0.00  0.00    +0.000 OA
ATOM      7  O   UNL     1       6.160   5.576  15.091  0.00  0.00    +0.000 OA
BRANCH   5  12
ATOM      8  C   UNL     1       1.909   4.826  20.146  0.00  0.00    +0.000 C 
ATOM      9  C   UNL     1       3.085   5.009  19.230  0.00  0.00    +0.000 A 
ATOM     10  C   UNL     1       4.228   4.211  19.362  0.00  0.00    +0.000 A 
ATOM     11  C   UNL     1       5.321   4.393  18.514  0.00  0.00    +0.000 A 
ATOM     12  C   UNL     1       5.263   5.374  17.520  0.00  0.00    +0.000 A 
ATOM     13  C   UNL     1       4.133   6.180  17.377  0.00  0.00    +0.000 A 
ATOM     14  C   UNL     1       3.046   5.995  18.233  0.00  0.00    +0.000 A 
ENDBRANCH   5  12
ENDBRANCH   1   5
BRANCH   2  15
ATOM     15  C   UNL     1       8.195   9.087  17.864  0.00  0.00    +0.000 C 
BRANCH  15  16
ATOM     16  O   UNL     1       8.953   9.386  19.031  0.00  0.00    +0.000 OA
BRANCH  16  17
ATOM     17  C   UNL     1       9.504  10.639  19.105  0.00  0.00    +0.000 A 
ATOM     18  C   UNL     1      10.176  11.299  18.078  0.00  0.00    +0.000 A 
ATOM     19  C   UNL     1      10.655  12.601  18.271  0.00  0.00    +0.000 A 
ATOM     20  C   UNL     1      10.470  13.267  19.491  0.00  0.00    +0.000 A 
ATOM     21  C   UNL     1      10.924  14.583  19.687  0.00  0.00    +0.000 A 
ATOM     22  C   UNL     1      10.726  15.232  20.905  0.00  0.00    +0.000 A 
ATOM     23  C   UNL     1      10.080  14.572  21.946  0.00  0.00    +0.000 A 
ATOM     24  C   UNL     1       9.626  13.264  21.768  0.00  0.00    +0.000 A 
ATOM     25  C   UNL     1       9.808  12.596  20.543  0.00  0.00    +0.000 A 
ATOM     26  C   UNL     1       9.339  11.286  20.335  0.00  0.00    +0.000 A 
ENDBRANCH  16  17
ENDBRANCH  15  16
ENDBRANCH   2  15
TORSDOF 5
ENDMDL
MODEL 3
REMARK VINA RESULT:      -8.7      1.196      1.406
REMARK  Name = 
REMARK  6 active torsions:
REMARK  status: ('A' for Active; 'I' for Inactive)
REMARK    1  A    between atoms: C_1  and  C_2
REMARK    2  A    between atoms: C_5  and  S_6
REMARK    3  A    between atoms: S_6  and  N_9
REMARK    4  A    between atoms: C_10  and  C_12
REMARK    5  A    between atoms: C_12  and  O_13
REMARK    6  A    between atoms: O_13  and  C_14
REMARK                            x       y       z     vdW  Elec       q    Type
REMARK                         _______ _______ _______ _____ _____    ______ ____
ROOT
ATOM      1  N   UNL     1       7.817   6.471  17.601  0.00  0.00    +0.000 N 
ATOM      2  C   UNL     1       7.025   7.551  17.180  0.00  0.00    +0.000 C 
ATOM      3  O   UNL     1       6.033   7.407  16.476  0.00  0.00    +0.000 OA
ATOM      4  H   UNL     1       8.684   6.611  18.111  0.00  0.00    +0.000 HD
ENDROOT
BRANCH   1   5
ATOM      5  S   UNL     1       7.498   4.878  17.259  0.00  0.00    +0.000 S 
ATOM      6  O   UNL     1       8.383   4.052  18.053  0.00  0.00    +0.000 OA
ATOM      7  O   UNL     1       7.501   4.789  15.812  0.00  0.00    +0.000 OA
BRANCH   5  12
ATOM      8  C   UNL     1       1.765   4.040  19.057  0.00  0.00    +0.000 C 
ATOM      9  C   UNL     1       3.181   4.251  18.605  0.00  0.00    +0.000 A 
ATOM     10  C   UNL     1       3.567   3.953  17.292  0.00  0.00    +0.000 A 
ATOM     11  C   UNL     1       4.887   4.143  16.882  0.00  0.00    +0.000 A 
ATOM     12  C   UNL     1       5.824   4.645  17.790  0.00  0.00    +0.000 A 
ATOM     13  C   UNL     1       5.456   4.944  19.103  0.00  0.00    +0.000 A 
ATOM     14  C   UNL     1       4.135   4.746  19.507  0.00  0.00    +0.000 A 
ENDBRANCH   5  12
ENDBRANCH   1   5
BRANCH   2  15
ATOM     15  C   UNL     1       7.489   8.924  17.652  0.00  0.00    +0.000 C 
BRANCH  15  16
ATOM     16  O   UNL     1       8.583   8.777  18.550  0.00  0.00    +0.000 OA
BRANCH  16  17
ATOM     17  C   UNL     1       9.179   9.930  18.992  0.00  0.00    +0.000 A 
ATOM     18  C   UNL     1       9.249  10.360  20.315  0.00  0.00    +0.000 A 
ATOM     19  C   UNL     1       9.928  11.541  20.638  0.00  0.00    +0.000 A 
ATOM     20  C   UNL     1      10.549  12.314  19.646  0.00  0.00    +0.000 A 
ATOM     21  C   UNL     1      11.254  13.488  19.961  0.00  0.00    +0.000 A 
ATOM     22  C   UNL     1      11.870  14.241  18.962  0.00  0.00    +0.000 A 
ATOM     23  C   UNL     1      11.782  13.836  17.633  0.00  0.00    +0.000 A 
ATOM     24  C   UNL     1      11.082  12.673  17.303  0.00  0.00    +0.000 A 
ATOM     25  C   UNL     1      10.462  11.896  18.299  0.00  0.00    +0.000 A 
ATOM     26  C   UNL     1       9.772  10.709  17.991  0.00  0.00    +0.000 A 
ENDBRANCH  16  17
ENDBRANCH  15  16
ENDBRANCH   2  15
TORSDOF 5
ENDMDL
MODEL 4
REMARK VINA RESULT:      -8.6      5.950      7.311
REMARK  Name = 
REMARK  6 active torsions:
REMARK  status: ('A' for Active; 'I' for Inactive)
REMARK    1  A    between atoms: C_1  and  C_2
REMARK    2  A    between atoms: C_5  and  S_6
REMARK    3  A    between atoms: S_6  and  N_9
REMARK    4  A    between atoms: C_10  and  C_12
REMARK    5  A    between atoms: C_12  and  O_13
REMARK    6  A    between atoms: O_13  and  C_14
REMARK                            x       y       z     vdW  Elec       q    Type
REMARK                         _______ _______ _______ _____ _____    ______ ____
ROOT
ATOM      1  N   UNL     1       5.739   5.278  17.689  0.00  0.00    +0.000 N 
ATOM      2  C   UNL     1       5.708   5.352  19.092  0.00  0.00    +0.000 C 
ATOM      3  O   UNL     1       6.725   5.397  19.772  0.00  0.00    +0.000 OA
ATOM      4  H   UNL     1       4.893   5.155  17.142  0.00  0.00    +0.000 HD
ENDROOT
BRANCH   1   5
ATOM      5  S   UNL     1       7.125   5.297  16.775  0.00  0.00    +0.000 S 
ATOM      6  O   UNL     1       8.079   4.386  17.372  0.00  0.00    +0.000 OA
ATOM      7  O   UNL     1       7.448   6.698  16.598  0.00  0.00    +0.000 OA
BRANCH   5  12
ATOM      8  C   UNL     1       5.335   3.199  11.372  0.00  0.00    +0.000 C 
ATOM      9  C   UNL     1       5.775   3.711  12.712  0.00  0.00    +0.000 A 
ATOM     10  C   UNL     1       4.923   3.643  13.821  0.00  0.00    +0.000 A 
ATOM     11  C   UNL     1       5.336   4.130  15.063  0.00  0.00    +0.000 A 
ATOM     12  C   UNL     1       6.614   4.678  15.195  0.00  0.00    +0.000 A 
ATOM     13  C   UNL     1       7.475   4.757  14.099  0.00  0.00    +0.000 A 
ATOM     14  C   UNL     1       7.052   4.273  12.860  0.00  0.00    +0.000 A 
ENDBRANCH   5  12
ENDBRANCH   1   5
BRANCH   2  15
ATOM     15  C   UNL     1       4.316   5.363  19.713  0.00  0.00    +0.000 C 
BRANCH  15  16
ATOM     16  O   UNL     1       3.349   5.672  18.717  0.00  0.00    +0.000 OA
BRANCH  16  17
ATOM     17  C   UNL     1       2.721   6.886  18.821  0.00  0.00    +0.000 A 
ATOM     18  C   UNL     1       2.642   7.855  17.822  0.00  0.00    +0.000 A 
ATOM     19  C   UNL     1       1.930   9.040  18.044  0.00  0.00    +0.000 A 
ATOM     20  C   UNL     1       1.284   9.279  19.265  0.00  0.00    +0.000 A 
ATOM     21  C   UNL     1       0.546  10.454  19.490  0.00  0.00    +0.000 A 
ATOM     22  C   UNL     1      -0.095  10.672  20.709  0.00  0.00    +0.000 A 
ATOM     23  C   UNL     1       0.000   9.723  21.723  0.00  0.00    +0.000 A 
ATOM     24  C   UNL     1       0.733   8.553  21.517  0.00  0.00    +0.000 A 
ATOM     25  C   UNL     1       1.378   8.311  20.290  0.00  0.00    +0.000 A 
ATOM     26  C   UNL     1       2.102   7.128  20.053  0.00  0.00    +0.000 A 
ENDBRANCH  16  17
ENDBRANCH  15  16
ENDBRANCH   2  15
TORSDOF 5
ENDMDL
MODEL 5
REMARK VINA RESULT:      -8.6      1.157      1.682
REMARK  Name = 
REMARK  6 active torsions:
REMARK  status: ('A' for Active; 'I' for Inactive)
REMARK    1  A    between atoms: C_1  and  C_2
REMARK    2  A    between atoms: C_5  and  S_6
REMARK    3  A    between atoms: S_6  and  N_9
REMARK    4  A    between atoms: C_10  and  C_12
REMARK    5  A    between atoms: C_12  and  O_13
REMARK    6  A    between atoms: O_13  and  C_14
REMARK                            x       y       z     vdW  Elec       q    Type
REMARK                         _______ _______ _______ _____ _____    ______ ____
ROOT
ATOM      1  N   UNL     1       7.133   6.644  16.720  0.00  0.00    +0.000 N 
ATOM      2  C   UNL     1       7.722   7.350  17.783  0.00  0.00    +0.000 C 
ATOM      3  O   UNL     1       8.069   6.805  18.823  0.00  0.00    +0.000 OA
ATOM      4  H   UNL     1       6.771   7.119  15.900  0.00  0.00    +0.000 HD
ENDROOT
BRANCH   1   5
ATOM      5  S   UNL     1       6.881   5.003  16.704  0.00  0.00    +0.000 S 
ATOM      6  O   UNL     1       7.958   4.367  17.432  0.00  0.00    +0.000 OA
ATOM      7  O   UNL     1       6.626   4.669  15.317  0.00  0.00    +0.000 OA
BRANCH   5  12
ATOM      8  C   UNL     1       1.681   4.269  19.740  0.00  0.00    +0.000 C 
ATOM      9  C   UNL     1       2.969   4.443  18.989  0.00  0.00    +0.000 A 
ATOM     10  C   UNL     1       4.147   3.832  19.436  0.00  0.00    +0.000 A 
ATOM     11  C   UNL     1       5.343   4.005  18.738  0.00  0.00    +0.000 A 
ATOM     12  C   UNL     1       5.356   4.787  17.579  0.00  0.00    +0.000 A 
ATOM     13  C   UNL     1       4.191   5.405  17.122  0.00  0.00    +0.000 A 
ATOM     14  C   UNL     1       3.000   5.231  17.829  0.00  0.00    +0.000 A 
ENDBRANCH   5  12
ENDBRANCH   1   5
BRANCH   2  15
ATOM     15  C   UNL     1       7.892   8.847  17.557  0.00  0.00    +0.000 C 
BRANCH  15  16
ATOM     16  O   UNL     1       8.750   9.388  18.555  0.00  0.00    +0.000 OA
BRANCH  16  17
ATOM     17  C   UNL     1       9.096  10.708  18.422  0.00  0.00    +0.000 A 
ATOM     18  C   UNL     1       8.374  11.677  17.728  0.00  0.00    +0.000 A 
ATOM     19  C   UNL     1       8.818  13.005  17.706  0.00  0.00    +0.000 A 
ATOM     20  C   UNL     1       9.987  13.389  18.376  0.00  0.00    +0.000 A 
ATOM     21  C   UNL     1      10.428  14.724  18.381  0.00  0.00    +0.000 A 
ATOM     22  C   UNL     1      11.591  15.090  19.060  0.00  0.00    +0.000 A 
ATOM     23  C   UNL     1      12.333  14.125  19.733  0.00  0.00    +0.000 A 
ATOM     24  C   UNL     1      11.911  12.794  19.734  0.00  0.00    +0.000 A 
ATOM     25  C   UNL     1      10.735  12.408  19.064  0.00  0.00    +0.000 A 
ATOM     26  C   UNL     1      10.279  11.077  19.072  0.00  0.00    +0.000 A 
ENDBRANCH  16  17
ENDBRANCH  15  16
ENDBRANCH   2  15
TORSDOF 5
ENDMDL
MODEL 6
REMARK VINA RESULT:      -8.4      1.166      1.644
REMARK  Name = 
REMARK  6 active torsions:
REMARK  status: ('A' for Active; 'I' for Inactive)
REMARK    1  A    between atoms: C_1  and  C_2
REMARK    2  A    between atoms: C_5  and  S_6
REMARK    3  A    between atoms: S_6  and  N_9
REMARK    4  A    between atoms: C_10  and  C_12
REMARK    5  A    between atoms: C_12  and  O_13
REMARK    6  A    between atoms: O_13  and  C_14
REMARK                            x       y       z     vdW  Elec       q    Type
REMARK                         _______ _______ _______ _____ _____    ______ ____
ROOT
ATOM      1  N   UNL     1       6.668   7.121  16.949  0.00  0.00    +0.000 N 
ATOM      2  C   UNL     1       7.492   6.581  17.951  0.00  0.00    +0.000 C 
ATOM      3  O   UNL     1       7.479   5.393  18.245  0.00  0.00    +0.000 OA
ATOM      4  H   UNL     1       6.625   8.119  16.773  0.00  0.00    +0.000 HD
ENDROOT
BRANCH   1   5
ATOM      5  S   UNL     1       5.626   6.235  16.007  0.00  0.00    +0.000 S 
ATOM      6  O   UNL     1       6.343   5.091  15.483  0.00  0.00    +0.000 OA
ATOM      7  O   UNL     1       5.007   7.194  15.115  0.00  0.00    +0.000 OA
BRANCH   5  12
ATOM      8  C   UNL     1       1.365   4.340  19.887  0.00  0.00    +0.000 C 
ATOM      9  C   UNL     1       2.417   4.804  18.921  0.00  0.00    +0.000 A 
ATOM     10  C   UNL     1       3.169   3.882  18.183  0.00  0.00    +0.000 A 
ATOM     11  C   UNL     1       4.151   4.320  17.294  0.00  0.00    +0.000 A 
ATOM     12  C   UNL     1       4.374   5.691  17.136  0.00  0.00    +0.000 A 
ATOM     13  C   UNL     1       3.635   6.623  17.866  0.00  0.00    +0.000 A 
ATOM     14  C   UNL     1       2.658   6.176  18.758  0.00  0.00    +0.000 A 
ENDBRANCH   5  12
ENDBRANCH   1   5
BRANCH   2  15
ATOM     15  C   UNL     1       8.400   7.581  18.657  0.00  0.00    +0.000 C 
BRANCH  15  16
ATOM     16  O   UNL     1       8.185   8.883  18.124  0.00  0.00    +0.000 OA
BRANCH  16  17
ATOM     17  C   UNL     1       8.911   9.905  18.679  0.00  0.00    +0.000 A 
ATOM     18  C   UNL     1       9.075  10.146  20.042  0.00  0.00    +0.000 A 
ATOM     19  C   UNL     1       9.883  11.203  20.479  0.00  0.00    +0.000 A 
ATOM     20  C   UNL     1      10.541  12.037  19.564  0.00  0.00    +0.000 A 
ATOM     21  C   UNL     1      11.374  13.085  19.991  0.00  0.00    +0.000 A 
ATOM     22  C   UNL     1      12.026  13.901  19.067  0.00  0.00    +0.000 A 
ATOM     23  C   UNL     1      11.848  13.686  17.704  0.00  0.00    +0.000 A 
ATOM     24  C   UNL     1      11.021  12.651  17.263  0.00  0.00    +0.000 A 
ATOM     25  C   UNL     1      10.362  11.812  18.181  0.00  0.00    +0.000 A 
ATOM     26  C   UNL     1       9.543  10.749  17.759  0.00  0.00    +0.000 A 
ENDBRANCH  16  17
ENDBRANCH  15  16
ENDBRANCH   2  15
TORSDOF 5
ENDMDL
MODEL 7
REMARK VINA RESULT:      -8.4      1.172      1.212
REMARK  Name = 
REMARK  6 active torsions:
REMARK  status: ('A' for Active; 'I' for Inactive)
REMARK    1  A    between atoms: C_1  and  C_2
REMARK    2  A    between atoms: C_5  and  S_6
REMARK    3  A    between atoms: S_6  and  N_9
REMARK    4  A    between atoms: C_10  and  C_12
REMARK    5  A    between atoms: C_12  and  O_13
REMARK    6  A    between atoms: O_13  and  C_14
REMARK                            x       y       z     vdW  Elec       q    Type
REMARK                         _______ _______ _______ _____ _____    ______ ____
ROOT
ATOM      1  N   UNL     1       7.026   7.293  16.628  0.00  0.00    +0.000 N 
ATOM      2  C   UNL     1       7.848   7.751  17.671  0.00  0.00    +0.000 C 
ATOM      3  O   UNL     1       8.194   7.033  18.601  0.00  0.00    +0.000 OA
ATOM      4  H   UNL     1       6.676   7.919  15.909  0.00  0.00    +0.000 HD
ENDROOT
BRANCH   1   5
ATOM      5  S   UNL     1       6.466   5.736  16.483  0.00  0.00    +0.000 S 
ATOM      6  O   UNL     1       7.526   4.831  16.874  0.00  0.00    +0.000 OA
ATOM      7  O   UNL     1       5.878   5.663  15.161  0.00  0.00    +0.000 OA
BRANCH   5  12
ATOM      8  C   UNL     1       1.881   5.415  20.442  0.00  0.00    +0.000 C 
ATOM      9  C   UNL     1       3.016   5.503  19.463  0.00  0.00    +0.000 A 
ATOM     10  C   UNL     1       3.003   6.451  18.432  0.00  0.00    +0.000 A 
ATOM     11  C   UNL     1       4.057   6.520  17.520  0.00  0.00    +0.000 A 
ATOM     12  C   UNL     1       5.136   5.641  17.649  0.00  0.00    +0.000 A 
ATOM     13  C   UNL     1       5.163   4.689  18.669  0.00  0.00    +0.000 A 
ATOM     14  C   UNL     1       4.102   4.622  19.574  0.00  0.00    +0.000 A 
ENDBRANCH   5  12
ENDBRANCH   1   5
BRANCH   2  15
ATOM     15  C   UNL     1       8.275   9.211  17.572  0.00  0.00    +0.000 C 
BRANCH  15  16
ATOM     16  O   UNL     1       8.292   9.794  18.870  0.00  0.00    +0.000 OA
BRANCH  16  17
ATOM     17  C   UNL     1       9.241  10.755  19.102  0.00  0.00    +0.000 A 
ATOM     18  C   UNL     1      10.068  10.835  20.221  0.00  0.00    +0.000 A 
ATOM     19  C   UNL     1      11.031  11.847  20.316  0.00  0.00    +0.000 A 
ATOM     20  C   UNL     1      11.185  12.797  19.296  0.00  0.00    +0.000 A 
ATOM     21  C   UNL     1      12.165  13.803  19.369  0.00  0.00    +0.000 A 
ATOM     22  C   UNL     1      12.308  14.735  18.342  0.00  0.00    +0.000 A 
ATOM     23  C   UNL     1      11.469  14.681  17.233  0.00  0.00    +0.000 A 
ATOM     24  C   UNL     1      10.489  13.691  17.147  0.00  0.00    +0.000 A 
ATOM     25  C   UNL     1      10.336  12.735  18.169  0.00  0.00    +0.000 A 
ATOM     26  C   UNL     1       9.370  11.715  18.092  0.00  0.00    +0.000 A 
ENDBRANCH  16  17
ENDBRANCH  15  16
ENDBRANCH   2  15
TORSDOF 5
ENDMDL
MODEL 8
REMARK VINA RESULT:      -8.4      1.861      2.617
REMARK  Name = 
REMARK  6 active torsions:
REMARK  status: ('A' for Active; 'I' for Inactive)
REMARK    1  A    between atoms: C_1  and  C_2
REMARK    2  A    between atoms: C_5  and  S_6
REMARK    3  A    between atoms: S_6  and  N_9
REMARK    4  A    between atoms: C_10  and  C_12
REMARK    5  A    between atoms: C_12  and  O_13
REMARK    6  A    between atoms: O_13  and  C_14
REMARK                            x       y       z     vdW  Elec       q    Type
REMARK                         _______ _______ _______ _____ _____    ______ ____
ROOT
ATOM      1  N   UNL     1       7.979   6.390  17.842  0.00  0.00    +0.000 N 
ATOM      2  C   UNL     1       7.161   7.510  17.621  0.00  0.00    +0.000 C 
ATOM      3  O   UNL     1       5.958   7.416  17.408  0.00  0.00    +0.000 OA
ATOM      4  H   UNL     1       8.987   6.474  17.931  0.00  0.00    +0.000 HD
ENDROOT
BRANCH   1   5
ATOM      5  S   UNL     1       7.435   4.822  17.901  0.00  0.00    +0.000 S 
ATOM      6  O   UNL     1       6.363   4.745  18.871  0.00  0.00    +0.000 OA
ATOM      7  O   UNL     1       8.626   4.009  18.046  0.00  0.00    +0.000 OA
BRANCH   5  12
ATOM      8  C   UNL     1       5.203   3.806  12.352  0.00  0.00    +0.000 C 
ATOM      9  C   UNL     1       5.754   4.050  13.727  0.00  0.00    +0.000 A 
ATOM     10  C   UNL     1       5.048   3.640  14.866  0.00  0.00    +0.000 A 
ATOM     11  C   UNL     1       5.561   3.879  16.141  0.00  0.00    +0.000 A 
ATOM     12  C   UNL     1       6.795   4.521  16.276  0.00  0.00    +0.000 A 
ATOM     13  C   UNL     1       7.510   4.938  15.152  0.00  0.00    +0.000 A 
ATOM     14  C   UNL     1       6.987   4.701  13.880  0.00  0.00    +0.000 A 
ENDBRANCH   5  12
ENDBRANCH   1   5
BRANCH   2  15
ATOM     15  C   UNL     1       7.875   8.856  17.653  0.00  0.00    +0.000 C 
BRANCH  15  16
ATOM     16  O   UNL     1       8.753   8.906  18.771  0.00  0.00    +0.000 OA
BRANCH  16  17
ATOM     17  C   UNL     1       9.268  10.134  19.098  0.00  0.00    +0.000 A 
ATOM     18  C   UNL     1       9.376  10.660  20.384  0.00  0.00    +0.000 A 
ATOM     19  C   UNL     1       9.964  11.915  20.584  0.00  0.00    +0.000 A 
ATOM     20  C   UNL     1      10.455  12.665  19.507  0.00  0.00    +0.000 A 
ATOM     21  C   UNL     1      11.069  13.915  19.700  0.00  0.00    +0.000 A 
ATOM     22  C   UNL     1      11.557  14.646  18.616  0.00  0.00    +0.000 A 
ATOM     23  C   UNL     1      11.429  14.141  17.326  0.00  0.00    +0.000 A 
ATOM     24  C   UNL     1      10.818  12.903  17.117  0.00  0.00    +0.000 A 
ATOM     25  C   UNL     1      10.329  12.148  18.199  0.00  0.00    +0.000 A 
ATOM     26  C   UNL     1       9.730  10.888  18.013  0.00  0.00    +0.000 A 
ENDBRANCH  16  17
ENDBRANCH  15  16
ENDBRANCH   2  15
TORSDOF 5
ENDMDL
MODEL 9
REMARK VINA RESULT:      -8.4      1.396      1.615
REMARK  Name = 
REMARK  6 active torsions:
REMARK  status: ('A' for Active; 'I' for Inactive)
REMARK    1  A    between atoms: C_1  and  C_2
REMARK    2  A    between atoms: C_5  and  S_6
REMARK    3  A    between atoms: S_6  and  N_9
REMARK    4  A    between atoms: C_10  and  C_12
REMARK    5  A    between atoms: C_12  and  O_13
REMARK    6  A    between atoms: O_13  and  C_14
REMARK                            x       y       z     vdW  Elec       q    Type
REMARK                         _______ _______ _______ _____ _____    ______ ____
ROOT
ATOM      1  N   UNL     1       6.363   6.535  17.817  0.00  0.00    +0.000 N 
ATOM      2  C   UNL     1       7.543   7.181  17.411  0.00  0.00    +0.000 C 
ATOM      3  O   UNL     1       8.078   6.960  16.333  0.00  0.00    +0.000 OA
ATOM      4  H   UNL     1       5.977   6.662  18.747  0.00  0.00    +0.000 HD
ENDROOT
BRANCH   1   5
ATOM      5  S   UNL     1       5.519   5.446  16.890  0.00  0.00    +0.000 S 
ATOM      6  O   UNL     1       6.365   4.296  16.651  0.00  0.00    +0.000 OA
ATOM      7  O   UNL     1       4.985   6.216  15.786  0.00  0.00    +0.000 OA
BRANCH   5  12
ATOM      8  C   UNL     1       0.817   3.888  20.393  0.00  0.00    +0.000 C 
ATOM      9  C   UNL     1       1.986   4.271  19.532  0.00  0.00    +0.000 A 
ATOM     10  C   UNL     1       3.020   5.067  20.040  0.00  0.00    +0.000 A 
ATOM     11  C   UNL     1       4.099   5.428  19.231  0.00  0.00    +0.000 A 
ATOM     12  C   UNL     1       4.146   4.978  17.909  0.00  0.00    +0.000 A 
ATOM     13  C   UNL     1       3.122   4.187  17.386  0.00  0.00    +0.000 A 
ATOM     14  C   UNL     1       2.044   3.836  18.200  0.00  0.00    +0.000 A 
ENDBRANCH   5  12
ENDBRANCH   1   5
BRANCH   2  15
ATOM     15  C   UNL     1       8.119   8.175  18.413  0.00  0.00    +0.000 C 
BRANCH  15  16
ATOM     16  O   UNL     1       8.418   9.401  17.754  0.00  0.00    +0.000 OA
BRANCH  16  17
ATOM     17  C   UNL     1       8.979  10.391  18.518  0.00  0.00    +0.000 A 
ATOM     18  C   UNL     1       9.341  10.284  19.859  0.00  0.00    +0.000 A 
ATOM     19  C   UNL     1       9.949  11.362  20.514  0.00  0.00    +0.000 A 
ATOM     20  C   UNL     1      10.207  12.565  19.841  0.00  0.00    +0.000 A 
ATOM     21  C   UNL     1      10.840  13.645  20.482  0.00  0.00    +0.000 A 
ATOM     22  C   UNL     1      11.095  14.832  19.796  0.00  0.00    +0.000 A 
ATOM     23  C   UNL     1      10.713  14.959  18.464  0.00  0.00    +0.000 A 
ATOM     24  C   UNL     1      10.080  13.897  17.814  0.00  0.00    +0.000 A 
ATOM     25  C   UNL     1       9.824  12.688  18.488  0.00  0.00    +0.000 A 
ATOM     26  C   UNL     1       9.209  11.597  17.846  0.00  0.00    +0.000 A 
ENDBRANCH  16  17
ENDBRANCH  15  16
ENDBRANCH   2  15
TORSDOF 5
ENDMDL
