MODEL 1
REMARK VINA RESULT:      -7.7      0.000      0.000
REMARK  Name = 
REMARK  11 active torsions:
REMARK  status: ('A' for Active; 'I' for Inactive)
REMARK    1  A    between atoms: C_1  and  O_2
REMARK    2  A    between atoms: O_2  and  C_3
REMARK    3  A    between atoms: C_6  and  C_7
REMARK    4  A    between atoms: C_10  and  N_11
REMARK    5  A    between atoms: N_11  and  C_12
REMARK    6  A    between atoms: C_12  and  C_13
REMARK    7  A    between atoms: C_13  and  C_14
REMARK    8  A    between atoms: C_14  and  N_15
REMARK    9  A    between atoms: C_16  and  C_18
REMARK   10  A    between atoms: C_18  and  C_19
REMARK   11  A    between atoms: C_19  and  N_20
REMARK                            x       y       z     vdW  Elec       q    Type
REMARK                         _______ _______ _______ _____ _____    ______ ____
ROOT
ATOM      1  C   UNL     1       8.360   8.932  18.405  0.00  0.00    +0.000 A 
ATOM      2  N   UNL     1       7.395   8.672  17.538  0.00  0.00    +0.000 NA
ATOM      3  C   UNL     1       7.189   7.304  17.588  0.00  0.00    +0.000 A 
ATOM      4  C   UNL     1       6.313   6.455  16.865  0.00  0.00    +0.000 A 
ATOM      5  C   UNL     1       6.390   5.091  17.235  0.00  0.00    +0.000 A 
ATOM      6 BR   UNL     1       5.323   3.773  16.371  0.00  0.00    +0.000 Br
ATOM      7  C   UNL     1       7.291   4.663  18.213  0.00  0.00    +0.000 A 
ATOM      8  N   UNL     1       8.139   5.456  18.909  0.00  0.00    +0.000 NA
ATOM      9  C   UNL     1       8.024   6.742  18.542  0.00  0.00    +0.000 A 
ATOM     10  N   UNL     1       8.739   7.780  19.055  0.00  0.00    +0.000 N 
ATOM     11  H   UNL     1       9.431   7.699  19.784  0.00  0.00    +0.000 HD
ENDROOT
BRANCH   1  15
ATOM     12  C   UNL     1      10.147  12.739  19.185  0.00  0.00    +0.000 A 
ATOM     13  C   UNL     1       9.597  12.461  17.933  0.00  0.00    +0.000 A 
ATOM     14  C   UNL     1       9.009  11.218  17.677  0.00  0.00    +0.000 A 
ATOM     15  C   UNL     1       8.968  10.235  18.671  0.00  0.00    +0.000 A 
ATOM     16  C   UNL     1       9.545  10.514  19.917  0.00  0.00    +0.000 A 
ATOM     17  C   UNL     1      10.132  11.756  20.173  0.00  0.00    +0.000 A 
BRANCH  12  19
ATOM     18  C   UNL     1      10.783  14.486  20.648  0.00  0.00    +0.000 C 
ATOM     19  O   UNL     1      10.710  13.979  19.319  0.00  0.00    +0.000 OA
ENDBRANCH  12  19
ENDBRANCH   1  15
BRANCH   4  20
ATOM     20  N   UNL     1       5.471   6.848  15.810  0.00  0.00    +0.000 N 
ATOM     21  H   UNL     1       5.668   6.364  14.937  0.00  0.00    +0.000 HD
BRANCH  20  22
ATOM     22  C   UNL     1       4.070   7.171  16.051  0.00  0.00    +0.000 C 
BRANCH  22  23
ATOM     23  C   UNL     1       3.822   7.383  17.547  0.00  0.00    +0.000 C 
BRANCH  23  24
ATOM     24  C   UNL     1       2.433   6.887  17.943  0.00  0.00    +0.000 C 
BRANCH  24  25
ATOM     25  N   UNL     1       2.499   5.718  18.784  0.00  0.00    +0.000 N 
ATOM     26  C   UNL     1       1.899   4.532  18.457  0.00  0.00    +0.000 C 
ATOM     27  O   UNL     1       1.300   4.304  17.417  0.00  0.00    +0.000 OA
ATOM     28  H   UNL     1       3.060   5.747  19.629  0.00  0.00    +0.000 HD
BRANCH  26  29
ATOM     29  C   UNL     1       2.057   3.476  19.508  0.00  0.00    +0.000 C 
ATOM     30  C   UNL     1       1.692   3.837  20.947  0.00  0.00    +0.000 C 
ATOM     31  C   UNL     1       0.769   2.969  20.148  0.00  0.00    +0.000 C 
BRANCH  29  32
ATOM     32  C   UNL     1       3.141   2.448  19.276  0.00  0.00    +0.000 C 
BRANCH  32  33
ATOM     33  N   UNL     1       2.794   1.575  18.157  0.00  0.00    +0.000 NA
ATOM     34  H   UNL     1       3.210   1.959  17.306  0.00  0.00    +0.000 HD
ATOM     35  H   UNL     1       1.787   1.633  18.003  0.00  0.00    +0.000 HD
ENDBRANCH  32  33
ENDBRANCH  29  32
ENDBRANCH  26  29
ENDBRANCH  24  25
ENDBRANCH  23  24
ENDBRANCH  22  23
ENDBRANCH  20  22
ENDBRANCH   4  20
TORSDOF 10
ENDMDL
MODEL 2
REMARK VINA RESULT:      -7.6      0.996      1.426
REMARK  Name = 
REMARK  11 active torsions:
REMARK  status: ('A' for Active; 'I' for Inactive)
REMARK    1  A    between atoms: C_1  and  O_2
REMARK    2  A    between atoms: O_2  and  C_3
REMARK    3  A    between atoms: C_6  and  C_7
REMARK    4  A    between atoms: C_10  and  N_11
REMARK    5  A    between atoms: N_11  and  C_12
REMARK    6  A    between atoms: C_12  and  C_13
REMARK    7  A    between atoms: C_13  and  C_14
REMARK    8  A    between atoms: C_14  and  N_15
REMARK    9  A    between atoms: C_16  and  C_18
REMARK   10  A    between atoms: C_18  and  C_19
REMARK   11  A    between atoms: C_19  and  N_20
REMARK                            x       y       z     vdW  Elec       q    Type
REMARK                         _______ _______ _______ _____ _____    ______ ____
ROOT
ATOM      1  C   UNL     1       8.348   8.858  18.424  0.00  0.00    +0.000 A 
ATOM      2  N   UNL     1       7.380   8.615  17.555  0.00  0.00    +0.000 NA
ATOM      3  C   UNL     1       7.185   7.245  17.566  0.00  0.00    +0.000 A 
ATOM      4  C   UNL     1       6.311   6.410  16.824  0.00  0.00    +0.000 A 
ATOM      5  C   UNL     1       6.402   5.037  17.153  0.00  0.00    +0.000 A 
ATOM      6 BR   UNL     1       5.341   3.735  16.258  0.00  0.00    +0.000 Br
ATOM      7  C   UNL     1       7.314   4.588  18.112  0.00  0.00    +0.000 A 
ATOM      8  N   UNL     1       8.160   5.367  18.826  0.00  0.00    +0.000 NA
ATOM      9  C   UNL     1       8.032   6.662  18.498  0.00  0.00    +0.000 A 
ATOM     10  N   UNL     1       8.741   7.690  19.037  0.00  0.00    +0.000 N 
ATOM     11  H   UNL     1       9.439   7.594  19.758  0.00  0.00    +0.000 HD
ENDROOT
BRANCH   1  15
ATOM     12  C   UNL     1      10.091  12.666  19.299  0.00  0.00    +0.000 A 
ATOM     13  C   UNL     1      10.026  11.676  20.282  0.00  0.00    +0.000 A 
ATOM     14  C   UNL     1       9.459  10.429  19.996  0.00  0.00    +0.000 A 
ATOM     15  C   UNL     1       8.947  10.158  18.724  0.00  0.00    +0.000 A 
ATOM     16  C   UNL     1       8.993  11.165  17.751  0.00  0.00    +0.000 A 
ATOM     17  C   UNL     1       9.560  12.411  18.036  0.00  0.00    +0.000 A 
BRANCH  12  19
ATOM     18  C   UNL     1      11.196  14.654  18.651  0.00  0.00    +0.000 C 
ATOM     19  O   UNL     1      10.649  13.850  19.693  0.00  0.00    +0.000 OA
ENDBRANCH  12  19
ENDBRANCH   1  15
BRANCH   4  20
ATOM     20  N   UNL     1       5.459   6.826  15.787  0.00  0.00    +0.000 N 
ATOM     21  H   UNL     1       5.575   6.289  14.931  0.00  0.00    +0.000 HD
BRANCH  20  22
ATOM     22  C   UNL     1       4.102   7.280  16.070  0.00  0.00    +0.000 C 
BRANCH  22  23
ATOM     23  C   UNL     1       3.840   7.268  17.578  0.00  0.00    +0.000 C 
BRANCH  23  24
ATOM     24  C   UNL     1       2.460   6.691  17.885  0.00  0.00    +0.000 C 
BRANCH  24  25
ATOM     25  N   UNL     1       2.511   5.268  18.113  0.00  0.00    +0.000 N 
ATOM     26  C   UNL     1       2.284   4.704  19.339  0.00  0.00    +0.000 C 
ATOM     27  O   UNL     1       1.964   5.310  20.351  0.00  0.00    +0.000 OA
ATOM     28  H   UNL     1       2.662   4.646  17.327  0.00  0.00    +0.000 HD
BRANCH  26  29
ATOM     29  C   UNL     1       2.444   3.214  19.347  0.00  0.00    +0.000 C 
ATOM     30  C   UNL     1       1.219   2.360  19.020  0.00  0.00    +0.000 C 
ATOM     31  C   UNL     1       2.303   2.517  17.997  0.00  0.00    +0.000 C 
BRANCH  29  32
ATOM     32  C   UNL     1       3.483   2.650  20.288  0.00  0.00    +0.000 C 
BRANCH  32  33
ATOM     33  N   UNL     1       4.762   2.477  19.602  0.00  0.00    +0.000 NA
ATOM     34  H   UNL     1       5.009   3.361  19.151  0.00  0.00    +0.000 HD
ATOM     35  H   UNL     1       4.629   1.821  18.833  0.00  0.00    +0.000 HD
ENDBRANCH  32  33
ENDBRANCH  29  32
ENDBRANCH  26  29
ENDBRANCH  24  25
ENDBRANCH  23  24
ENDBRANCH  22  23
ENDBRANCH  20  22
ENDBRANCH   4  20
TORSDOF 10
ENDMDL
MODEL 3
REMARK VINA RESULT:      -7.5      0.659      1.084
REMARK  Name = 
REMARK  11 active torsions:
REMARK  status: ('A' for Active; 'I' for Inactive)
REMARK    1  A    between atoms: C_1  and  O_2
REMARK    2  A    between atoms: O_2  and  C_3
REMARK    3  A    between atoms: C_6  and  C_7
REMARK    4  A    between atoms: C_10  and  N_11
REMARK    5  A    between atoms: N_11  and  C_12
REMARK    6  A    between atoms: C_12  and  C_13
REMARK    7  A    between atoms: C_13  and  C_14
REMARK    8  A    between atoms: C_14  and  N_15
REMARK    9  A    between atoms: C_16  and  C_18
REMARK   10  A    between atoms: C_18  and  C_19
REMARK   11  A    between atoms: C_19  and  N_20
REMARK                            x       y       z     vdW  Elec       q    Type
REMARK                         _______ _______ _______ _____ _____    ______ ____
ROOT
ATOM      1  C   UNL     1       8.286   8.927  18.285  0.00  0.00    +0.000 A 
ATOM      2  N   UNL     1       7.291   8.632  17.464  0.00  0.00    +0.000 NA
ATOM      3  C   UNL     1       7.106   7.263  17.556  0.00  0.00    +0.000 A 
ATOM      4  C   UNL     1       6.214   6.384  16.890  0.00  0.00    +0.000 A 
ATOM      5  C   UNL     1       6.326   5.031  17.289  0.00  0.00    +0.000 A 
ATOM      6 BR   UNL     1       5.245   3.678  16.503  0.00  0.00    +0.000 Br
ATOM      7  C   UNL     1       7.273   4.640  18.239  0.00  0.00    +0.000 A 
ATOM      8  N   UNL     1       8.137   5.462  18.881  0.00  0.00    +0.000 NA
ATOM      9  C   UNL     1       7.989   6.736  18.488  0.00  0.00    +0.000 A 
ATOM     10  N   UNL     1       8.708   7.796  18.946  0.00  0.00    +0.000 N 
ATOM     11  H   UNL     1       9.431   7.742  19.648  0.00  0.00    +0.000 HD
ENDROOT
BRANCH   1  15
ATOM     12  C   UNL     1      10.030  12.785  18.896  0.00  0.00    +0.000 A 
ATOM     13  C   UNL     1      10.315  11.734  19.770  0.00  0.00    +0.000 A 
ATOM     14  C   UNL     1       9.748  10.471  19.570  0.00  0.00    +0.000 A 
ATOM     15  C   UNL     1       8.886  10.244  18.493  0.00  0.00    +0.000 A 
ATOM     16  C   UNL     1       8.585  11.310  17.635  0.00  0.00    +0.000 A 
ATOM     17  C   UNL     1       9.151  12.572  17.835  0.00  0.00    +0.000 A 
BRANCH  12  19
ATOM     18  C   UNL     1      12.007  13.914  19.536  0.00  0.00    +0.000 C 
ATOM     19  O   UNL     1      10.625  13.979  19.197  0.00  0.00    +0.000 OA
ENDBRANCH  12  19
ENDBRANCH   1  15
BRANCH   4  20
ATOM     20  N   UNL     1       5.324   6.740  15.862  0.00  0.00    +0.000 N 
ATOM     21  H   UNL     1       5.272   6.047  15.119  0.00  0.00    +0.000 HD
BRANCH  20  22
ATOM     22  C   UNL     1       4.083   7.446  16.156  0.00  0.00    +0.000 C 
BRANCH  22  23
ATOM     23  C   UNL     1       3.700   7.258  17.627  0.00  0.00    +0.000 C 
BRANCH  23  24
ATOM     24  C   UNL     1       2.598   6.211  17.772  0.00  0.00    +0.000 C 
BRANCH  24  25
ATOM     25  N   UNL     1       2.896   5.256  18.809  0.00  0.00    +0.000 N 
ATOM     26  C   UNL     1       2.189   4.097  18.977  0.00  0.00    +0.000 C 
ATOM     27  O   UNL     1       1.281   3.708  18.257  0.00  0.00    +0.000 OA
ATOM     28  H   UNL     1       3.698   5.412  19.409  0.00  0.00    +0.000 HD
BRANCH  26  29
ATOM     29  C   UNL     1       2.644   3.287  20.153  0.00  0.00    +0.000 C 
ATOM     30  C   UNL     1       2.157   3.702  21.541  0.00  0.00    +0.000 C 
ATOM     31  C   UNL     1       1.564   2.494  20.881  0.00  0.00    +0.000 C 
BRANCH  29  32
ATOM     32  C   UNL     1       3.998   2.625  20.035  0.00  0.00    +0.000 C 
BRANCH  32  33
ATOM     33  N   UNL     1       3.962   1.548  19.047  0.00  0.00    +0.000 NA
ATOM     34  H   UNL     1       4.652   0.843  19.313  0.00  0.00    +0.000 HD
ATOM     35  H   UNL     1       4.296   1.917  18.156  0.00  0.00    +0.000 HD
ENDBRANCH  32  33
ENDBRANCH  29  32
ENDBRANCH  26  29
ENDBRANCH  24  25
ENDBRANCH  23  24
ENDBRANCH  22  23
ENDBRANCH  20  22
ENDBRANCH   4  20
TORSDOF 10
ENDMDL
MODEL 4
REMARK VINA RESULT:      -7.5      3.845      6.969
REMARK  Name = 
REMARK  11 active torsions:
REMARK  status: ('A' for Active; 'I' for Inactive)
REMARK    1  A    between atoms: C_1  and  O_2
REMARK    2  A    between atoms: O_2  and  C_3
REMARK    3  A    between atoms: C_6  and  C_7
REMARK    4  A    between atoms: C_10  and  N_11
REMARK    5  A    between atoms: N_11  and  C_12
REMARK    6  A    between atoms: C_12  and  C_13
REMARK    7  A    between atoms: C_13  and  C_14
REMARK    8  A    between atoms: C_14  and  N_15
REMARK    9  A    between atoms: C_16  and  C_18
REMARK   10  A    between atoms: C_18  and  C_19
REMARK   11  A    between atoms: C_19  and  N_20
REMARK                            x       y       z     vdW  Elec       q    Type
REMARK                         _______ _______ _______ _____ _____    ______ ____
ROOT
ATOM      1  C   UNL     1       2.147   6.778  19.817  0.00  0.00    +0.000 A 
ATOM      2  N   UNL     1       2.923   6.076  19.007  0.00  0.00    +0.000 NA
ATOM      3  C   UNL     1       3.084   4.837  19.601  0.00  0.00    +0.000 A 
ATOM      4  C   UNL     1       3.830   3.694  19.215  0.00  0.00    +0.000 A 
ATOM      5  C   UNL     1       3.712   2.597  20.100  0.00  0.00    +0.000 A 
ATOM      6 BR   UNL     1       4.653   0.972  19.790  0.00  0.00    +0.000 Br
ATOM      7  C   UNL     1       2.938   2.691  21.260  0.00  0.00    +0.000 A 
ATOM      8  N   UNL     1       2.224   3.773  21.649  0.00  0.00    +0.000 NA
ATOM      9  C   UNL     1       2.348   4.786  20.777  0.00  0.00    +0.000 A 
ATOM     10  N   UNL     1       1.755   6.005  20.887  0.00  0.00    +0.000 N 
ATOM     11  H   UNL     1       1.140   6.282  21.637  0.00  0.00    +0.000 HD
ENDROOT
BRANCH   1  15
ATOM     12  C   UNL     1       0.943  10.851  19.310  0.00  0.00    +0.000 A 
ATOM     13  C   UNL     1       0.758  10.207  20.535  0.00  0.00    +0.000 A 
ATOM     14  C   UNL     1       1.154   8.876  20.703  0.00  0.00    +0.000 A 
ATOM     15  C   UNL     1       1.738   8.171  19.647  0.00  0.00    +0.000 A 
ATOM     16  C   UNL     1       1.897   8.817  18.413  0.00  0.00    +0.000 A 
ATOM     17  C   UNL     1       1.502  10.147  18.245  0.00  0.00    +0.000 A 
BRANCH  12  19
ATOM     18  C   UNL     1      -0.674  12.365  18.484  0.00  0.00    +0.000 C 
ATOM     19  O   UNL     1       0.504  12.145  19.253  0.00  0.00    +0.000 OA
ENDBRANCH  12  19
ENDBRANCH   1  15
BRANCH   4  20
ATOM     20  N   UNL     1       4.692   3.611  18.108  0.00  0.00    +0.000 N 
ATOM     21  H   UNL     1       5.394   2.881  18.199  0.00  0.00    +0.000 HD
BRANCH  20  22
ATOM     22  C   UNL     1       4.199   3.847  16.756  0.00  0.00    +0.000 C 
BRANCH  22  23
ATOM     23  C   UNL     1       5.175   3.272  15.726  0.00  0.00    +0.000 C 
BRANCH  23  24
ATOM     24  C   UNL     1       6.016   4.379  15.096  0.00  0.00    +0.000 C 
BRANCH  24  25
ATOM     25  N   UNL     1       6.355   5.406  16.050  0.00  0.00    +0.000 N 
ATOM     26  C   UNL     1       7.361   5.265  16.967  0.00  0.00    +0.000 C 
ATOM     27  O   UNL     1       8.115   4.306  17.053  0.00  0.00    +0.000 OA
ATOM     28  H   UNL     1       5.872   6.296  16.011  0.00  0.00    +0.000 HD
BRANCH  26  29
ATOM     29  C   UNL     1       7.494   6.439  17.889  0.00  0.00    +0.000 C 
ATOM     30  C   UNL     1       7.897   7.783  17.284  0.00  0.00    +0.000 C 
ATOM     31  C   UNL     1       6.476   7.558  17.701  0.00  0.00    +0.000 C 
BRANCH  29  32
ATOM     32  C   UNL     1       7.907   6.137  19.312  0.00  0.00    +0.000 C 
BRANCH  32  33
ATOM     33  N   UNL     1       7.017   5.142  19.908  0.00  0.00    +0.000 NA
ATOM     34  H   UNL     1       6.114   5.586  20.091  0.00  0.00    +0.000 HD
ATOM     35  H   UNL     1       7.379   4.897  20.829  0.00  0.00    +0.000 HD
ENDBRANCH  32  33
ENDBRANCH  29  32
ENDBRANCH  26  29
ENDBRANCH  24  25
ENDBRANCH  23  24
ENDBRANCH  22  23
ENDBRANCH  20  22
ENDBRANCH   4  20
TORSDOF 10
ENDMDL
MODEL 5
REMARK VINA RESULT:      -7.5      3.144      8.625
REMARK  Name = 
REMARK  11 active torsions:
REMARK  status: ('A' for Active; 'I' for Inactive)
REMARK    1  A    between atoms: C_1  and  O_2
REMARK    2  A    between atoms: O_2  and  C_3
REMARK    3  A    between atoms: C_6  and  C_7
REMARK    4  A    between atoms: C_10  and  N_11
REMARK    5  A    between atoms: N_11  and  C_12
REMARK    6  A    between atoms: C_12  and  C_13
REMARK    7  A    between atoms: C_13  and  C_14
REMARK    8  A    between atoms: C_14  and  N_15
REMARK    9  A    between atoms: C_16  and  C_18
REMARK   10  A    between atoms: C_18  and  C_19
REMARK   11  A    between atoms: C_19  and  N_20
REMARK                            x       y       z     vdW  Elec       q    Type
REMARK                         _______ _______ _______ _____ _____    ______ ____
ROOT
ATOM      1  C   UNL     1       2.492   7.300  18.793  0.00  0.00    +0.000 A 
ATOM      2  N   UNL     1       3.609   7.577  18.141  0.00  0.00    +0.000 NA
ATOM      3  C   UNL     1       4.023   6.391  17.561  0.00  0.00    +0.000 A 
ATOM      4  C   UNL     1       5.161   6.069  16.779  0.00  0.00    +0.000 A 
ATOM      5  C   UNL     1       5.208   4.722  16.349  0.00  0.00    +0.000 A 
ATOM      6 BR   UNL     1       6.664   4.067  15.312  0.00  0.00    +0.000 Br
ATOM      7  C   UNL     1       4.210   3.816  16.717  0.00  0.00    +0.000 A 
ATOM      8  N   UNL     1       3.120   4.102  17.467  0.00  0.00    +0.000 NA
ATOM      9  C   UNL     1       3.103   5.390  17.841  0.00  0.00    +0.000 A 
ATOM     10  N   UNL     1       2.143   5.983  18.600  0.00  0.00    +0.000 N 
ATOM     11  H   UNL     1       1.322   5.519  18.959  0.00  0.00    +0.000 HD
ENDROOT
BRANCH   1  15
ATOM     12  C   UNL     1       0.186   9.998  21.181  0.00  0.00    +0.000 A 
ATOM     13  C   UNL     1       0.657   8.802  21.724  0.00  0.00    +0.000 A 
ATOM     14  C   UNL     1       1.414   7.919  20.945  0.00  0.00    +0.000 A 
ATOM     15  C   UNL     1       1.706   8.223  19.612  0.00  0.00    +0.000 A 
ATOM     16  C   UNL     1       1.209   9.415  19.068  0.00  0.00    +0.000 A 
ATOM     17  C   UNL     1       0.452  10.296  19.846  0.00  0.00    +0.000 A 
BRANCH  12  19
ATOM     18  C   UNL     1      -0.906  12.066  21.535  0.00  0.00    +0.000 C 
ATOM     19  O   UNL     1      -0.556  10.776  22.027  0.00  0.00    +0.000 OA
ENDBRANCH  12  19
ENDBRANCH   1  15
BRANCH   4  20
ATOM     20  N   UNL     1       6.226   6.937  16.480  0.00  0.00    +0.000 N 
ATOM     21  H   UNL     1       5.937   7.762  15.960  0.00  0.00    +0.000 HD
BRANCH  20  22
ATOM     22  C   UNL     1       7.319   7.135  17.424  0.00  0.00    +0.000 C 
BRANCH  22  23
ATOM     23  C   UNL     1       7.691   8.618  17.504  0.00  0.00    +0.000 C 
BRANCH  23  24
ATOM     24  C   UNL     1       8.567   8.893  18.724  0.00  0.00    +0.000 C 
BRANCH  24  25
ATOM     25  N   UNL     1       9.396  10.057  18.539  0.00  0.00    +0.000 N 
ATOM     26  C   UNL     1       9.687  10.931  19.552  0.00  0.00    +0.000 C 
ATOM     27  O   UNL     1       9.339  10.808  20.717  0.00  0.00    +0.000 OA
ATOM     28  H   UNL     1       9.836  10.214  17.639  0.00  0.00    +0.000 HD
BRANCH  26  29
ATOM     29  C   UNL     1      10.522  12.095  19.112  0.00  0.00    +0.000 C 
ATOM     30  C   UNL     1      11.973  12.156  19.586  0.00  0.00    +0.000 C 
ATOM     31  C   UNL     1      11.676  11.775  18.168  0.00  0.00    +0.000 C 
BRANCH  29  32
ATOM     32  C   UNL     1       9.791  13.395  18.863  0.00  0.00    +0.000 C 
BRANCH  32  33
ATOM     33  N   UNL     1       9.482  13.550  17.443  0.00  0.00    +0.000 NA
ATOM     34  H   UNL     1      10.133  14.229  17.043  0.00  0.00    +0.000 HD
ATOM     35  H   UNL     1       8.565  13.988  17.358  0.00  0.00    +0.000 HD
ENDBRANCH  32  33
ENDBRANCH  29  32
ENDBRANCH  26  29
ENDBRANCH  24  25
ENDBRANCH  23  24
ENDBRANCH  22  23
ENDBRANCH  20  22
ENDBRANCH   4  20
TORSDOF 10
ENDMDL
MODEL 6
REMARK VINA RESULT:      -7.4      1.019      1.118
REMARK  Name = 
REMARK  11 active torsions:
REMARK  status: ('A' for Active; 'I' for Inactive)
REMARK    1  A    between atoms: C_1  and  O_2
REMARK    2  A    between atoms: O_2  and  C_3
REMARK    3  A    between atoms: C_6  and  C_7
REMARK    4  A    between atoms: C_10  and  N_11
REMARK    5  A    between atoms: N_11  and  C_12
REMARK    6  A    between atoms: C_12  and  C_13
REMARK    7  A    between atoms: C_13  and  C_14
REMARK    8  A    between atoms: C_14  and  N_15
REMARK    9  A    between atoms: C_16  and  C_18
REMARK   10  A    between atoms: C_18  and  C_19
REMARK   11  A    between atoms: C_19  and  N_20
REMARK                            x       y       z     vdW  Elec       q    Type
REMARK                         _______ _______ _______ _____ _____    ______ ____
ROOT
ATOM      1  C   UNL     1       8.336   8.882  18.386  0.00  0.00    +0.000 A 
ATOM      2  N   UNL     1       7.369   8.607  17.526  0.00  0.00    +0.000 NA
ATOM      3  C   UNL     1       7.160   7.241  17.601  0.00  0.00    +0.000 A 
ATOM      4  C   UNL     1       6.281   6.380  16.896  0.00  0.00    +0.000 A 
ATOM      5  C   UNL     1       6.356   5.024  17.290  0.00  0.00    +0.000 A 
ATOM      6 BR   UNL     1       5.285   3.692  16.453  0.00  0.00    +0.000 Br
ATOM      7  C   UNL     1       7.259   4.612  18.273  0.00  0.00    +0.000 A 
ATOM      8  N   UNL     1       8.111   5.416  18.953  0.00  0.00    +0.000 NA
ATOM      9  C   UNL     1       7.997   6.695  18.563  0.00  0.00    +0.000 A 
ATOM     10  N   UNL     1       8.715   7.740  19.056  0.00  0.00    +0.000 N 
ATOM     11  H   UNL     1       9.409   7.671  19.784  0.00  0.00    +0.000 HD
ENDROOT
BRANCH   1  15
ATOM     12  C   UNL     1      10.133  12.699  19.091  0.00  0.00    +0.000 A 
ATOM     13  C   UNL     1       9.343  12.488  17.959  0.00  0.00    +0.000 A 
ATOM     14  C   UNL     1       8.752  11.241  17.728  0.00  0.00    +0.000 A 
ATOM     15  C   UNL     1       8.947  10.188  18.627  0.00  0.00    +0.000 A 
ATOM     16  C   UNL     1       9.762  10.401  19.747  0.00  0.00    +0.000 A 
ATOM     17  C   UNL     1      10.352  11.647  19.978  0.00  0.00    +0.000 A 
BRANCH  12  19
ATOM     18  C   UNL     1      12.078  13.999  19.439  0.00  0.00    +0.000 C 
ATOM     19  O   UNL     1      10.673  13.950  19.207  0.00  0.00    +0.000 OA
ENDBRANCH  12  19
ENDBRANCH   1  15
BRANCH   4  20
ATOM     20  N   UNL     1       5.437   6.756  15.836  0.00  0.00    +0.000 N 
ATOM     21  H   UNL     1       5.562   6.188  15.002  0.00  0.00    +0.000 HD
BRANCH  20  22
ATOM     22  C   UNL     1       4.077   7.216  16.089  0.00  0.00    +0.000 C 
BRANCH  22  23
ATOM     23  C   UNL     1       3.827   7.338  17.595  0.00  0.00    +0.000 C 
BRANCH  23  24
ATOM     24  C   UNL     1       2.476   6.736  17.973  0.00  0.00    +0.000 C 
BRANCH  24  25
ATOM     25  N   UNL     1       2.566   5.316  18.206  0.00  0.00    +0.000 N 
ATOM     26  C   UNL     1       2.417   4.756  19.446  0.00  0.00    +0.000 C 
ATOM     27  O   UNL     1       2.140   5.363  20.471  0.00  0.00    +0.000 OA
ATOM     28  H   UNL     1       2.687   4.691  17.417  0.00  0.00    +0.000 HD
BRANCH  26  29
ATOM     29  C   UNL     1       2.605   3.270  19.455  0.00  0.00    +0.000 C 
ATOM     30  C   UNL     1       3.922   2.718  19.998  0.00  0.00    +0.000 C 
ATOM     31  C   UNL     1       2.680   2.611  20.828  0.00  0.00    +0.000 C 
BRANCH  29  32
ATOM     32  C   UNL     1       1.889   2.492  18.374  0.00  0.00    +0.000 C 
BRANCH  32  33
ATOM     33  N   UNL     1       0.444   2.519  18.590  0.00  0.00    +0.000 NA
ATOM     34  H   UNL     1       0.114   1.557  18.690  0.00  0.00    +0.000 HD
ATOM     35  H   UNL     1      -0.003   2.860  17.737  0.00  0.00    +0.000 HD
ENDBRANCH  32  33
ENDBRANCH  29  32
ENDBRANCH  26  29
ENDBRANCH  24  25
ENDBRANCH  23  24
ENDBRANCH  22  23
ENDBRANCH  20  22
ENDBRANCH   4  20
TORSDOF 10
ENDMDL
MODEL 7
REMARK VINA RESULT:      -7.3      6.649      9.539
REMARK  Name = 
REMARK  11 active torsions:
REMARK  status: ('A' for Active; 'I' for Inactive)
REMARK    1  A    between atoms: C_1  and  O_2
REMARK    2  A    between atoms: O_2  and  C_3
REMARK    3  A    between atoms: C_6  and  C_7
REMARK    4  A    between atoms: C_10  and  N_11
REMARK    5  A    between atoms: N_11  and  C_12
REMARK    6  A    between atoms: C_12  and  C_13
REMARK    7  A    between atoms: C_13  and  C_14
REMARK    8  A    between atoms: C_14  and  N_15
REMARK    9  A    between atoms: C_16  and  C_18
REMARK   10  A    between atoms: C_18  and  C_19
REMARK   11  A    between atoms: C_19  and  N_20
REMARK                            x       y       z     vdW  Elec       q    Type
REMARK                         _______ _______ _______ _____ _____    ______ ____
ROOT
ATOM      1  C   UNL     1       2.577   7.340  18.691  0.00  0.00    +0.000 A 
ATOM      2  N   UNL     1       1.859   8.353  18.234  0.00  0.00    +0.000 NA
ATOM      3  C   UNL     1       1.243   8.919  19.335  0.00  0.00    +0.000 A 
ATOM      4  C   UNL     1       0.336  10.003  19.456  0.00  0.00    +0.000 A 
ATOM      5  C   UNL     1      -0.052  10.290  20.787  0.00  0.00    +0.000 A 
ATOM      6 BR   UNL     1      -1.285  11.686  21.176  0.00  0.00    +0.000 Br
ATOM      7  C   UNL     1       0.421   9.522  21.853  0.00  0.00    +0.000 A 
ATOM      8  N   UNL     1       1.281   8.480  21.758  0.00  0.00    +0.000 NA
ATOM      9  C   UNL     1       1.638   8.250  20.485  0.00  0.00    +0.000 A 
ATOM     10  N   UNL     1       2.486   7.275  20.063  0.00  0.00    +0.000 N 
ATOM     11  H   UNL     1       2.957   6.618  20.667  0.00  0.00    +0.000 HD
ENDROOT
BRANCH   1  15
ATOM     12  C   UNL     1       4.896   4.591  16.375  0.00  0.00    +0.000 A 
ATOM     13  C   UNL     1       3.831   4.135  17.154  0.00  0.00    +0.000 A 
ATOM     14  C   UNL     1       3.070   5.033  17.910  0.00  0.00    +0.000 A 
ATOM     15  C   UNL     1       3.367   6.399  17.898  0.00  0.00    +0.000 A 
ATOM     16  C   UNL     1       4.452   6.846  17.132  0.00  0.00    +0.000 A 
ATOM     17  C   UNL     1       5.213   5.948  16.377  0.00  0.00    +0.000 A 
BRANCH  12  19
ATOM     18  C   UNL     1       6.335   4.077  14.570  0.00  0.00    +0.000 C 
ATOM     19  O   UNL     1       5.581   3.625  15.691  0.00  0.00    +0.000 OA
ENDBRANCH  12  19
ENDBRANCH   1  15
BRANCH   4  20
ATOM     20  N   UNL     1      -0.229  10.725  18.391  0.00  0.00    +0.000 N 
ATOM     21  H   UNL     1       0.377  11.463  18.040  0.00  0.00    +0.000 HD
BRANCH  20  22
ATOM     22  C   UNL     1      -1.061  10.062  17.394  0.00  0.00    +0.000 C 
BRANCH  22  23
ATOM     23  C   UNL     1      -2.533  10.115  17.809  0.00  0.00    +0.000 C 
BRANCH  23  24
ATOM     24  C   UNL     1      -2.995  11.558  17.993  0.00  0.00    +0.000 C 
BRANCH  24  25
ATOM     25  N   UNL     1      -4.430  11.655  18.098  0.00  0.00    +0.000 N 
ATOM     26  C   UNL     1      -5.058  12.249  19.159  0.00  0.00    +0.000 C 
ATOM     27  O   UNL     1      -4.501  12.806  20.093  0.00  0.00    +0.000 OA
ATOM     28  H   UNL     1      -5.005  11.325  17.332  0.00  0.00    +0.000 HD
BRANCH  26  29
ATOM     29  C   UNL     1      -6.553  12.183  19.077  0.00  0.00    +0.000 C 
ATOM     30  C   UNL     1      -7.308  13.463  18.721  0.00  0.00    +0.000 C 
ATOM     31  C   UNL     1      -7.159  12.385  17.692  0.00  0.00    +0.000 C 
BRANCH  29  32
ATOM     32  C   UNL     1      -7.235  11.170  19.968  0.00  0.00    +0.000 C 
BRANCH  32  33
ATOM     33  N   UNL     1      -6.819  11.344  21.359  0.00  0.00    +0.000 NA
ATOM     34  H   UNL     1      -6.679  12.341  21.532  0.00  0.00    +0.000 HD
ATOM     35  H   UNL     1      -5.895  10.926  21.474  0.00  0.00    +0.000 HD
ENDBRANCH  32  33
ENDBRANCH  29  32
ENDBRANCH  26  29
ENDBRANCH  24  25
ENDBRANCH  23  24
ENDBRANCH  22  23
ENDBRANCH  20  22
ENDBRANCH   4  20
TORSDOF 10
ENDMDL
MODEL 8
REMARK VINA RESULT:      -7.3      0.983      1.411
REMARK  Name = 
REMARK  11 active torsions:
REMARK  status: ('A' for Active; 'I' for Inactive)
REMARK    1  A    between atoms: C_1  and  O_2
REMARK    2  A    between atoms: O_2  and  C_3
REMARK    3  A    between atoms: C_6  and  C_7
REMARK    4  A    between atoms: C_10  and  N_11
REMARK    5  A    between atoms: N_11  and  C_12
REMARK    6  A    between atoms: C_12  and  C_13
REMARK    7  A    between atoms: C_13  and  C_14
REMARK    8  A    between atoms: C_14  and  N_15
REMARK    9  A    between atoms: C_16  and  C_18
REMARK   10  A    between atoms: C_18  and  C_19
REMARK   11  A    between atoms: C_19  and  N_20
REMARK                            x       y       z     vdW  Elec       q    Type
REMARK                         _______ _______ _______ _____ _____    ______ ____
ROOT
ATOM      1  C   UNL     1       8.365   8.843  18.431  0.00  0.00    +0.000 A 
ATOM      2  N   UNL     1       7.386   8.613  17.572  0.00  0.00    +0.000 NA
ATOM      3  C   UNL     1       7.161   7.248  17.598  0.00  0.00    +0.000 A 
ATOM      4  C   UNL     1       6.264   6.425  16.870  0.00  0.00    +0.000 A 
ATOM      5  C   UNL     1       6.327   5.053  17.211  0.00  0.00    +0.000 A 
ATOM      6 BR   UNL     1       5.231   3.767  16.336  0.00  0.00    +0.000 Br
ATOM      7  C   UNL     1       7.235   4.594  18.168  0.00  0.00    +0.000 A 
ATOM      8  N   UNL     1       8.103   5.361  18.869  0.00  0.00    +0.000 NA
ATOM      9  C   UNL     1       8.002   6.655  18.529  0.00  0.00    +0.000 A 
ATOM     10  N   UNL     1       8.737   7.672  19.053  0.00  0.00    +0.000 N 
ATOM     11  H   UNL     1       9.438   7.568  19.771  0.00  0.00    +0.000 HD
ENDROOT
BRANCH   1  15
ATOM     12  C   UNL     1      10.198  12.619  19.257  0.00  0.00    +0.000 A 
ATOM     13  C   UNL     1      10.051  11.669  20.269  0.00  0.00    +0.000 A 
ATOM     14  C   UNL     1       9.455  10.432  20.000  0.00  0.00    +0.000 A 
ATOM     15  C   UNL     1       8.995  10.132  18.715  0.00  0.00    +0.000 A 
ATOM     16  C   UNL     1       9.122  11.101  17.711  0.00  0.00    +0.000 A 
ATOM     17  C   UNL     1       9.718  12.337  17.979  0.00  0.00    +0.000 A 
BRANCH  12  19
ATOM     18  C   UNL     1       9.889  14.797  20.127  0.00  0.00    +0.000 C 
ATOM     19  O   UNL     1      10.778  13.798  19.636  0.00  0.00    +0.000 OA
ENDBRANCH  12  19
ENDBRANCH   1  15
BRANCH   4  20
ATOM     20  N   UNL     1       5.414   6.850  15.835  0.00  0.00    +0.000 N 
ATOM     21  H   UNL     1       5.593   6.383  14.949  0.00  0.00    +0.000 HD
BRANCH  20  22
ATOM     22  C   UNL     1       4.020   7.186  16.101  0.00  0.00    +0.000 C 
BRANCH  22  23
ATOM     23  C   UNL     1       3.802   7.406  17.600  0.00  0.00    +0.000 C 
BRANCH  23  24
ATOM     24  C   UNL     1       2.516   6.729  18.067  0.00  0.00    +0.000 C 
BRANCH  24  25
ATOM     25  N   UNL     1       2.708   5.322  18.316  0.00  0.00    +0.000 N 
ATOM     26  C   UNL     1       2.392   4.728  19.508  0.00  0.00    +0.000 C 
ATOM     27  O   UNL     1       1.870   5.285  20.463  0.00  0.00    +0.000 OA
ATOM     28  H   UNL     1       3.036   4.727  17.564  0.00  0.00    +0.000 HD
BRANCH  26  29
ATOM     29  C   UNL     1       2.729   3.269  19.554  0.00  0.00    +0.000 C 
ATOM     30  C   UNL     1       4.158   2.875  19.924  0.00  0.00    +0.000 C 
ATOM     31  C   UNL     1       3.061   2.699  20.929  0.00  0.00    +0.000 C 
BRANCH  29  32
ATOM     32  C   UNL     1       1.952   2.366  18.622  0.00  0.00    +0.000 C 
BRANCH  32  33
ATOM     33  N   UNL     1       0.751   3.040  18.134  0.00  0.00    +0.000 NA
ATOM     34  H   UNL     1       0.696   3.962  18.573  0.00  0.00    +0.000 HD
ATOM     35  H   UNL     1      -0.065   2.537  18.482  0.00  0.00    +0.000 HD
ENDBRANCH  32  33
ENDBRANCH  29  32
ENDBRANCH  26  29
ENDBRANCH  24  25
ENDBRANCH  23  24
ENDBRANCH  22  23
ENDBRANCH  20  22
ENDBRANCH   4  20
TORSDOF 10
ENDMDL
MODEL 9
REMARK VINA RESULT:      -7.3      1.178      1.223
REMARK  Name = 
REMARK  11 active torsions:
REMARK  status: ('A' for Active; 'I' for Inactive)
REMARK    1  A    between atoms: C_1  and  O_2
REMARK    2  A    between atoms: O_2  and  C_3
REMARK    3  A    between atoms: C_6  and  C_7
REMARK    4  A    between atoms: C_10  and  N_11
REMARK    5  A    between atoms: N_11  and  C_12
REMARK    6  A    between atoms: C_12  and  C_13
REMARK    7  A    between atoms: C_13  and  C_14
REMARK    8  A    between atoms: C_14  and  N_15
REMARK    9  A    between atoms: C_16  and  C_18
REMARK   10  A    between atoms: C_18  and  C_19
REMARK   11  A    between atoms: C_19  and  N_20
REMARK                            x       y       z     vdW  Elec       q    Type
REMARK                         _______ _______ _______ _____ _____    ______ ____
ROOT
ATOM      1  C   UNL     1       8.113   8.793  18.310  0.00  0.00    +0.000 A 
ATOM      2  N   UNL     1       6.936   8.625  17.729  0.00  0.00    +0.000 NA
ATOM      3  C   UNL     1       6.719   7.259  17.683  0.00  0.00    +0.000 A 
ATOM      4  C   UNL     1       5.654   6.490  17.149  0.00  0.00    +0.000 A 
ATOM      5  C   UNL     1       5.800   5.094  17.327  0.00  0.00    +0.000 A 
ATOM      6 BR   UNL     1       4.501   3.873  16.661  0.00  0.00    +0.000 Br
ATOM      7  C   UNL     1       6.930   4.565  17.954  0.00  0.00    +0.000 A 
ATOM      8  N   UNL     1       7.960   5.281  18.465  0.00  0.00    +0.000 NA
ATOM      9  C   UNL     1       7.777   6.599  18.291  0.00  0.00    +0.000 A 
ATOM     10  N   UNL     1       8.633   7.577  18.693  0.00  0.00    +0.000 N 
ATOM     11  H   UNL     1       9.501   7.420  19.181  0.00  0.00    +0.000 HD
ENDROOT
BRANCH   1  15
ATOM     12  C   UNL     1      10.140  12.502  18.969  0.00  0.00    +0.000 A 
ATOM     13  C   UNL     1       9.249  12.364  17.903  0.00  0.00    +0.000 A 
ATOM     14  C   UNL     1       8.583  11.153  17.688  0.00  0.00    +0.000 A 
ATOM     15  C   UNL     1       8.803  10.063  18.536  0.00  0.00    +0.000 A 
ATOM     16  C   UNL     1       9.718  10.202  19.588  0.00  0.00    +0.000 A 
ATOM     17  C   UNL     1      10.383  11.412  19.803  0.00  0.00    +0.000 A 
BRANCH  12  19
ATOM     18  C   UNL     1      10.222  14.591  20.075  0.00  0.00    +0.000 C 
ATOM     19  O   UNL     1      10.746  13.723  19.075  0.00  0.00    +0.000 OA
ENDBRANCH  12  19
ENDBRANCH   1  15
BRANCH   4  20
ATOM     20  N   UNL     1       4.557   6.993  16.428  0.00  0.00    +0.000 N 
ATOM     21  H   UNL     1       4.186   6.333  15.748  0.00  0.00    +0.000 HD
BRANCH  20  22
ATOM     22  C   UNL     1       3.576   7.861  17.066  0.00  0.00    +0.000 C 
BRANCH  22  23
ATOM     23  C   UNL     1       2.403   7.035  17.602  0.00  0.00    +0.000 C 
BRANCH  23  24
ATOM     24  C   UNL     1       2.500   6.871  19.117  0.00  0.00    +0.000 C 
BRANCH  24  25
ATOM     25  N   UNL     1       2.231   5.517  19.529  0.00  0.00    +0.000 N 
ATOM     26  C   UNL     1       3.198   4.685  20.027  0.00  0.00    +0.000 C 
ATOM     27  O   UNL     1       4.363   4.995  20.233  0.00  0.00    +0.000 OA
ATOM     28  H   UNL     1       1.277   5.173  19.509  0.00  0.00    +0.000 HD
BRANCH  26  29
ATOM     29  C   UNL     1       2.696   3.308  20.338  0.00  0.00    +0.000 C 
ATOM     30  C   UNL     1       2.058   3.070  21.706  0.00  0.00    +0.000 C 
ATOM     31  C   UNL     1       1.186   3.163  20.491  0.00  0.00    +0.000 C 
BRANCH  29  32
ATOM     32  C   UNL     1       3.418   2.159  19.671  0.00  0.00    +0.000 C 
BRANCH  32  33
ATOM     33  N   UNL     1       4.857   2.243  19.914  0.00  0.00    +0.000 NA
ATOM     34  H   UNL     1       5.081   1.668  20.729  0.00  0.00    +0.000 HD
ATOM     35  H   UNL     1       5.081   3.197  20.199  0.00  0.00    +0.000 HD
ENDBRANCH  32  33
ENDBRANCH  29  32
ENDBRANCH  26  29
ENDBRANCH  24  25
ENDBRANCH  23  24
ENDBRANCH  22  23
ENDBRANCH  20  22
ENDBRANCH   4  20
TORSDOF 10
ENDMDL
