MODEL 1
REMARK VINA RESULT:      -7.9      0.000      0.000
REMARK  Name = 
REMARK  4 active torsions:
REMARK  status: ('A' for Active; 'I' for Inactive)
REMARK    1  A    between atoms: C_1  and  C_2
REMARK    2  A    between atoms: C_4  and  C_5
REMARK    3  A    between atoms: C_8  and  C_10
REMARK    4  A    between atoms: C_12  and  C_13
REMARK                            x       y       z     vdW  Elec       q    Type
REMARK                         _______ _______ _______ _____ _____    ______ ____
ROOT
ATOM      1  C   UNL     1       3.039   5.204  18.484  0.00  0.00    +0.000 A 
ATOM      2  C   UNL     1       2.427   6.450  18.618  0.00  0.00    +0.000 A 
ATOM      3  C   UNL     1       1.950   6.853  19.851  0.00  0.00    +0.000 A 
ATOM      4  N   UNL     1       1.903   5.992  20.891  0.00  0.00    +0.000 NA
ATOM      5  C   UNL     1       2.327   4.727  20.726  0.00  0.00    +0.000 A 
ATOM      6  C   UNL     1       2.122   3.838  21.775  0.00  0.00    +0.000 A 
ATOM      7  C   UNL     1       2.508   2.501  21.702  0.00  0.00    +0.000 A 
ATOM      8  C   UNL     1       3.166   2.044  20.571  0.00  0.00    +0.000 A 
ATOM      9  C   UNL     1       3.402   2.921  19.512  0.00  0.00    +0.000 A 
ATOM     10  C   UNL     1       2.950   4.268  19.547  0.00  0.00    +0.000 A 
ENDROOT
BRANCH   1  18
ATOM     11  C   UNL     1       7.241   5.493  18.536  0.00  0.00    +0.000 C 
ATOM     12  C   UNL     1       6.950   6.553  17.468  0.00  0.00    +0.000 C 
ATOM     13  C   UNL     1       7.554   6.211  16.107  0.00  0.00    +0.000 C 
ATOM     14  C   UNL     1       6.843   5.023  15.443  0.00  0.00    +0.000 C 
ATOM     15  C   UNL     1       7.430   4.767  14.057  0.00  0.00    +0.000 C 
ATOM     16  C   UNL     1       5.325   5.262  15.375  0.00  0.00    +0.000 C 
ATOM     17  N   UNL     1       4.777   5.611  16.692  0.00  0.00    +0.000 N 
ATOM     18  C   UNL     1       3.678   4.876  17.169  0.00  0.00    +0.000 C 
ATOM     19  O   UNL     1       3.190   3.948  16.524  0.00  0.00    +0.000 OA
ATOM     20  C   UNL     1       5.439   6.752  17.338  0.00  0.00    +0.000 C 
ENDBRANCH   1  18
BRANCH   3  21
ATOM     21  C   UNL     1       1.522   8.244  20.120  0.00  0.00    +0.000 A 
ATOM     22  C   UNL     1       1.207   8.690  21.412  0.00  0.00    +0.000 A 
ATOM     23  C   UNL     1       0.776   9.992  21.604  0.00  0.00    +0.000 A 
ATOM     24  N   UNL     1       0.630  10.887  20.603  0.00  0.00    +0.000 NA
ATOM     25  C   UNL     1       0.940  10.457  19.363  0.00  0.00    +0.000 A 
ATOM     26  C   UNL     1       1.379   9.172  19.079  0.00  0.00    +0.000 A 
ENDBRANCH   3  21
TORSDOF 2
ENDMDL
MODEL 2
REMARK VINA RESULT:      -7.3      2.917      6.457
REMARK  Name = 
REMARK  4 active torsions:
REMARK  status: ('A' for Active; 'I' for Inactive)
REMARK    1  A    between atoms: C_1  and  C_2
REMARK    2  A    between atoms: C_4  and  C_5
REMARK    3  A    between atoms: C_8  and  C_10
REMARK    4  A    between atoms: C_12  and  C_13
REMARK                            x       y       z     vdW  Elec       q    Type
REMARK                         _______ _______ _______ _____ _____    ______ ____
ROOT
ATOM      1  C   UNL     1       6.101   5.329  18.271  0.00  0.00    +0.000 A 
ATOM      2  C   UNL     1       6.863   6.432  18.658  0.00  0.00    +0.000 A 
ATOM      3  C   UNL     1       7.443   7.239  17.697  0.00  0.00    +0.000 A 
ATOM      4  N   UNL     1       7.437   6.879  16.395  0.00  0.00    +0.000 NA
ATOM      5  C   UNL     1       6.859   5.723  16.028  0.00  0.00    +0.000 A 
ATOM      6  C   UNL     1       7.008   5.321  14.705  0.00  0.00    +0.000 A 
ATOM      7  C   UNL     1       6.462   4.132  14.224  0.00  0.00    +0.000 A 
ATOM      8  C   UNL     1       5.701   3.341  15.071  0.00  0.00    +0.000 A 
ATOM      9  C   UNL     1       5.520   3.732  16.398  0.00  0.00    +0.000 A 
ATOM     10  C   UNL     1       6.130   4.906  16.917  0.00  0.00    +0.000 A 
ENDROOT
BRANCH   1  18
ATOM     11  C   UNL     1       2.256   4.073  17.097  0.00  0.00    +0.000 C 
ATOM     12  C   UNL     1       1.857   4.973  18.272  0.00  0.00    +0.000 C 
ATOM     13  C   UNL     1       1.147   4.214  19.392  0.00  0.00    +0.000 C 
ATOM     14  C   UNL     1       2.100   3.273  20.144  0.00  0.00    +0.000 C 
ATOM     15  C   UNL     1       1.365   2.595  21.298  0.00  0.00    +0.000 C 
ATOM     16  C   UNL     1       3.342   4.034  20.638  0.00  0.00    +0.000 C 
ATOM     17  N   UNL     1       3.989   4.773  19.546  0.00  0.00    +0.000 N 
ATOM     18  C   UNL     1       5.366   4.578  19.338  0.00  0.00    +0.000 C 
ATOM     19  O   UNL     1       6.021   3.799  20.029  0.00  0.00    +0.000 OA
ATOM     20  C   UNL     1       3.094   5.685  18.820  0.00  0.00    +0.000 C 
ENDBRANCH   1  18
BRANCH   3  21
ATOM     21  C   UNL     1       8.045   8.551  18.021  0.00  0.00    +0.000 A 
ATOM     22  C   UNL     1       8.953   8.715  19.079  0.00  0.00    +0.000 A 
ATOM     23  C   UNL     1       9.458   9.972  19.363  0.00  0.00    +0.000 A 
ATOM     24  N   UNL     1       9.124  11.086  18.677  0.00  0.00    +0.000 NA
ATOM     25  C   UNL     1       8.257  10.925  17.657  0.00  0.00    +0.000 A 
ATOM     26  C   UNL     1       7.701   9.704  17.301  0.00  0.00    +0.000 A 
ENDBRANCH   3  21
TORSDOF 2
ENDMDL
MODEL 3
REMARK VINA RESULT:      -7.2      4.357      9.710
REMARK  Name = 
REMARK  4 active torsions:
REMARK  status: ('A' for Active; 'I' for Inactive)
REMARK    1  A    between atoms: C_1  and  C_2
REMARK    2  A    between atoms: C_4  and  C_5
REMARK    3  A    between atoms: C_8  and  C_10
REMARK    4  A    between atoms: C_12  and  C_13
REMARK                            x       y       z     vdW  Elec       q    Type
REMARK                         _______ _______ _______ _____ _____    ______ ____
ROOT
ATOM      1  C   UNL     1      -0.579  11.721  19.599  0.00  0.00    +0.000 A 
ATOM      2  C   UNL     1      -0.199  10.392  19.412  0.00  0.00    +0.000 A 
ATOM      3  C   UNL     1       1.121  10.087  19.135  0.00  0.00    +0.000 A 
ATOM      4  N   UNL     1       2.016  11.062  18.865  0.00  0.00    +0.000 NA
ATOM      5  C   UNL     1       1.619  12.346  18.865  0.00  0.00    +0.000 A 
ATOM      6  C   UNL     1       2.532  13.302  18.435  0.00  0.00    +0.000 A 
ATOM      7  C   UNL     1       2.218  14.659  18.381  0.00  0.00    +0.000 A 
ATOM      8  C   UNL     1       0.975  15.087  18.817  0.00  0.00    +0.000 A 
ATOM      9  C   UNL     1       0.046  14.150  19.272  0.00  0.00    +0.000 A 
ATOM     10  C   UNL     1       0.331  12.758  19.265  0.00  0.00    +0.000 A 
ENDROOT
BRANCH   1  18
ATOM     11  C   UNL     1      -3.466   9.416  17.577  0.00  0.00    +0.000 C 
ATOM     12  C   UNL     1      -3.952  10.809  17.163  0.00  0.00    +0.000 C 
ATOM     13  C   UNL     1      -5.365  11.120  17.654  0.00  0.00    +0.000 C 
ATOM     14  C   UNL     1      -5.417  11.308  19.178  0.00  0.00    +0.000 C 
ATOM     15  C   UNL     1      -6.830  11.690  19.612  0.00  0.00    +0.000 C 
ATOM     16  C   UNL     1      -4.386  12.354  19.635  0.00  0.00    +0.000 C 
ATOM     17  N   UNL     1      -3.043  12.042  19.128  0.00  0.00    +0.000 N 
ATOM     18  C   UNL     1      -1.982  11.990  20.049  0.00  0.00    +0.000 C 
ATOM     19  O   UNL     1      -2.159  12.177  21.253  0.00  0.00    +0.000 OA
ATOM     20  C   UNL     1      -2.973  11.868  17.671  0.00  0.00    +0.000 C 
ENDBRANCH   1  18
BRANCH   3  21
ATOM     21  C   UNL     1       1.640   8.702  19.175  0.00  0.00    +0.000 A 
ATOM     22  C   UNL     1       2.184   8.076  18.043  0.00  0.00    +0.000 A 
ATOM     23  C   UNL     1       2.621   6.765  18.126  0.00  0.00    +0.000 A 
ATOM     24  N   UNL     1       2.554   6.023  19.251  0.00  0.00    +0.000 NA
ATOM     25  C   UNL     1       2.038   6.629  20.340  0.00  0.00    +0.000 A 
ATOM     26  C   UNL     1       1.575   7.937  20.349  0.00  0.00    +0.000 A 
ENDBRANCH   3  21
TORSDOF 2
ENDMDL
MODEL 4
REMARK VINA RESULT:      -7.0      4.428     10.438
REMARK  Name = 
REMARK  4 active torsions:
REMARK  status: ('A' for Active; 'I' for Inactive)
REMARK    1  A    between atoms: C_1  and  C_2
REMARK    2  A    between atoms: C_4  and  C_5
REMARK    3  A    between atoms: C_8  and  C_10
REMARK    4  A    between atoms: C_12  and  C_13
REMARK                            x       y       z     vdW  Elec       q    Type
REMARK                         _______ _______ _______ _____ _____    ______ ____
ROOT
ATOM      1  C   UNL     1      -0.910  12.219  19.770  0.00  0.00    +0.000 A 
ATOM      2  C   UNL     1      -0.478  10.917  19.516  0.00  0.00    +0.000 A 
ATOM      3  C   UNL     1       0.834  10.688  19.145  0.00  0.00    +0.000 A 
ATOM      4  N   UNL     1       1.660  11.714  18.849  0.00  0.00    +0.000 NA
ATOM      5  C   UNL     1       1.202  12.976  18.916  0.00  0.00    +0.000 A 
ATOM      6  C   UNL     1       2.037  13.989  18.459  0.00  0.00    +0.000 A 
ATOM      7  C   UNL     1       1.654  15.329  18.469  0.00  0.00    +0.000 A 
ATOM      8  C   UNL     1       0.422  15.680  18.997  0.00  0.00    +0.000 A 
ATOM      9  C   UNL     1      -0.427  14.685  19.481  0.00  0.00    +0.000 A 
ATOM     10  C   UNL     1      -0.076  13.310  19.411  0.00  0.00    +0.000 A 
ENDROOT
BRANCH   1  18
ATOM     11  C   UNL     1      -1.111  15.004  22.922  0.00  0.00    +0.000 C 
ATOM     12  C   UNL     1      -1.607  13.766  23.676  0.00  0.00    +0.000 C 
ATOM     13  C   UNL     1      -3.034  13.918  24.202  0.00  0.00    +0.000 C 
ATOM     14  C   UNL     1      -4.069  13.919  23.068  0.00  0.00    +0.000 C 
ATOM     15  C   UNL     1      -5.480  13.997  23.645  0.00  0.00    +0.000 C 
ATOM     16  C   UNL     1      -3.897  12.683  22.169  0.00  0.00    +0.000 C 
ATOM     17  N   UNL     1      -2.512  12.549  21.699  0.00  0.00    +0.000 N 
ATOM     18  C   UNL     1      -2.292  12.403  20.317  0.00  0.00    +0.000 C 
ATOM     19  O   UNL     1      -3.220  12.406  19.510  0.00  0.00    +0.000 OA
ATOM     20  C   UNL     1      -1.508  12.538  22.771  0.00  0.00    +0.000 C 
ENDBRANCH   1  18
BRANCH   3  21
ATOM     21  C   UNL     1       1.422   9.330  19.107  0.00  0.00    +0.000 A 
ATOM     22  C   UNL     1       1.416   8.483  20.226  0.00  0.00    +0.000 A 
ATOM     23  C   UNL     1       2.013   7.236  20.148  0.00  0.00    +0.000 A 
ATOM     24  N   UNL     1       2.622   6.766  19.039  0.00  0.00    +0.000 NA
ATOM     25  C   UNL     1       2.620   7.579  17.963  0.00  0.00    +0.000 A 
ATOM     26  C   UNL     1       2.047   8.843  17.951  0.00  0.00    +0.000 A 
ENDBRANCH   3  21
TORSDOF 2
ENDMDL
MODEL 5
REMARK VINA RESULT:      -7.0      4.248      8.253
REMARK  Name = 
REMARK  4 active torsions:
REMARK  status: ('A' for Active; 'I' for Inactive)
REMARK    1  A    between atoms: C_1  and  C_2
REMARK    2  A    between atoms: C_4  and  C_5
REMARK    3  A    between atoms: C_8  and  C_10
REMARK    4  A    between atoms: C_12  and  C_13
REMARK                            x       y       z     vdW  Elec       q    Type
REMARK                         _______ _______ _______ _____ _____    ______ ____
ROOT
ATOM      1  C   UNL     1       0.030  11.393  21.704  0.00  0.00    +0.000 A 
ATOM      2  C   UNL     1      -1.200  11.413  22.363  0.00  0.00    +0.000 A 
ATOM      3  C   UNL     1      -1.966  12.564  22.355  0.00  0.00    +0.000 A 
ATOM      4  N   UNL     1      -1.468  13.724  21.875  0.00  0.00    +0.000 NA
ATOM      5  C   UNL     1      -0.212  13.762  21.398  0.00  0.00    +0.000 A 
ATOM      6  C   UNL     1       0.309  15.004  21.057  0.00  0.00    +0.000 A 
ATOM      7  C   UNL     1       1.606  15.157  20.568  0.00  0.00    +0.000 A 
ATOM      8  C   UNL     1       2.392  14.035  20.365  0.00  0.00    +0.000 A 
ATOM      9  C   UNL     1       1.886  12.774  20.681  0.00  0.00    +0.000 A 
ATOM     10  C   UNL     1       0.592  12.614  21.245  0.00  0.00    +0.000 A 
ENDROOT
BRANCH   1  18
ATOM     11  C   UNL     1       1.963  10.808  18.009  0.00  0.00    +0.000 C 
ATOM     12  C   UNL     1       1.000   9.617  17.957  0.00  0.00    +0.000 C 
ATOM     13  C   UNL     1       1.718   8.269  17.905  0.00  0.00    +0.000 C 
ATOM     14  C   UNL     1       2.415   7.936  19.233  0.00  0.00    +0.000 C 
ATOM     15  C   UNL     1       3.053   6.551  19.158  0.00  0.00    +0.000 C 
ATOM     16  C   UNL     1       1.429   8.038  20.408  0.00  0.00    +0.000 C 
ATOM     17  N   UNL     1       0.736   9.333  20.418  0.00  0.00    +0.000 N 
ATOM     18  C   UNL     1       0.750  10.084  21.607  0.00  0.00    +0.000 C 
ATOM     19  O   UNL     1       1.339   9.691  22.614  0.00  0.00    +0.000 OA
ATOM     20  C   UNL     1       0.056   9.665  19.159  0.00  0.00    +0.000 C 
ENDBRANCH   1  18
BRANCH   3  21
ATOM     21  C   UNL     1      -3.374  12.582  22.809  0.00  0.00    +0.000 A 
ATOM     22  C   UNL     1      -4.438  12.839  21.930  0.00  0.00    +0.000 A 
ATOM     23  C   UNL     1      -5.735  12.881  22.414  0.00  0.00    +0.000 A 
ATOM     24  N   UNL     1      -6.056  12.692  23.711  0.00  0.00    +0.000 NA
ATOM     25  C   UNL     1      -5.033  12.439  24.553  0.00  0.00    +0.000 A 
ATOM     26  C   UNL     1      -3.704  12.378  24.156  0.00  0.00    +0.000 A 
ENDBRANCH   3  21
TORSDOF 2
ENDMDL
MODEL 6
REMARK VINA RESULT:      -7.0      8.038      9.983
REMARK  Name = 
REMARK  4 active torsions:
REMARK  status: ('A' for Active; 'I' for Inactive)
REMARK    1  A    between atoms: C_1  and  C_2
REMARK    2  A    between atoms: C_4  and  C_5
REMARK    3  A    between atoms: C_8  and  C_10
REMARK    4  A    between atoms: C_12  and  C_13
REMARK                            x       y       z     vdW  Elec       q    Type
REMARK                         _______ _______ _______ _____ _____    ______ ____
ROOT
ATOM      1  C   UNL     1      -2.324  11.976  19.570  0.00  0.00    +0.000 A 
ATOM      2  C   UNL     1      -3.221  12.593  20.441  0.00  0.00    +0.000 A 
ATOM      3  C   UNL     1      -4.579  12.529  20.190  0.00  0.00    +0.000 A 
ATOM      4  N   UNL     1      -5.046  12.034  19.023  0.00  0.00    +0.000 NA
ATOM      5  C   UNL     1      -4.179  11.597  18.094  0.00  0.00    +0.000 A 
ATOM      6  C   UNL     1      -4.694  11.238  16.853  0.00  0.00    +0.000 A 
ATOM      7  C   UNL     1      -3.882  10.787  15.814  0.00  0.00    +0.000 A 
ATOM      8  C   UNL     1      -2.521  10.640  16.029  0.00  0.00    +0.000 A 
ATOM      9  C   UNL     1      -1.982  10.975  17.272  0.00  0.00    +0.000 A 
ATOM     10  C   UNL     1      -2.790  11.502  18.315  0.00  0.00    +0.000 A 
ENDROOT
BRANCH   1  18
ATOM     11  C   UNL     1      -0.728  15.767  20.472  0.00  0.00    +0.000 C 
ATOM     12  C   UNL     1       0.186  15.406  19.296  0.00  0.00    +0.000 C 
ATOM     13  C   UNL     1       1.659  15.316  19.689  0.00  0.00    +0.000 C 
ATOM     14  C   UNL     1       1.946  14.097  20.577  0.00  0.00    +0.000 C 
ATOM     15  C   UNL     1       3.439  14.008  20.881  0.00  0.00    +0.000 C 
ATOM     16  C   UNL     1       1.428  12.807  19.919  0.00  0.00    +0.000 C 
ATOM     17  N   UNL     1       0.017  12.931  19.530  0.00  0.00    +0.000 N 
ATOM     18  C   UNL     1      -0.880  11.938  19.963  0.00  0.00    +0.000 C 
ATOM     19  O   UNL     1      -0.514  10.996  20.665  0.00  0.00    +0.000 OA
ATOM     20  C   UNL     1      -0.274  14.088  18.672  0.00  0.00    +0.000 C 
ENDBRANCH   1  18
BRANCH   3  21
ATOM     21  C   UNL     1      -5.591  12.937  21.191  0.00  0.00    +0.000 A 
ATOM     22  C   UNL     1      -5.271  13.758  22.283  0.00  0.00    +0.000 A 
ATOM     23  C   UNL     1      -6.247  14.080  23.211  0.00  0.00    +0.000 A 
ATOM     24  N   UNL     1      -7.521  13.641  23.139  0.00  0.00    +0.000 NA
ATOM     25  C   UNL     1      -7.828  12.858  22.085  0.00  0.00    +0.000 A 
ATOM     26  C   UNL     1      -6.915  12.485  21.108  0.00  0.00    +0.000 A 
ENDBRANCH   3  21
TORSDOF 2
ENDMDL
MODEL 7
REMARK VINA RESULT:      -6.8      6.627     10.843
REMARK  Name = 
REMARK  4 active torsions:
REMARK  status: ('A' for Active; 'I' for Inactive)
REMARK    1  A    between atoms: C_1  and  C_2
REMARK    2  A    between atoms: C_4  and  C_5
REMARK    3  A    between atoms: C_8  and  C_10
REMARK    4  A    between atoms: C_12  and  C_13
REMARK                            x       y       z     vdW  Elec       q    Type
REMARK                         _______ _______ _______ _____ _____    ______ ____
ROOT
ATOM      1  C   UNL     1       1.976  15.037  19.841  0.00  0.00    +0.000 A 
ATOM      2  C   UNL     1       3.318  14.891  19.491  0.00  0.00    +0.000 A 
ATOM      3  C   UNL     1       3.931  15.846  18.701  0.00  0.00    +0.000 A 
ATOM      4  N   UNL     1       3.209  16.825  18.113  0.00  0.00    +0.000 NA
ATOM      5  C   UNL     1       1.879  16.873  18.297  0.00  0.00    +0.000 A 
ATOM      6  C   UNL     1       1.159  17.801  17.555  0.00  0.00    +0.000 A 
ATOM      7  C   UNL     1      -0.225  17.923  17.658  0.00  0.00    +0.000 A 
ATOM      8  C   UNL     1      -0.912  17.132  18.565  0.00  0.00    +0.000 A 
ATOM      9  C   UNL     1      -0.210  16.205  19.337  0.00  0.00    +0.000 A 
ATOM     10  C   UNL     1       1.191  16.024  19.189  0.00  0.00    +0.000 A 
ENDROOT
BRANCH   1  18
ATOM     11  C   UNL     1       1.984  11.056  18.465  0.00  0.00    +0.000 C 
ATOM     12  C   UNL     1       0.472  11.236  18.642  0.00  0.00    +0.000 C 
ATOM     13  C   UNL     1      -0.126  10.283  19.675  0.00  0.00    +0.000 C 
ATOM     14  C   UNL     1       0.310  10.635  21.105  0.00  0.00    +0.000 C 
ATOM     15  C   UNL     1      -0.371   9.704  22.105  0.00  0.00    +0.000 C 
ATOM     16  C   UNL     1       0.015  12.111  21.419  0.00  0.00    +0.000 C 
ATOM     17  N   UNL     1       0.581  13.001  20.397  0.00  0.00    +0.000 N 
ATOM     18  C   UNL     1       1.399  14.063  20.822  0.00  0.00    +0.000 C 
ATOM     19  O   UNL     1       1.660  14.244  22.011  0.00  0.00    +0.000 OA
ATOM     20  C   UNL     1       0.167  12.685  19.023  0.00  0.00    +0.000 C 
ENDBRANCH   1  18
BRANCH   3  21
ATOM     21  C   UNL     1       5.397  15.890  18.502  0.00  0.00    +0.000 A 
ATOM     22  C   UNL     1       6.161  17.018  18.834  0.00  0.00    +0.000 A 
ATOM     23  C   UNL     1       7.525  17.020  18.593  0.00  0.00    +0.000 A 
ATOM     24  N   UNL     1       8.189  15.983  18.040  0.00  0.00    +0.000 NA
ATOM     25  C   UNL     1       7.452  14.897  17.728  0.00  0.00    +0.000 A 
ATOM     26  C   UNL     1       6.083  14.807  17.934  0.00  0.00    +0.000 A 
ENDBRANCH   3  21
TORSDOF 2
ENDMDL
MODEL 8
REMARK VINA RESULT:      -6.8      5.333      9.549
REMARK  Name = 
REMARK  4 active torsions:
REMARK  status: ('A' for Active; 'I' for Inactive)
REMARK    1  A    between atoms: C_1  and  C_2
REMARK    2  A    between atoms: C_4  and  C_5
REMARK    3  A    between atoms: C_8  and  C_10
REMARK    4  A    between atoms: C_12  and  C_13
REMARK                            x       y       z     vdW  Elec       q    Type
REMARK                         _______ _______ _______ _____ _____    ______ ____
ROOT
ATOM      1  C   UNL     1      -1.397  12.146  22.288  0.00  0.00    +0.000 A 
ATOM      2  C   UNL     1      -2.733  12.041  22.674  0.00  0.00    +0.000 A 
ATOM      3  C   UNL     1      -3.548  13.157  22.641  0.00  0.00    +0.000 A 
ATOM      4  N   UNL     1      -3.033  14.385  22.414  0.00  0.00    +0.000 NA
ATOM      5  C   UNL     1      -1.711  14.525  22.217  0.00  0.00    +0.000 A 
ATOM      6  C   UNL     1      -1.205  15.817  22.139  0.00  0.00    +0.000 A 
ATOM      7  C   UNL     1       0.152  16.074  21.952  0.00  0.00    +0.000 A 
ATOM      8  C   UNL     1       1.029  15.014  21.788  0.00  0.00    +0.000 A 
ATOM      9  C   UNL     1       0.544  13.706  21.843  0.00  0.00    +0.000 A 
ATOM     10  C   UNL     1      -0.826  13.433  22.102  0.00  0.00    +0.000 A 
ENDROOT
BRANCH   1  18
ATOM     11  C   UNL     1       0.964  11.916  18.808  0.00  0.00    +0.000 C 
ATOM     12  C   UNL     1       0.084  10.685  18.572  0.00  0.00    +0.000 C 
ATOM     13  C   UNL     1       0.880   9.382  18.517  0.00  0.00    +0.000 C 
ATOM     14  C   UNL     1       1.443   8.993  19.892  0.00  0.00    +0.000 C 
ATOM     15  C   UNL     1       2.165   7.650  19.803  0.00  0.00    +0.000 C 
ATOM     16  C   UNL     1       0.329   8.963  20.951  0.00  0.00    +0.000 C 
ATOM     17  N   UNL     1      -0.434  10.218  20.964  0.00  0.00    +0.000 N 
ATOM     18  C   UNL     1      -0.595  10.884  22.192  0.00  0.00    +0.000 C 
ATOM     19  O   UNL     1      -0.100  10.453  23.232  0.00  0.00    +0.000 OA
ATOM     20  C   UNL     1      -0.989  10.602  19.658  0.00  0.00    +0.000 C 
ENDBRANCH   1  18
BRANCH   3  21
ATOM     21  C   UNL     1      -5.018  13.071  22.790  0.00  0.00    +0.000 A 
ATOM     22  C   UNL     1      -5.640  13.050  24.048  0.00  0.00    +0.000 A 
ATOM     23  C   UNL     1      -7.017  12.930  24.132  0.00  0.00    +0.000 A 
ATOM     24  N   UNL     1      -7.826  12.823  23.057  0.00  0.00    +0.000 NA
ATOM     25  C   UNL     1      -7.227  12.851  21.849  0.00  0.00    +0.000 A 
ATOM     26  C   UNL     1      -5.855  12.967  21.670  0.00  0.00    +0.000 A 
ENDBRANCH   3  21
TORSDOF 2
ENDMDL
MODEL 9
REMARK VINA RESULT:      -6.7      4.133      8.754
REMARK  Name = 
REMARK  4 active torsions:
REMARK  status: ('A' for Active; 'I' for Inactive)
REMARK    1  A    between atoms: C_1  and  C_2
REMARK    2  A    between atoms: C_4  and  C_5
REMARK    3  A    between atoms: C_8  and  C_10
REMARK    4  A    between atoms: C_12  and  C_13
REMARK                            x       y       z     vdW  Elec       q    Type
REMARK                         _______ _______ _______ _____ _____    ______ ____
ROOT
ATOM      1  C   UNL     1       0.031  12.142  19.728  0.00  0.00    +0.000 A 
ATOM      2  C   UNL     1       0.930  11.170  19.287  0.00  0.00    +0.000 A 
ATOM      3  C   UNL     1       0.956   9.930  19.898  0.00  0.00    +0.000 A 
ATOM      4  N   UNL     1       0.255   9.700  21.029  0.00  0.00    +0.000 NA
ATOM      5  C   UNL     1      -0.479  10.687  21.568  0.00  0.00    +0.000 A 
ATOM      6  C   UNL     1      -1.061  10.453  22.809  0.00  0.00    +0.000 A 
ATOM      7  C   UNL     1      -1.829  11.415  23.463  0.00  0.00    +0.000 A 
ATOM      8  C   UNL     1      -2.068  12.631  22.844  0.00  0.00    +0.000 A 
ATOM      9  C   UNL     1      -1.512  12.884  21.589  0.00  0.00    +0.000 A 
ATOM     10  C   UNL     1      -0.671  11.938  20.945  0.00  0.00    +0.000 A 
ENDROOT
BRANCH   1  18
ATOM     11  C   UNL     1       3.611  14.358  19.641  0.00  0.00    +0.000 C 
ATOM     12  C   UNL     1       2.713  15.397  20.322  0.00  0.00    +0.000 C 
ATOM     13  C   UNL     1       2.560  16.681  19.509  0.00  0.00    +0.000 C 
ATOM     14  C   UNL     1       1.725  16.462  18.239  0.00  0.00    +0.000 C 
ATOM     15  C   UNL     1       1.536  17.785  17.500  0.00  0.00    +0.000 C 
ATOM     16  C   UNL     1       0.374  15.810  18.578  0.00  0.00    +0.000 C 
ATOM     17  N   UNL     1       0.551  14.592  19.380  0.00  0.00    +0.000 N 
ATOM     18  C   UNL     1      -0.070  13.411  18.939  0.00  0.00    +0.000 C 
ATOM     19  O   UNL     1      -0.730  13.375  17.901  0.00  0.00    +0.000 OA
ATOM     20  C   UNL     1       1.341  14.785  20.604  0.00  0.00    +0.000 C 
ENDBRANCH   1  18
BRANCH   3  21
ATOM     21  C   UNL     1       1.695   8.781  19.328  0.00  0.00    +0.000 A 
ATOM     22  C   UNL     1       1.928   7.607  20.060  0.00  0.00    +0.000 A 
ATOM     23  C   UNL     1       2.657   6.576  19.492  0.00  0.00    +0.000 A 
ATOM     24  N   UNL     1       3.180   6.625  18.249  0.00  0.00    +0.000 NA
ATOM     25  C   UNL     1       2.949   7.752  17.544  0.00  0.00    +0.000 A 
ATOM     26  C   UNL     1       2.230   8.834  18.033  0.00  0.00    +0.000 A 
ENDBRANCH   3  21
TORSDOF 2
ENDMDL
