MODEL 1
REMARK VINA RESULT:      -6.4      0.000      0.000
REMARK  Name = 
REMARK  9 active torsions:
REMARK  status: ('A' for Active; 'I' for Inactive)
REMARK    1  A    between atoms: C_1  and  C_2
REMARK    2  A    between atoms: C_2  and  O_3
REMARK    3  A    between atoms: O_3  and  C_4
REMARK    4  A    between atoms: C_5  and  N_6
REMARK    5  A    between atoms: C_10  and  N_11
REMARK    6  A    between atoms: C_15  and  N_16
REMARK    7  A    between atoms: C_20  and  C_21
REMARK    8  A    between atoms: C_21  and  O_23
REMARK    9  A    between atoms: N_25  and  C_26
REMARK                            x       y       z     vdW  Elec       q    Type
REMARK                         _______ _______ _______ _____ _____    ______ ____
ROOT
ATOM      1  C   UNL     1      -3.616  12.645  20.112  0.00  0.00    +0.000 A 
ATOM      2  C   UNL     1      -2.533  12.422  21.058  0.00  0.00    +0.000 A 
ATOM      3  C   UNL     1      -1.456  11.619  20.635  0.00  0.00    +0.000 A 
ATOM      4  F   UNL     1      -0.428  11.373  21.473  0.00  0.00    +0.000 F 
ATOM      5  C   UNL     1      -1.399  11.008  19.381  0.00  0.00    +0.000 A 
ATOM      6  C   UNL     1      -2.473  11.203  18.485  0.00  0.00    +0.000 A 
ATOM      7  C   UNL     1      -2.398  10.481  17.169  0.00  0.00    +0.000 A 
ATOM      8  O   UNL     1      -1.510   9.672  16.892  0.00  0.00    +0.000 OA
ATOM      9  C   UNL     1      -3.427  10.728  16.165  0.00  0.00    +0.000 A 
ATOM     10  C   UNL     1      -4.462  11.467  16.556  0.00  0.00    +0.000 A 
ATOM     11  N   UNL     1      -4.682  12.027  17.799  0.00  0.00    +0.000 N 
ATOM     12  C   UNL     1      -3.633  12.003  18.814  0.00  0.00    +0.000 A 
ENDROOT
BRANCH   2  13
ATOM     13  N   UNL     1      -2.513  13.039  22.321  0.00  0.00    +0.000 N 
ATOM     14  C   UNL     1      -1.567  14.119  22.643  0.00  0.00    +0.000 C 
ATOM     15  C   UNL     1      -2.275  15.132  23.549  0.00  0.00    +0.000 C 
ATOM     16  C   UNL     1      -2.883  14.470  24.783  0.00  0.00    +0.000 C 
ATOM     17  C   UNL     1      -3.783  13.282  24.384  0.00  0.00    +0.000 C 
ATOM     18  C   UNL     1      -2.985  12.302  23.499  0.00  0.00    +0.000 C 
BRANCH  17  19
ATOM     19  N   UNL     1      -4.337  12.658  25.582  0.00  0.00    +0.000 NA
ATOM     20  H   UNL     1      -4.045  11.677  25.650  0.00  0.00    +0.000 HD
ATOM     21  H   UNL     1      -5.355  12.673  25.521  0.00  0.00    +0.000 HD
ENDBRANCH  17  19
ENDBRANCH   2  13
BRANCH   5  22
ATOM     22  N   UNL     1      -0.170  10.415  18.997  0.00  0.00    +0.000 N 
ATOM     23  H   UNL     1       0.550  10.467  19.714  0.00  0.00    +0.000 HD
ATOM     24  H   UNL     1      -0.275   9.480  18.592  0.00  0.00    +0.000 HD
ENDBRANCH   5  22
BRANCH  11  25
ATOM     25  C   UNL     1      -5.931  12.802  17.838  0.00  0.00    +0.000 C 
ATOM     26  C   UNL     1      -7.109  12.783  16.888  0.00  0.00    +0.000 C 
ATOM     27  C   UNL     1      -7.231  12.096  18.197  0.00  0.00    +0.000 C 
ENDBRANCH  11  25
BRANCH   9  28
ATOM     28  C   UNL     1      -3.432  10.187  14.787  0.00  0.00    +0.000 C 
ATOM     29  O   UNL     1      -2.420  10.057  14.113  0.00  0.00    +0.000 OA
BRANCH  28  30
ATOM     30  O   UNL     1      -4.653   9.849  14.323  0.00  0.00    +0.000 OA
ATOM     31  H   UNL     1      -4.954   8.958  14.621  0.00  0.00    +0.000 HD
ENDBRANCH  28  30
ENDBRANCH   9  28
BRANCH   1  32
ATOM     32  O   UNL     1      -4.577  13.488  20.660  0.00  0.00    +0.000 OA
BRANCH  32  34
ATOM     33  C   UNL     1      -6.790  13.856  21.748  0.00  0.00    +0.000 C 
ATOM     34  C   UNL     1      -5.696  12.916  21.295  0.00  0.00    +0.000 C 
ENDBRANCH  32  34
ENDBRANCH   1  32
TORSDOF 8
ENDMDL
MODEL 2
REMARK VINA RESULT:      -5.9      2.506      4.007
REMARK  Name = 
REMARK  9 active torsions:
REMARK  status: ('A' for Active; 'I' for Inactive)
REMARK    1  A    between atoms: C_1  and  C_2
REMARK    2  A    between atoms: C_2  and  O_3
REMARK    3  A    between atoms: O_3  and  C_4
REMARK    4  A    between atoms: C_5  and  N_6
REMARK    5  A    between atoms: C_10  and  N_11
REMARK    6  A    between atoms: C_15  and  N_16
REMARK    7  A    between atoms: C_20  and  C_21
REMARK    8  A    between atoms: C_21  and  O_23
REMARK    9  A    between atoms: N_25  and  C_26
REMARK                            x       y       z     vdW  Elec       q    Type
REMARK                         _______ _______ _______ _____ _____    ______ ____
ROOT
ATOM      1  C   UNL     1      -3.597  12.095  19.494  0.00  0.00    +0.000 A 
ATOM      2  C   UNL     1      -3.659  12.894  20.708  0.00  0.00    +0.000 A 
ATOM      3  C   UNL     1      -2.476  13.024  21.461  0.00  0.00    +0.000 A 
ATOM      4  F   UNL     1      -2.478  13.747  22.599  0.00  0.00    +0.000 F 
ATOM      5  C   UNL     1      -1.274  12.403  21.118  0.00  0.00    +0.000 A 
ATOM      6  C   UNL     1      -1.235  11.601  19.956  0.00  0.00    +0.000 A 
ATOM      7  C   UNL     1       0.063  10.905  19.655  0.00  0.00    +0.000 A 
ATOM      8  O   UNL     1       1.032  10.928  20.415  0.00  0.00    +0.000 OA
ATOM      9  C   UNL     1       0.190  10.149  18.414  0.00  0.00    +0.000 A 
ATOM     10  C   UNL     1      -0.923   9.997  17.703  0.00  0.00    +0.000 A 
ATOM     11  N   UNL     1      -2.188  10.467  17.997  0.00  0.00    +0.000 N 
ATOM     12  C   UNL     1      -2.390  11.391  19.110  0.00  0.00    +0.000 A 
ENDROOT
BRANCH   2  13
ATOM     13  N   UNL     1      -4.828  13.575  21.087  0.00  0.00    +0.000 N 
ATOM     14  C   UNL     1      -5.061  14.981  20.722  0.00  0.00    +0.000 C 
ATOM     15  C   UNL     1      -6.552  15.166  20.421  0.00  0.00    +0.000 C 
ATOM     16  C   UNL     1      -7.432  14.684  21.571  0.00  0.00    +0.000 C 
ATOM     17  C   UNL     1      -7.071  13.240  21.974  0.00  0.00    +0.000 C 
ATOM     18  C   UNL     1      -5.563  13.151  22.285  0.00  0.00    +0.000 C 
BRANCH  17  19
ATOM     19  N   UNL     1      -7.916  12.810  23.085  0.00  0.00    +0.000 NA
ATOM     20  H   UNL     1      -8.770  12.358  22.740  0.00  0.00    +0.000 HD
ATOM     21  H   UNL     1      -8.196  13.630  23.623  0.00  0.00    +0.000 HD
ENDBRANCH  17  19
ENDBRANCH   2  13
BRANCH   5  22
ATOM     22  N   UNL     1      -0.110  12.792  21.828  0.00  0.00    +0.000 N 
ATOM     23  H   UNL     1      -0.276  12.973  22.815  0.00  0.00    +0.000 HD
ATOM     24  H   UNL     1       0.697  12.186  21.654  0.00  0.00    +0.000 HD
ENDBRANCH   5  22
BRANCH  11  25
ATOM     25  C   UNL     1      -3.160  10.120  16.950  0.00  0.00    +0.000 C 
ATOM     26  C   UNL     1      -3.809  11.002  15.904  0.00  0.00    +0.000 C 
ATOM     27  C   UNL     1      -2.708  10.095  15.497  0.00  0.00    +0.000 C 
ENDBRANCH  11  25
BRANCH   9  28
ATOM     28  C   UNL     1       1.430   9.507  17.922  0.00  0.00    +0.000 C 
ATOM     29  O   UNL     1       1.589   8.296  17.880  0.00  0.00    +0.000 OA
BRANCH  28  30
ATOM     30  O   UNL     1       2.387  10.371  17.523  0.00  0.00    +0.000 OA
ATOM     31  H   UNL     1       2.614  11.048  18.204  0.00  0.00    +0.000 HD
ENDBRANCH  28  30
ENDBRANCH   9  28
BRANCH   1  32
ATOM     32  O   UNL     1      -4.827  12.098  18.843  0.00  0.00    +0.000 OA
BRANCH  32  34
ATOM     33  C   UNL     1      -7.125  11.191  18.509  0.00  0.00    +0.000 C 
ATOM     34  C   UNL     1      -5.779  11.121  19.194  0.00  0.00    +0.000 C 
ENDBRANCH  32  34
ENDBRANCH   1  32
TORSDOF 8
ENDMDL
MODEL 3
REMARK VINA RESULT:      -5.9      2.612      4.098
REMARK  Name = 
REMARK  9 active torsions:
REMARK  status: ('A' for Active; 'I' for Inactive)
REMARK    1  A    between atoms: C_1  and  C_2
REMARK    2  A    between atoms: C_2  and  O_3
REMARK    3  A    between atoms: O_3  and  C_4
REMARK    4  A    between atoms: C_5  and  N_6
REMARK    5  A    between atoms: C_10  and  N_11
REMARK    6  A    between atoms: C_15  and  N_16
REMARK    7  A    between atoms: C_20  and  C_21
REMARK    8  A    between atoms: C_21  and  O_23
REMARK    9  A    between atoms: N_25  and  C_26
REMARK                            x       y       z     vdW  Elec       q    Type
REMARK                         _______ _______ _______ _____ _____    ______ ____
ROOT
ATOM      1  C   UNL     1      -3.720  13.038  20.464  0.00  0.00    +0.000 A 
ATOM      2  C   UNL     1      -3.772  13.781  21.713  0.00  0.00    +0.000 A 
ATOM      3  C   UNL     1      -2.559  13.985  22.400  0.00  0.00    +0.000 A 
ATOM      4  F   UNL     1      -2.550  14.660  23.566  0.00  0.00    +0.000 F 
ATOM      5  C   UNL     1      -1.333  13.484  21.958  0.00  0.00    +0.000 A 
ATOM      6  C   UNL     1      -1.300  12.734  20.761  0.00  0.00    +0.000 A 
ATOM      7  C   UNL     1       0.030  12.166  20.353  0.00  0.00    +0.000 A 
ATOM      8  O   UNL     1       1.041  12.244  21.054  0.00  0.00    +0.000 OA
ATOM      9  C   UNL     1       0.142  11.473  19.075  0.00  0.00    +0.000 A 
ATOM     10  C   UNL     1      -0.997  11.252  18.425  0.00  0.00    +0.000 A 
ATOM     11  N   UNL     1      -2.276  11.599  18.815  0.00  0.00    +0.000 N 
ATOM     12  C   UNL     1      -2.484  12.457  19.978  0.00  0.00    +0.000 A 
ENDROOT
BRANCH   2  13
ATOM     13  N   UNL     1      -4.968  14.342  22.192  0.00  0.00    +0.000 N 
ATOM     14  C   UNL     1      -5.399  15.696  21.808  0.00  0.00    +0.000 C 
ATOM     15  C   UNL     1      -6.924  15.698  21.660  0.00  0.00    +0.000 C 
ATOM     16  C   UNL     1      -7.622  15.171  22.912  0.00  0.00    +0.000 C 
ATOM     17  C   UNL     1      -7.055  13.796  23.321  0.00  0.00    +0.000 C 
ATOM     18  C   UNL     1      -5.524  13.892  23.474  0.00  0.00    +0.000 C 
BRANCH  17  19
ATOM     19  N   UNL     1      -7.728  13.324  24.528  0.00  0.00    +0.000 NA
ATOM     20  H   UNL     1      -8.132  12.393  24.379  0.00  0.00    +0.000 HD
ATOM     21  H   UNL     1      -8.493  13.961  24.750  0.00  0.00    +0.000 HD
ENDBRANCH  17  19
ENDBRANCH   2  13
BRANCH   5  22
ATOM     22  N   UNL     1      -0.163  13.945  22.613  0.00  0.00    +0.000 N 
ATOM     23  H   UNL     1      -0.281  14.074  23.615  0.00  0.00    +0.000 HD
ATOM     24  H   UNL     1       0.679  13.418  22.366  0.00  0.00    +0.000 HD
ENDBRANCH   5  22
BRANCH  11  25
ATOM     25  C   UNL     1      -3.280  11.209  17.814  0.00  0.00    +0.000 C 
ATOM     26  C   UNL     1      -3.103  10.463  16.509  0.00  0.00    +0.000 C 
ATOM     27  C   UNL     1      -3.661   9.742  17.679  0.00  0.00    +0.000 C 
ENDBRANCH  11  25
BRANCH   9  28
ATOM     28  C   UNL     1       1.398  10.961  18.481  0.00  0.00    +0.000 C 
ATOM     29  O   UNL     1       1.646   9.771  18.357  0.00  0.00    +0.000 OA
BRANCH  28  30
ATOM     30  O   UNL     1       2.262  11.920  18.088  0.00  0.00    +0.000 OA
ATOM     31  H   UNL     1       1.952  12.430  17.302  0.00  0.00    +0.000 HD
ENDBRANCH  28  30
ENDBRANCH   9  28
BRANCH   1  32
ATOM     32  O   UNL     1      -4.984  12.959  19.889  0.00  0.00    +0.000 OA
BRANCH  32  34
ATOM     33  C   UNL     1      -7.305  12.059  20.030  0.00  0.00    +0.000 C 
ATOM     34  C   UNL     1      -5.818  11.878  20.237  0.00  0.00    +0.000 C 
ENDBRANCH  32  34
ENDBRANCH   1  32
TORSDOF 8
ENDMDL
MODEL 4
REMARK VINA RESULT:      -5.8      2.415      3.741
REMARK  Name = 
REMARK  9 active torsions:
REMARK  status: ('A' for Active; 'I' for Inactive)
REMARK    1  A    between atoms: C_1  and  C_2
REMARK    2  A    between atoms: C_2  and  O_3
REMARK    3  A    between atoms: O_3  and  C_4
REMARK    4  A    between atoms: C_5  and  N_6
REMARK    5  A    between atoms: C_10  and  N_11
REMARK    6  A    between atoms: C_15  and  N_16
REMARK    7  A    between atoms: C_20  and  C_21
REMARK    8  A    between atoms: C_21  and  O_23
REMARK    9  A    between atoms: N_25  and  C_26
REMARK                            x       y       z     vdW  Elec       q    Type
REMARK                         _______ _______ _______ _____ _____    ______ ____
ROOT
ATOM      1  C   UNL     1      -3.418  12.335  20.121  0.00  0.00    +0.000 A 
ATOM      2  C   UNL     1      -3.513  12.637  21.541  0.00  0.00    +0.000 A 
ATOM      3  C   UNL     1      -2.428  12.266  22.359  0.00  0.00    +0.000 A 
ATOM      4  F   UNL     1      -2.466  12.514  23.684  0.00  0.00    +0.000 F 
ATOM      5  C   UNL     1      -1.298  11.600  21.880  0.00  0.00    +0.000 A 
ATOM      6  C   UNL     1      -1.232  11.281  20.506  0.00  0.00    +0.000 A 
ATOM      7  C   UNL     1      -0.025  10.515  20.044  0.00  0.00    +0.000 A 
ATOM      8  O   UNL     1       0.834  10.082  20.814  0.00  0.00    +0.000 OA
ATOM      9  C   UNL     1       0.144  10.250  18.620  0.00  0.00    +0.000 A 
ATOM     10  C   UNL     1      -0.881  10.575  17.837  0.00  0.00    +0.000 A 
ATOM     11  N   UNL     1      -2.089  11.131  18.209  0.00  0.00    +0.000 N 
ATOM     12  C   UNL     1      -2.290  11.608  19.575  0.00  0.00    +0.000 A 
ENDROOT
BRANCH   2  13
ATOM     13  N   UNL     1      -4.607  13.337  22.078  0.00  0.00    +0.000 N 
ATOM     14  C   UNL     1      -4.619  14.806  22.169  0.00  0.00    +0.000 C 
ATOM     15  C   UNL     1      -6.044  15.299  21.892  0.00  0.00    +0.000 C 
ATOM     16  C   UNL     1      -7.069  14.626  22.802  0.00  0.00    +0.000 C 
ATOM     17  C   UNL     1      -6.937  13.090  22.740  0.00  0.00    +0.000 C 
ATOM     18  C   UNL     1      -5.484  12.682  23.056  0.00  0.00    +0.000 C 
BRANCH  17  19
ATOM     19  N   UNL     1      -7.916  12.473  23.630  0.00  0.00    +0.000 NA
ATOM     20  H   UNL     1      -7.807  11.453  23.641  0.00  0.00    +0.000 HD
ATOM     21  H   UNL     1      -8.853  12.680  23.284  0.00  0.00    +0.000 HD
ENDBRANCH  17  19
ENDBRANCH   2  13
BRANCH   5  22
ATOM     22  N   UNL     1      -0.188  11.484  22.754  0.00  0.00    +0.000 N 
ATOM     23  H   UNL     1       0.711  11.519  22.280  0.00  0.00    +0.000 HD
ATOM     24  H   UNL     1      -0.243  12.100  23.570  0.00  0.00    +0.000 HD
ENDBRANCH   5  22
BRANCH  11  25
ATOM     25  C   UNL     1      -2.963  11.372  17.052  0.00  0.00    +0.000 C 
ATOM     26  C   UNL     1      -2.955  10.722  15.684  0.00  0.00    +0.000 C 
ATOM     27  C   UNL     1      -3.991  10.318  16.666  0.00  0.00    +0.000 C 
ENDBRANCH  11  25
BRANCH   9  28
ATOM     28  C   UNL     1       1.327   9.614  17.998  0.00  0.00    +0.000 C 
ATOM     29  O   UNL     1       1.522   8.407  18.005  0.00  0.00    +0.000 OA
BRANCH  28  30
ATOM     30  O   UNL     1       2.188  10.477  17.420  0.00  0.00    +0.000 OA
ATOM     31  H   UNL     1       3.088  10.465  17.824  0.00  0.00    +0.000 HD
ENDBRANCH  28  30
ENDBRANCH   9  28
BRANCH   1  32
ATOM     32  O   UNL     1      -4.542  12.800  19.447  0.00  0.00    +0.000 OA
BRANCH  32  34
ATOM     33  C   UNL     1      -6.739  12.317  18.371  0.00  0.00    +0.000 C 
ATOM     34  C   UNL     1      -5.694  11.990  19.414  0.00  0.00    +0.000 C 
ENDBRANCH  32  34
ENDBRANCH   1  32
TORSDOF 8
ENDMDL
MODEL 5
REMARK VINA RESULT:      -5.8      4.396      5.248
REMARK  Name = 
REMARK  9 active torsions:
REMARK  status: ('A' for Active; 'I' for Inactive)
REMARK    1  A    between atoms: C_1  and  C_2
REMARK    2  A    between atoms: C_2  and  O_3
REMARK    3  A    between atoms: O_3  and  C_4
REMARK    4  A    between atoms: C_5  and  N_6
REMARK    5  A    between atoms: C_10  and  N_11
REMARK    6  A    between atoms: C_15  and  N_16
REMARK    7  A    between atoms: C_20  and  C_21
REMARK    8  A    between atoms: C_21  and  O_23
REMARK    9  A    between atoms: N_25  and  C_26
REMARK                            x       y       z     vdW  Elec       q    Type
REMARK                         _______ _______ _______ _____ _____    ______ ____
ROOT
ATOM      1  C   UNL     1      -0.782  13.316  22.316  0.00  0.00    +0.000 A 
ATOM      2  C   UNL     1      -0.686  14.765  22.400  0.00  0.00    +0.000 A 
ATOM      3  C   UNL     1       0.053  15.426  21.400  0.00  0.00    +0.000 A 
ATOM      4  F   UNL     1       0.181  16.768  21.432  0.00  0.00    +0.000 F 
ATOM      5  C   UNL     1       0.717  14.760  20.368  0.00  0.00    +0.000 A 
ATOM      6  C   UNL     1       0.646  13.350  20.317  0.00  0.00    +0.000 A 
ATOM      7  C   UNL     1       1.420  12.671  19.224  0.00  0.00    +0.000 A 
ATOM      8  O   UNL     1       2.172  13.273  18.455  0.00  0.00    +0.000 OA
ATOM      9  C   UNL     1       1.299  11.226  19.061  0.00  0.00    +0.000 A 
ATOM     10  C   UNL     1       0.623  10.585  20.010  0.00  0.00    +0.000 A 
ATOM     11  N   UNL     1       0.022  11.120  21.133  0.00  0.00    +0.000 N 
ATOM     12  C   UNL     1      -0.080  12.567  21.294  0.00  0.00    +0.000 A 
ENDROOT
BRANCH   2  13
ATOM     13  N   UNL     1      -1.361  15.496  23.393  0.00  0.00    +0.000 N 
ATOM     14  C   UNL     1      -2.575  16.274  23.094  0.00  0.00    +0.000 C 
ATOM     15  C   UNL     1      -3.525  16.170  24.292  0.00  0.00    +0.000 C 
ATOM     16  C   UNL     1      -2.848  16.580  25.597  0.00  0.00    +0.000 C 
ATOM     17  C   UNL     1      -1.531  15.804  25.802  0.00  0.00    +0.000 C 
ATOM     18  C   UNL     1      -0.626  15.984  24.566  0.00  0.00    +0.000 C 
BRANCH  17  19
ATOM     19  N   UNL     1      -0.897  16.226  27.048  0.00  0.00    +0.000 NA
ATOM     20  H   UNL     1      -1.450  15.926  27.858  0.00  0.00    +0.000 HD
ATOM     21  H   UNL     1      -0.850  17.244  27.066  0.00  0.00    +0.000 HD
ENDBRANCH  17  19
ENDBRANCH   2  13
BRANCH   5  22
ATOM     22  N   UNL     1       1.233  15.547  19.307  0.00  0.00    +0.000 N 
ATOM     23  H   UNL     1       2.054  15.143  18.862  0.00  0.00    +0.000 HD
ATOM     24  H   UNL     1       0.519  15.857  18.642  0.00  0.00    +0.000 HD
ENDBRANCH   5  22
BRANCH  11  25
ATOM     25  C   UNL     1      -0.657  10.092  21.934  0.00  0.00    +0.000 C 
ATOM     26  C   UNL     1      -0.316   8.628  22.119  0.00  0.00    +0.000 C 
ATOM     27  C   UNL     1       0.007   9.584  23.207  0.00  0.00    +0.000 C 
ENDBRANCH  11  25
BRANCH   9  28
ATOM     28  C   UNL     1       1.903  10.430  17.969  0.00  0.00    +0.000 C 
ATOM     29  O   UNL     1       1.754   9.222  17.857  0.00  0.00    +0.000 OA
BRANCH  28  30
ATOM     30  O   UNL     1       2.644  11.147  17.098  0.00  0.00    +0.000 OA
ATOM     31  H   UNL     1       3.138  11.890  17.520  0.00  0.00    +0.000 HD
ENDBRANCH  28  30
ENDBRANCH   9  28
BRANCH   1  32
ATOM     32  O   UNL     1      -1.576  12.819  23.345  0.00  0.00    +0.000 OA
BRANCH  32  34
ATOM     33  C   UNL     1      -3.894  12.502  24.206  0.00  0.00    +0.000 C 
ATOM     34  C   UNL     1      -2.909  12.466  23.059  0.00  0.00    +0.000 C 
ENDBRANCH  32  34
ENDBRANCH   1  32
TORSDOF 8
ENDMDL
MODEL 6
REMARK VINA RESULT:      -5.7      2.378      6.154
REMARK  Name = 
REMARK  9 active torsions:
REMARK  status: ('A' for Active; 'I' for Inactive)
REMARK    1  A    between atoms: C_1  and  C_2
REMARK    2  A    between atoms: C_2  and  O_3
REMARK    3  A    between atoms: O_3  and  C_4
REMARK    4  A    between atoms: C_5  and  N_6
REMARK    5  A    between atoms: C_10  and  N_11
REMARK    6  A    between atoms: C_15  and  N_16
REMARK    7  A    between atoms: C_20  and  C_21
REMARK    8  A    between atoms: C_21  and  O_23
REMARK    9  A    between atoms: N_25  and  C_26
REMARK                            x       y       z     vdW  Elec       q    Type
REMARK                         _______ _______ _______ _____ _____    ______ ____
ROOT
ATOM      1  C   UNL     1      -2.763  12.349  19.773  0.00  0.00    +0.000 A 
ATOM      2  C   UNL     1      -1.381  12.553  20.180  0.00  0.00    +0.000 A 
ATOM      3  C   UNL     1      -1.143  12.883  21.528  0.00  0.00    +0.000 A 
ATOM      4  F   UNL     1       0.118  13.091  21.959  0.00  0.00    +0.000 F 
ATOM      5  C   UNL     1      -2.161  13.054  22.469  0.00  0.00    +0.000 A 
ATOM      6  C   UNL     1      -3.501  12.887  22.054  0.00  0.00    +0.000 A 
ATOM      7  C   UNL     1      -4.566  13.136  23.084  0.00  0.00    +0.000 A 
ATOM      8  O   UNL     1      -4.325  13.563  24.214  0.00  0.00    +0.000 OA
ATOM      9  C   UNL     1      -5.959  12.878  22.739  0.00  0.00    +0.000 A 
ATOM     10  C   UNL     1      -6.204  12.587  21.464  0.00  0.00    +0.000 A 
ATOM     11  N   UNL     1      -5.297  12.502  20.425  0.00  0.00    +0.000 N 
ATOM     12  C   UNL     1      -3.863  12.554  20.693  0.00  0.00    +0.000 A 
ENDROOT
BRANCH   2  13
ATOM     13  N   UNL     1      -0.311  12.360  19.291  0.00  0.00    +0.000 N 
ATOM     14  C   UNL     1       0.202  13.450  18.444  0.00  0.00    +0.000 C 
ATOM     15  C   UNL     1       1.724  13.306  18.335  0.00  0.00    +0.000 C 
ATOM     16  C   UNL     1       2.135  11.917  17.852  0.00  0.00    +0.000 C 
ATOM     17  C   UNL     1       1.484  10.818  18.716  0.00  0.00    +0.000 C 
ATOM     18  C   UNL     1      -0.044  11.022  18.748  0.00  0.00    +0.000 C 
BRANCH  17  19
ATOM     19  N   UNL     1       1.880   9.502  18.222  0.00  0.00    +0.000 NA
ATOM     20  H   UNL     1       2.323   9.577  17.300  0.00  0.00    +0.000 HD
ATOM     21  H   UNL     1       1.046   8.924  18.118  0.00  0.00    +0.000 HD
ENDBRANCH  17  19
ENDBRANCH   2  13
BRANCH   5  22
ATOM     22  N   UNL     1      -1.782  13.162  23.831  0.00  0.00    +0.000 N 
ATOM     23  H   UNL     1      -2.570  13.246  24.469  0.00  0.00    +0.000 HD
ATOM     24  H   UNL     1      -1.094  12.462  24.122  0.00  0.00    +0.000 HD
ENDBRANCH   5  22
BRANCH  11  25
ATOM     25  C   UNL     1      -5.946  12.128  19.160  0.00  0.00    +0.000 C 
ATOM     26  C   UNL     1      -7.364  12.379  18.691  0.00  0.00    +0.000 C 
ATOM     27  C   UNL     1      -6.267  13.214  18.143  0.00  0.00    +0.000 C 
ENDBRANCH  11  25
BRANCH   9  28
ATOM     28  C   UNL     1      -7.106  12.963  23.671  0.00  0.00    +0.000 C 
ATOM     29  O   UNL     1      -7.917  12.061  23.823  0.00  0.00    +0.000 OA
BRANCH  28  30
ATOM     30  O   UNL     1      -7.193  14.128  24.346  0.00  0.00    +0.000 OA
ATOM     31  H   UNL     1      -7.767  14.077  25.147  0.00  0.00    +0.000 HD
ENDBRANCH  28  30
ENDBRANCH   9  28
BRANCH   1  32
ATOM     32  O   UNL     1      -2.829  11.989  18.431  0.00  0.00    +0.000 OA
BRANCH  32  34
ATOM     33  C   UNL     1      -3.309  10.332  16.631  0.00  0.00    +0.000 C 
ATOM     34  C   UNL     1      -3.231  10.681  18.101  0.00  0.00    +0.000 C 
ENDBRANCH  32  34
ENDBRANCH   1  32
TORSDOF 8
ENDMDL
MODEL 7
REMARK VINA RESULT:      -5.6      2.588      5.081
REMARK  Name = 
REMARK  9 active torsions:
REMARK  status: ('A' for Active; 'I' for Inactive)
REMARK    1  A    between atoms: C_1  and  C_2
REMARK    2  A    between atoms: C_2  and  O_3
REMARK    3  A    between atoms: O_3  and  C_4
REMARK    4  A    between atoms: C_5  and  N_6
REMARK    5  A    between atoms: C_10  and  N_11
REMARK    6  A    between atoms: C_15  and  N_16
REMARK    7  A    between atoms: C_20  and  C_21
REMARK    8  A    between atoms: C_21  and  O_23
REMARK    9  A    between atoms: N_25  and  C_26
REMARK                            x       y       z     vdW  Elec       q    Type
REMARK                         _______ _______ _______ _____ _____    ______ ____
ROOT
ATOM      1  C   UNL     1      -3.228  12.883  20.305  0.00  0.00    +0.000 A 
ATOM      2  C   UNL     1      -4.550  12.649  19.745  0.00  0.00    +0.000 A 
ATOM      3  C   UNL     1      -4.661  11.686  18.723  0.00  0.00    +0.000 A 
ATOM      4  F   UNL     1      -5.861  11.433  18.163  0.00  0.00    +0.000 F 
ATOM      5  C   UNL     1      -3.570  10.982  18.208  0.00  0.00    +0.000 A 
ATOM      6  C   UNL     1      -2.287  11.244  18.736  0.00  0.00    +0.000 A 
ATOM      7  C   UNL     1      -1.135  10.506  18.114  0.00  0.00    +0.000 A 
ATOM      8  O   UNL     1      -1.253   9.779  17.126  0.00  0.00    +0.000 OA
ATOM      9  C   UNL     1       0.198  10.660  18.688  0.00  0.00    +0.000 A 
ATOM     10  C   UNL     1       0.324  11.582  19.639  0.00  0.00    +0.000 A 
ATOM     11  N   UNL     1      -0.654  12.414  20.148  0.00  0.00    +0.000 N 
ATOM     12  C   UNL     1      -2.053  12.216  19.782  0.00  0.00    +0.000 A 
ENDROOT
BRANCH   2  13
ATOM     13  N   UNL     1      -5.692  13.298  20.244  0.00  0.00    +0.000 N 
ATOM     14  C   UNL     1      -6.712  12.581  21.027  0.00  0.00    +0.000 C 
ATOM     15  C   UNL     1      -7.237  13.521  22.118  0.00  0.00    +0.000 C 
ATOM     16  C   UNL     1      -7.733  14.845  21.542  0.00  0.00    +0.000 C 
ATOM     17  C   UNL     1      -6.657  15.496  20.650  0.00  0.00    +0.000 C 
ATOM     18  C   UNL     1      -6.206  14.494  19.567  0.00  0.00    +0.000 C 
BRANCH  17  19
ATOM     19  N   UNL     1      -7.163  16.750  20.100  0.00  0.00    +0.000 NA
ATOM     20  H   UNL     1      -6.404  17.433  19.991  0.00  0.00    +0.000 HD
ATOM     21  H   UNL     1      -7.843  17.145  20.750  0.00  0.00    +0.000 HD
ENDBRANCH  17  19
ENDBRANCH   2  13
BRANCH   5  22
ATOM     22  N   UNL     1      -3.844   9.889  17.348  0.00  0.00    +0.000 N 
ATOM     23  H   UNL     1      -4.417   9.165  17.776  0.00  0.00    +0.000 HD
ATOM     24  H   UNL     1      -4.170  10.171  16.419  0.00  0.00    +0.000 HD
ENDBRANCH   5  22
BRANCH  11  25
ATOM     25  C   UNL     1      -0.134  13.284  21.213  0.00  0.00    +0.000 C 
ATOM     26  C   UNL     1       1.210  13.972  21.328  0.00  0.00    +0.000 C 
ATOM     27  C   UNL     1       0.022  14.774  20.944  0.00  0.00    +0.000 C 
ENDBRANCH  11  25
BRANCH   9  28
ATOM     28  C   UNL     1       1.407   9.917  18.266  0.00  0.00    +0.000 C 
ATOM     29  O   UNL     1       1.655   8.776  18.628  0.00  0.00    +0.000 OA
BRANCH  28  30
ATOM     30  O   UNL     1       2.228  10.605  17.445  0.00  0.00    +0.000 OA
ATOM     31  H   UNL     1       2.323  11.556  17.691  0.00  0.00    +0.000 HD
ENDBRANCH  28  30
ENDBRANCH   9  28
BRANCH   1  32
ATOM     32  O   UNL     1      -3.290  13.826  21.327  0.00  0.00    +0.000 OA
BRANCH  32  34
ATOM     33  C   UNL     1      -2.839  12.189  23.152  0.00  0.00    +0.000 C 
ATOM     34  C   UNL     1      -3.596  13.390  22.630  0.00  0.00    +0.000 C 
ENDBRANCH  32  34
ENDBRANCH   1  32
TORSDOF 8
ENDMDL
MODEL 8
REMARK VINA RESULT:      -5.6     11.372     13.029
REMARK  Name = 
REMARK  9 active torsions:
REMARK  status: ('A' for Active; 'I' for Inactive)
REMARK    1  A    between atoms: C_1  and  C_2
REMARK    2  A    between atoms: C_2  and  O_3
REMARK    3  A    between atoms: O_3  and  C_4
REMARK    4  A    between atoms: C_5  and  N_6
REMARK    5  A    between atoms: C_10  and  N_11
REMARK    6  A    between atoms: C_15  and  N_16
REMARK    7  A    between atoms: C_20  and  C_21
REMARK    8  A    between atoms: C_21  and  O_23
REMARK    9  A    between atoms: N_25  and  C_26
REMARK                            x       y       z     vdW  Elec       q    Type
REMARK                         _______ _______ _______ _____ _____    ______ ____
ROOT
ATOM      1  C   UNL     1       8.575  14.727  22.005  0.00  0.00    +0.000 A 
ATOM      2  C   UNL     1       8.028  13.786  22.970  0.00  0.00    +0.000 A 
ATOM      3  C   UNL     1       8.227  12.413  22.725  0.00  0.00    +0.000 A 
ATOM      4  F   UNL     1       7.735  11.496  23.582  0.00  0.00    +0.000 F 
ATOM      5  C   UNL     1       8.887  11.922  21.596  0.00  0.00    +0.000 A 
ATOM      6  C   UNL     1       9.383  12.845  20.648  0.00  0.00    +0.000 A 
ATOM      7  C   UNL     1      10.036  12.272  19.422  0.00  0.00    +0.000 A 
ATOM      8  O   UNL     1      10.063  11.066  19.173  0.00  0.00    +0.000 OA
ATOM      9  C   UNL     1      10.657  13.178  18.462  0.00  0.00    +0.000 A 
ATOM     10  C   UNL     1      10.459  14.477  18.668  0.00  0.00    +0.000 A 
ATOM     11  N   UNL     1       9.733  15.074  19.680  0.00  0.00    +0.000 N 
ATOM     12  C   UNL     1       9.231  14.276  20.794  0.00  0.00    +0.000 A 
ENDROOT
BRANCH   2  13
ATOM     13  N   UNL     1       7.387  14.217  24.144  0.00  0.00    +0.000 N 
ATOM     14  C   UNL     1       7.988  14.022  25.473  0.00  0.00    +0.000 C 
ATOM     15  C   UNL     1       7.658  15.243  26.340  0.00  0.00    +0.000 C 
ATOM     16  C   UNL     1       6.158  15.523  26.387  0.00  0.00    +0.000 C 
ATOM     17  C   UNL     1       5.569  15.614  24.965  0.00  0.00    +0.000 C 
ATOM     18  C   UNL     1       5.924  14.338  24.174  0.00  0.00    +0.000 C 
BRANCH  17  19
ATOM     19  N   UNL     1       4.133  15.865  25.039  0.00  0.00    +0.000 NA
ATOM     20  H   UNL     1       3.609  15.138  24.540  0.00  0.00    +0.000 HD
ATOM     21  H   UNL     1       3.930  16.757  24.587  0.00  0.00    +0.000 HD
ENDBRANCH  17  19
ENDBRANCH   2  13
BRANCH   5  22
ATOM     22  N   UNL     1       9.216  10.544  21.578  0.00  0.00    +0.000 N 
ATOM     23  H   UNL     1       8.565   9.962  22.100  0.00  0.00    +0.000 HD
ATOM     24  H   UNL     1       9.425  10.185  20.642  0.00  0.00    +0.000 HD
ENDBRANCH   5  22
BRANCH  11  25
ATOM     25  C   UNL     1       9.768  16.541  19.588  0.00  0.00    +0.000 C 
ATOM     26  C   UNL     1       9.965  17.429  18.377  0.00  0.00    +0.000 C 
ATOM     27  C   UNL     1       8.601  17.271  18.938  0.00  0.00    +0.000 C 
ENDBRANCH  11  25
BRANCH   9  28
ATOM     28  C   UNL     1      11.435  12.767  17.271  0.00  0.00    +0.000 C 
ATOM     29  O   UNL     1      11.472  13.416  16.236  0.00  0.00    +0.000 OA
BRANCH  28  30
ATOM     30  O   UNL     1      12.104  11.604  17.414  0.00  0.00    +0.000 OA
ATOM     31  H   UNL     1      11.559  10.808  17.208  0.00  0.00    +0.000 HD
ENDBRANCH  28  30
ENDBRANCH   9  28
BRANCH   1  32
ATOM     32  O   UNL     1       8.334  16.036  22.409  0.00  0.00    +0.000 OA
BRANCH  32  34
ATOM     33  C   UNL     1      10.741  16.189  23.040  0.00  0.00    +0.000 C 
ATOM     34  C   UNL     1       9.325  16.708  23.150  0.00  0.00    +0.000 C 
ENDBRANCH  32  34
ENDBRANCH   1  32
TORSDOF 8
ENDMDL
MODEL 9
REMARK VINA RESULT:      -5.6      3.062      4.784
REMARK  Name = 
REMARK  9 active torsions:
REMARK  status: ('A' for Active; 'I' for Inactive)
REMARK    1  A    between atoms: C_1  and  C_2
REMARK    2  A    between atoms: C_2  and  O_3
REMARK    3  A    between atoms: O_3  and  C_4
REMARK    4  A    between atoms: C_5  and  N_6
REMARK    5  A    between atoms: C_10  and  N_11
REMARK    6  A    between atoms: C_15  and  N_16
REMARK    7  A    between atoms: C_20  and  C_21
REMARK    8  A    between atoms: C_21  and  O_23
REMARK    9  A    between atoms: N_25  and  C_26
REMARK                            x       y       z     vdW  Elec       q    Type
REMARK                         _______ _______ _______ _____ _____    ______ ____
ROOT
ATOM      1  C   UNL     1      -1.828  13.848  20.676  0.00  0.00    +0.000 A 
ATOM      2  C   UNL     1      -0.645  13.815  19.829  0.00  0.00    +0.000 A 
ATOM      3  C   UNL     1      -0.715  13.055  18.645  0.00  0.00    +0.000 A 
ATOM      4  F   UNL     1       0.353  12.982  17.826  0.00  0.00    +0.000 F 
ATOM      5  C   UNL     1      -1.840  12.316  18.271  0.00  0.00    +0.000 A 
ATOM      6  C   UNL     1      -2.970  12.329  19.120  0.00  0.00    +0.000 A 
ATOM      7  C   UNL     1      -4.136  11.475  18.708  0.00  0.00    +0.000 A 
ATOM      8  O   UNL     1      -4.106  10.712  17.741  0.00  0.00    +0.000 OA
ATOM      9  C   UNL     1      -5.366  11.531  19.491  0.00  0.00    +0.000 A 
ATOM     10  C   UNL     1      -5.309  12.226  20.623  0.00  0.00    +0.000 A 
ATOM     11  N   UNL     1      -4.225  12.901  21.151  0.00  0.00    +0.000 N 
ATOM     12  C   UNL     1      -3.007  13.068  20.362  0.00  0.00    +0.000 A 
ENDROOT
BRANCH   2  13
ATOM     13  N   UNL     1       0.504  14.565  20.130  0.00  0.00    +0.000 N 
ATOM     14  C   UNL     1       0.773  15.864  19.492  0.00  0.00    +0.000 C 
ATOM     15  C   UNL     1       1.424  16.789  20.526  0.00  0.00    +0.000 C 
ATOM     16  C   UNL     1       2.661  16.157  21.161  0.00  0.00    +0.000 C 
ATOM     17  C   UNL     1       2.338  14.756  21.720  0.00  0.00    +0.000 C 
ATOM     18  C   UNL     1       1.714  13.887  20.610  0.00  0.00    +0.000 C 
BRANCH  17  19
ATOM     19  N   UNL     1       3.540  14.169  22.305  0.00  0.00    +0.000 NA
ATOM     20  H   UNL     1       3.923  13.438  21.695  0.00  0.00    +0.000 HD
ATOM     21  H   UNL     1       3.295  13.733  23.194  0.00  0.00    +0.000 HD
ENDBRANCH  17  19
ENDBRANCH   2  13
BRANCH   5  22
ATOM     22  N   UNL     1      -1.865  11.781  16.959  0.00  0.00    +0.000 N 
ATOM     23  H   UNL     1      -2.292  10.860  16.902  0.00  0.00    +0.000 HD
ATOM     24  H   UNL     1      -2.215  12.437  16.255  0.00  0.00    +0.000 HD
ENDBRANCH   5  22
BRANCH  11  25
ATOM     25  C   UNL     1      -4.560  13.577  22.412  0.00  0.00    +0.000 C 
ATOM     26  C   UNL     1      -5.708  13.325  23.368  0.00  0.00    +0.000 C 
ATOM     27  C   UNL     1      -4.353  12.839  23.727  0.00  0.00    +0.000 C 
ENDBRANCH  11  25
BRANCH   9  28
ATOM     28  C   UNL     1      -6.632  10.844  19.152  0.00  0.00    +0.000 C 
ATOM     29  O   UNL     1      -7.206  10.079  19.913  0.00  0.00    +0.000 OA
BRANCH  28  30
ATOM     30  O   UNL     1      -7.110  11.125  17.922  0.00  0.00    +0.000 OA
ATOM     31  H   UNL     1      -6.588  10.711  17.193  0.00  0.00    +0.000 HD
ENDBRANCH  28  30
ENDBRANCH   9  28
BRANCH   1  32
ATOM     32  O   UNL     1      -1.616  14.671  21.778  0.00  0.00    +0.000 OA
BRANCH  32  34
ATOM     33  C   UNL     1      -1.242  14.904  24.232  0.00  0.00    +0.000 C 
ATOM     34  C   UNL     1      -1.105  14.099  22.959  0.00  0.00    +0.000 C 
ENDBRANCH  32  34
ENDBRANCH   1  32
TORSDOF 8
ENDMDL
