MODEL 1
REMARK VINA RESULT:      -8.4      0.000      0.000
REMARK  Name = 
REMARK  8 active torsions:
REMARK  status: ('A' for Active; 'I' for Inactive)
REMARK    1  A    between atoms: C_1  and  C_2
REMARK    2  A    between atoms: C_7  and  C_8
REMARK    3  A    between atoms: C_8  and  C_9
REMARK    4  A    between atoms: C_8  and  N_11
REMARK    5  A    between atoms: C_15  and  C_17
REMARK    6  A    between atoms: C_17  and  C_18
REMARK    7  A    between atoms: C_18  and  C_19
REMARK    8  A    between atoms: C_18  and  N_25
REMARK                            x       y       z     vdW  Elec       q    Type
REMARK                         _______ _______ _______ _____ _____    ______ ____
ROOT
ATOM      1  N   UNL     1      -0.367  11.384  20.497  0.00  0.00    +0.000 NA
ATOM      2  C   UNL     1      -0.355  11.348  19.039  0.00  0.00    +0.000 C 
ATOM      3  C   UNL     1       0.750  10.477  18.390  0.00  0.00    +0.000 C 
ATOM      4  N   UNL     1       1.090   9.228  19.084  0.00  0.00    +0.000 N 
ATOM      5  C   UNL     1       2.032   8.391  18.441  0.00  0.00    +0.000 C 
ATOM      6  O   UNL     1       2.339   8.550  17.260  0.00  0.00    +0.000 OA
ATOM      7  C   UNL     1       0.898   9.190  20.535  0.00  0.00    +0.000 C 
ATOM      8  C   UNL     1      -0.246  10.063  21.084  0.00  0.00    +0.000 C 
ENDROOT
BRANCH   1   9
ATOM      9  C   UNL     1       0.025  12.583  21.266  0.00  0.00    +0.000 C 
BRANCH   9  16
ATOM     10  C   UNL     1       2.669  13.447  19.856  0.00  0.00    +0.000 C 
ATOM     11  C   UNL     1       1.435  14.296  19.917  0.00  0.00    +0.000 A 
ATOM     12  N   UNL     1       1.605  15.499  19.299  0.00  0.00    +0.000 NA
ATOM     13  C   UNL     1       0.525  16.269  19.086  0.00  0.00    +0.000 A 
ATOM     14  C   UNL     1      -0.748  15.885  19.438  0.00  0.00    +0.000 A 
ATOM     15  C   UNL     1      -0.905  14.682  20.125  0.00  0.00    +0.000 A 
ATOM     16  C   UNL     1       0.197  13.856  20.419  0.00  0.00    +0.000 A 
ENDBRANCH   9  16
BRANCH   9  17
ATOM     17  C   UNL     1      -0.890  12.808  22.459  0.00  0.00    +0.000 C 
ATOM     18  N   UNL     1      -1.650  12.994  23.448  0.00  0.00    +0.000 NA
ENDBRANCH   9  17
ENDBRANCH   1   9
BRANCH   5  19
ATOM     19  C   UNL     1       2.582   7.230  19.267  0.00  0.00    +0.000 C 
BRANCH  19  20
ATOM     20  C   UNL     1       3.107   6.003  18.471  0.00  0.00    +0.000 C 
BRANCH  20  21
ATOM     21  N   UNL     1       2.614   4.749  19.177  0.00  0.00    +0.000 NA
ATOM     22  C   UNL     1       1.745   4.996  20.357  0.00  0.00    +0.000 C 
ATOM     23  C   UNL     1       1.245   3.619  20.776  0.00  0.00    +0.000 C 
ATOM     24  C   UNL     1       0.780   2.934  19.507  0.00  0.00    +0.000 C 
ATOM     25  S   UNL     1       1.866   3.530  18.218  0.00  0.00    +0.000 S 
ATOM     26  O   UNL     1       1.026   4.159  17.221  0.00  0.00    +0.000 OA
ATOM     27  O   UNL     1       2.848   2.512  17.922  0.00  0.00    +0.000 OA
ENDBRANCH  20  21
BRANCH  20  28
ATOM     28  C   UNL     1       4.626   6.068  18.310  0.00  0.00    +0.000 A 
ATOM     29  C   UNL     1       5.237   6.765  17.256  0.00  0.00    +0.000 A 
ATOM     30  C   UNL     1       6.626   6.759  17.108  0.00  0.00    +0.000 A 
ATOM     31  C   UNL     1       7.426   6.075  18.024  0.00  0.00    +0.000 A 
ATOM     32  C   UNL     1       6.840   5.417  19.101  0.00  0.00    +0.000 A 
ATOM     33  C   UNL     1       5.452   5.414  19.244  0.00  0.00    +0.000 A 
ENDBRANCH  20  28
ENDBRANCH  19  20
ENDBRANCH   5  19
TORSDOF 7
ENDMDL
MODEL 2
REMARK VINA RESULT:      -8.2      0.658      1.031
REMARK  Name = 
REMARK  8 active torsions:
REMARK  status: ('A' for Active; 'I' for Inactive)
REMARK    1  A    between atoms: C_1  and  C_2
REMARK    2  A    between atoms: C_7  and  C_8
REMARK    3  A    between atoms: C_8  and  C_9
REMARK    4  A    between atoms: C_8  and  N_11
REMARK    5  A    between atoms: C_15  and  C_17
REMARK    6  A    between atoms: C_17  and  C_18
REMARK    7  A    between atoms: C_18  and  C_19
REMARK    8  A    between atoms: C_18  and  N_25
REMARK                            x       y       z     vdW  Elec       q    Type
REMARK                         _______ _______ _______ _____ _____    ______ ____
ROOT
ATOM      1  N   UNL     1      -0.047  11.167  20.125  0.00  0.00    +0.000 NA
ATOM      2  C   UNL     1       0.155  11.176  18.682  0.00  0.00    +0.000 C 
ATOM      3  C   UNL     1       1.280  10.254  18.147  0.00  0.00    +0.000 C 
ATOM      4  N   UNL     1       1.447   8.964  18.830  0.00  0.00    +0.000 N 
ATOM      5  C   UNL     1       2.412   8.087  18.282  0.00  0.00    +0.000 C 
ATOM      6  O   UNL     1       2.883   8.262  17.159  0.00  0.00    +0.000 OA
ATOM      7  C   UNL     1       1.063   8.894  20.240  0.00  0.00    +0.000 C 
ATOM      8  C   UNL     1      -0.087   9.823  20.670  0.00  0.00    +0.000 C 
ENDROOT
BRANCH   1   9
ATOM      9  C   UNL     1       0.313  12.313  20.987  0.00  0.00    +0.000 C 
BRANCH   9  16
ATOM     10  C   UNL     1       2.827  13.551  19.618  0.00  0.00    +0.000 C 
ATOM     11  C   UNL     1       1.521  14.270  19.782  0.00  0.00    +0.000 A 
ATOM     12  N   UNL     1       1.563  15.536  19.279  0.00  0.00    +0.000 NA
ATOM     13  C   UNL     1       0.411  16.217  19.159  0.00  0.00    +0.000 A 
ATOM     14  C   UNL     1      -0.811  15.683  19.496  0.00  0.00    +0.000 A 
ATOM     15  C   UNL     1      -0.838  14.412  20.067  0.00  0.00    +0.000 A 
ATOM     16  C   UNL     1       0.344  13.670  20.262  0.00  0.00    +0.000 A 
ENDBRANCH   9  16
BRANCH   9  17
ATOM     17  C   UNL     1      -0.536  12.356  22.246  0.00  0.00    +0.000 C 
ATOM     18  N   UNL     1      -1.241  12.391  23.292  0.00  0.00    +0.000 NA
ENDBRANCH   9  17
ENDBRANCH   1   9
BRANCH   5  19
ATOM     19  C   UNL     1       2.776   6.867  19.126  0.00  0.00    +0.000 C 
BRANCH  19  20
ATOM     20  C   UNL     1       3.232   5.600  18.350  0.00  0.00    +0.000 C 
BRANCH  20  21
ATOM     21  N   UNL     1       2.702   4.386  19.096  0.00  0.00    +0.000 NA
ATOM     22  C   UNL     1       1.394   4.588  19.771  0.00  0.00    +0.000 C 
ATOM     23  C   UNL     1       0.996   3.209  20.286  0.00  0.00    +0.000 C 
ATOM     24  C   UNL     1       1.219   2.248  19.136  0.00  0.00    +0.000 C 
ATOM     25  S   UNL     1       2.630   2.890  18.245  0.00  0.00    +0.000 S 
ATOM     26  O   UNL     1       2.190   3.137  16.888  0.00  0.00    +0.000 OA
ATOM     27  O   UNL     1       3.797   2.110  18.586  0.00  0.00    +0.000 OA
ENDBRANCH  20  21
BRANCH  20  28
ATOM     28  C   UNL     1       4.749   5.597  18.157  0.00  0.00    +0.000 A 
ATOM     29  C   UNL     1       5.640   5.445  19.230  0.00  0.00    +0.000 A 
ATOM     30  C   UNL     1       7.020   5.500  19.025  0.00  0.00    +0.000 A 
ATOM     31  C   UNL     1       7.531   5.685  17.740  0.00  0.00    +0.000 A 
ATOM     32  C   UNL     1       6.663   5.792  16.657  0.00  0.00    +0.000 A 
ATOM     33  C   UNL     1       5.283   5.746  16.863  0.00  0.00    +0.000 A 
ENDBRANCH  20  28
ENDBRANCH  19  20
ENDBRANCH   5  19
TORSDOF 7
ENDMDL
MODEL 3
REMARK VINA RESULT:      -8.0      1.374      1.826
REMARK  Name = 
REMARK  8 active torsions:
REMARK  status: ('A' for Active; 'I' for Inactive)
REMARK    1  A    between atoms: C_1  and  C_2
REMARK    2  A    between atoms: C_7  and  C_8
REMARK    3  A    between atoms: C_8  and  C_9
REMARK    4  A    between atoms: C_8  and  N_11
REMARK    5  A    between atoms: C_15  and  C_17
REMARK    6  A    between atoms: C_17  and  C_18
REMARK    7  A    between atoms: C_18  and  C_19
REMARK    8  A    between atoms: C_18  and  N_25
REMARK                            x       y       z     vdW  Elec       q    Type
REMARK                         _______ _______ _______ _____ _____    ______ ____
ROOT
ATOM      1  N   UNL     1       0.083  10.415  20.373  0.00  0.00    +0.000 NA
ATOM      2  C   UNL     1       0.122  10.480  18.917  0.00  0.00    +0.000 C 
ATOM      3  C   UNL     1       1.303   9.743  18.236  0.00  0.00    +0.000 C 
ATOM      4  N   UNL     1       1.727   8.479  18.853  0.00  0.00    +0.000 N 
ATOM      5  C   UNL     1       2.743   7.763  18.177  0.00  0.00    +0.000 C 
ATOM      6  O   UNL     1       3.058   8.025  17.017  0.00  0.00    +0.000 OA
ATOM      7  C   UNL     1       1.514   8.328  20.293  0.00  0.00    +0.000 C 
ATOM      8  C   UNL     1       0.296   9.071  20.873  0.00  0.00    +0.000 C 
ENDROOT
BRANCH   1   9
ATOM      9  C   UNL     1       0.366  11.586  21.229  0.00  0.00    +0.000 C 
BRANCH   9  16
ATOM     10  C   UNL     1      -2.057  13.256  20.196  0.00  0.00    +0.000 C 
ATOM     11  C   UNL     1      -0.625  13.577  19.888  0.00  0.00    +0.000 A 
ATOM     12  N   UNL     1      -0.502  14.674  19.090  0.00  0.00    +0.000 NA
ATOM     13  C   UNL     1       0.718  15.205  18.913  0.00  0.00    +0.000 A 
ATOM     14  C   UNL     1       1.847  14.707  19.523  0.00  0.00    +0.000 A 
ATOM     15  C   UNL     1       1.722  13.548  20.288  0.00  0.00    +0.000 A 
ATOM     16  C   UNL     1       0.474  12.920  20.470  0.00  0.00    +0.000 A 
ENDBRANCH   9  16
BRANCH   9  17
ATOM     17  C   UNL     1      -0.599  11.671  22.400  0.00  0.00    +0.000 C 
ATOM     18  N   UNL     1      -1.399  11.741  23.373  0.00  0.00    +0.000 NA
ENDBRANCH   9  17
ENDBRANCH   1   9
BRANCH   5  19
ATOM     19  C   UNL     1       3.368   6.594  18.936  0.00  0.00    +0.000 C 
BRANCH  19  20
ATOM     20  C   UNL     1       3.367   5.219  18.212  0.00  0.00    +0.000 C 
BRANCH  20  21
ATOM     21  N   UNL     1       3.071   4.150  19.251  0.00  0.00    +0.000 NA
ATOM     22  C   UNL     1       2.518   4.660  20.534  0.00  0.00    +0.000 C 
ATOM     23  C   UNL     1       2.144   3.413  21.327  0.00  0.00    +0.000 C 
ATOM     24  C   UNL     1       1.385   2.515  20.372  0.00  0.00    +0.000 C 
ATOM     25  S   UNL     1       2.116   2.801  18.766  0.00  0.00    +0.000 S 
ATOM     26  O   UNL     1       1.053   3.260  17.898  0.00  0.00    +0.000 OA
ATOM     27  O   UNL     1       3.000   1.703  18.449  0.00  0.00    +0.000 OA
ENDBRANCH  20  21
BRANCH  20  28
ATOM     28  C   UNL     1       4.677   5.002  17.453  0.00  0.00    +0.000 A 
ATOM     29  C   UNL     1       5.861   5.669  17.800  0.00  0.00    +0.000 A 
ATOM     30  C   UNL     1       7.027   5.488  17.053  0.00  0.00    +0.000 A 
ATOM     31  C   UNL     1       7.032   4.618  15.961  0.00  0.00    +0.000 A 
ATOM     32  C   UNL     1       5.879   3.913  15.631  0.00  0.00    +0.000 A 
ATOM     33  C   UNL     1       4.711   4.102  16.371  0.00  0.00    +0.000 A 
ENDBRANCH  20  28
ENDBRANCH  19  20
ENDBRANCH   5  19
TORSDOF 7
ENDMDL
MODEL 4
REMARK VINA RESULT:      -8.0      1.083      1.232
REMARK  Name = 
REMARK  8 active torsions:
REMARK  status: ('A' for Active; 'I' for Inactive)
REMARK    1  A    between atoms: C_1  and  C_2
REMARK    2  A    between atoms: C_7  and  C_8
REMARK    3  A    between atoms: C_8  and  C_9
REMARK    4  A    between atoms: C_8  and  N_11
REMARK    5  A    between atoms: C_15  and  C_17
REMARK    6  A    between atoms: C_17  and  C_18
REMARK    7  A    between atoms: C_18  and  C_19
REMARK    8  A    between atoms: C_18  and  N_25
REMARK                            x       y       z     vdW  Elec       q    Type
REMARK                         _______ _______ _______ _____ _____    ______ ____
ROOT
ATOM      1  N   UNL     1      -0.431  10.436  20.568  0.00  0.00    +0.000 NA
ATOM      2  C   UNL     1      -0.407  10.559  19.116  0.00  0.00    +0.000 C 
ATOM      3  C   UNL     1       0.832   9.961  18.403  0.00  0.00    +0.000 C 
ATOM      4  N   UNL     1       1.375   8.719  18.971  0.00  0.00    +0.000 N 
ATOM      5  C   UNL     1       2.448   8.127  18.264  0.00  0.00    +0.000 C 
ATOM      6  O   UNL     1       2.730   8.461  17.114  0.00  0.00    +0.000 OA
ATOM      7  C   UNL     1       1.186   8.495  20.404  0.00  0.00    +0.000 C 
ATOM      8  C   UNL     1      -0.091   9.099  21.016  0.00  0.00    +0.000 C 
ENDROOT
BRANCH   1   9
ATOM      9  C   UNL     1      -0.252  11.595  21.468  0.00  0.00    +0.000 C 
BRANCH   9  16
ATOM     10  C   UNL     1       2.337  12.865  20.281  0.00  0.00    +0.000 C 
ATOM     11  C   UNL     1       1.016  13.569  20.356  0.00  0.00    +0.000 A 
ATOM     12  N   UNL     1       1.078  14.837  19.860  0.00  0.00    +0.000 NA
ATOM     13  C   UNL     1      -0.070  15.505  19.662  0.00  0.00    +0.000 A 
ATOM     14  C   UNL     1      -1.307  14.958  19.912  0.00  0.00    +0.000 A 
ATOM     15  C   UNL     1      -1.359  13.684  20.476  0.00  0.00    +0.000 A 
ATOM     16  C   UNL     1      -0.186  12.954  20.751  0.00  0.00    +0.000 A 
ENDBRANCH   9  16
BRANCH   9  17
ATOM     17  C   UNL     1      -1.270  11.591  22.596  0.00  0.00    +0.000 C 
ATOM     18  N   UNL     1      -2.115  11.588  23.533  0.00  0.00    +0.000 NA
ENDBRANCH   9  17
ENDBRANCH   1   9
BRANCH   5  19
ATOM     19  C   UNL     1       3.184   6.993  18.976  0.00  0.00    +0.000 C 
BRANCH  19  20
ATOM     20  C   UNL     1       3.228   5.626  18.238  0.00  0.00    +0.000 C 
BRANCH  20  21
ATOM     21  N   UNL     1       2.887   4.543  19.249  0.00  0.00    +0.000 NA
ATOM     22  C   UNL     1       2.222   5.030  20.486  0.00  0.00    +0.000 C 
ATOM     23  C   UNL     1       1.828   3.769  21.246  0.00  0.00    +0.000 C 
ATOM     24  C   UNL     1       1.172   2.852  20.233  0.00  0.00    +0.000 C 
ATOM     25  S   UNL     1       2.015   3.168  18.688  0.00  0.00    +0.000 S 
ATOM     26  O   UNL     1       1.007   3.598  17.743  0.00  0.00    +0.000 OA
ATOM     27  O   UNL     1       2.954   2.099  18.438  0.00  0.00    +0.000 OA
ENDBRANCH  20  21
BRANCH  20  28
ATOM     28  C   UNL     1       4.576   5.425  17.544  0.00  0.00    +0.000 A 
ATOM     29  C   UNL     1       5.730   6.121  17.936  0.00  0.00    +0.000 A 
ATOM     30  C   UNL     1       6.933   5.953  17.247  0.00  0.00    +0.000 A 
ATOM     31  C   UNL     1       7.005   5.070  16.169  0.00  0.00    +0.000 A 
ATOM     32  C   UNL     1       5.883   4.337  15.795  0.00  0.00    +0.000 A 
ATOM     33  C   UNL     1       4.678   4.512  16.478  0.00  0.00    +0.000 A 
ENDBRANCH  20  28
ENDBRANCH  19  20
ENDBRANCH   5  19
TORSDOF 7
ENDMDL
MODEL 5
REMARK VINA RESULT:      -8.0      2.173      4.440
REMARK  Name = 
REMARK  8 active torsions:
REMARK  status: ('A' for Active; 'I' for Inactive)
REMARK    1  A    between atoms: C_1  and  C_2
REMARK    2  A    between atoms: C_7  and  C_8
REMARK    3  A    between atoms: C_8  and  C_9
REMARK    4  A    between atoms: C_8  and  N_11
REMARK    5  A    between atoms: C_15  and  C_17
REMARK    6  A    between atoms: C_17  and  C_18
REMARK    7  A    between atoms: C_18  and  C_19
REMARK    8  A    between atoms: C_18  and  N_25
REMARK                            x       y       z     vdW  Elec       q    Type
REMARK                         _______ _______ _______ _____ _____    ______ ____
ROOT
ATOM      1  N   UNL     1       0.884  12.350  19.228  0.00  0.00    +0.000 NA
ATOM      2  C   UNL     1       0.778  11.835  20.587  0.00  0.00    +0.000 C 
ATOM      3  C   UNL     1       0.679  10.294  20.725  0.00  0.00    +0.000 C 
ATOM      4  N   UNL     1       1.476   9.502  19.778  0.00  0.00    +0.000 N 
ATOM      5  C   UNL     1       1.456   8.100  19.965  0.00  0.00    +0.000 C 
ATOM      6  O   UNL     1       1.036   7.591  21.003  0.00  0.00    +0.000 OA
ATOM      7  C   UNL     1       1.753  10.096  18.469  0.00  0.00    +0.000 C 
ATOM      8  C   UNL     1       1.866  11.631  18.438  0.00  0.00    +0.000 C 
ENDROOT
BRANCH   1   9
ATOM      9  C   UNL     1      -0.216  13.083  18.567  0.00  0.00    +0.000 C 
BRANCH   9  16
ATOM     10  C   UNL     1      -1.791  10.675  17.364  0.00  0.00    +0.000 C 
ATOM     11  C   UNL     1      -2.370  11.650  18.345  0.00  0.00    +0.000 A 
ATOM     12  N   UNL     1      -3.671  11.374  18.639  0.00  0.00    +0.000 NA
ATOM     13  C   UNL     1      -4.250  12.026  19.661  0.00  0.00    +0.000 A 
ATOM     14  C   UNL     1      -3.580  12.941  20.440  0.00  0.00    +0.000 A 
ATOM     15  C   UNL     1      -2.268  13.263  20.093  0.00  0.00    +0.000 A 
ATOM     16  C   UNL     1      -1.625  12.646  19.002  0.00  0.00    +0.000 A 
ENDBRANCH   9  16
BRANCH   9  17
ATOM     17  C   UNL     1      -0.027  14.588  18.667  0.00  0.00    +0.000 C 
ATOM     18  N   UNL     1       0.130  15.837  18.750  0.00  0.00    +0.000 NA
ENDBRANCH   9  17
ENDBRANCH   1   9
BRANCH   5  19
ATOM     19  C   UNL     1       2.061   7.259  18.842  0.00  0.00    +0.000 C 
BRANCH  19  20
ATOM     20  C   UNL     1       3.097   6.181  19.268  0.00  0.00    +0.000 C 
BRANCH  20  21
ATOM     21  N   UNL     1       4.000   5.911  18.075  0.00  0.00    +0.000 NA
ATOM     22  C   UNL     1       4.330   7.107  17.257  0.00  0.00    +0.000 C 
ATOM     23  C   UNL     1       5.367   6.624  16.250  0.00  0.00    +0.000 C 
ATOM     24  C   UNL     1       6.385   5.828  17.040  0.00  0.00    +0.000 C 
ATOM     25  S   UNL     1       5.462   5.044  18.355  0.00  0.00    +0.000 S 
ATOM     26  O   UNL     1       6.047   5.492  19.601  0.00  0.00    +0.000 OA
ATOM     27  O   UNL     1       5.246   3.657  18.016  0.00  0.00    +0.000 OA
ENDBRANCH  20  21
BRANCH  20  28
ATOM     28  C   UNL     1       2.394   4.935  19.810  0.00  0.00    +0.000 A 
ATOM     29  C   UNL     1       1.516   4.171  19.026  0.00  0.00    +0.000 A 
ATOM     30  C   UNL     1       0.851   3.070  19.568  0.00  0.00    +0.000 A 
ATOM     31  C   UNL     1       1.071   2.702  20.897  0.00  0.00    +0.000 A 
ATOM     32  C   UNL     1       1.973   3.420  21.675  0.00  0.00    +0.000 A 
ATOM     33  C   UNL     1       2.631   4.527  21.136  0.00  0.00    +0.000 A 
ENDBRANCH  20  28
ENDBRANCH  19  20
ENDBRANCH   5  19
TORSDOF 7
ENDMDL
MODEL 6
REMARK VINA RESULT:      -7.8      1.704      2.027
REMARK  Name = 
REMARK  8 active torsions:
REMARK  status: ('A' for Active; 'I' for Inactive)
REMARK    1  A    between atoms: C_1  and  C_2
REMARK    2  A    between atoms: C_7  and  C_8
REMARK    3  A    between atoms: C_8  and  C_9
REMARK    4  A    between atoms: C_8  and  N_11
REMARK    5  A    between atoms: C_15  and  C_17
REMARK    6  A    between atoms: C_17  and  C_18
REMARK    7  A    between atoms: C_18  and  C_19
REMARK    8  A    between atoms: C_18  and  N_25
REMARK                            x       y       z     vdW  Elec       q    Type
REMARK                         _______ _______ _______ _____ _____    ______ ____
ROOT
ATOM      1  N   UNL     1       0.170   9.900  20.171  0.00  0.00    +0.000 NA
ATOM      2  C   UNL     1       0.310  10.118  18.736  0.00  0.00    +0.000 C 
ATOM      3  C   UNL     1       1.579   9.520  18.078  0.00  0.00    +0.000 C 
ATOM      4  N   UNL     1       2.034   8.223  18.597  0.00  0.00    +0.000 N 
ATOM      5  C   UNL     1       3.137   7.636  17.932  0.00  0.00    +0.000 C 
ATOM      6  O   UNL     1       3.517   8.035  16.832  0.00  0.00    +0.000 OA
ATOM      7  C   UNL     1       1.728   7.911  19.993  0.00  0.00    +0.000 C 
ATOM      8  C   UNL     1       0.429   8.524  20.549  0.00  0.00    +0.000 C 
ENDROOT
BRANCH   1   9
ATOM      9  C   UNL     1       0.320  10.988  21.159  0.00  0.00    +0.000 C 
BRANCH   9  16
ATOM     10  C   UNL     1       1.609  13.576  19.988  0.00  0.00    +0.000 C 
ATOM     11  C   UNL     1       0.178  13.474  20.423  0.00  0.00    +0.000 A 
ATOM     12  N   UNL     1      -0.493  14.649  20.264  0.00  0.00    +0.000 NA
ATOM     13  C   UNL     1      -1.829  14.649  20.404  0.00  0.00    +0.000 A 
ATOM     14  C   UNL     1      -2.552  13.510  20.675  0.00  0.00    +0.000 A 
ATOM     15  C   UNL     1      -1.852  12.325  20.898  0.00  0.00    +0.000 A 
ATOM     16  C   UNL     1      -0.447  12.276  20.811  0.00  0.00    +0.000 A 
ENDBRANCH   9  16
BRANCH   9  17
ATOM     17  C   UNL     1       0.023  10.509  22.570  0.00  0.00    +0.000 C 
ATOM     18  N   UNL     1      -0.224  10.111  23.742  0.00  0.00    +0.000 NA
ENDBRANCH   9  17
ENDBRANCH   1   9
BRANCH   5  19
ATOM     19  C   UNL     1       3.776   6.430  18.617  0.00  0.00    +0.000 C 
BRANCH  19  20
ATOM     20  C   UNL     1       3.641   5.067  17.883  0.00  0.00    +0.000 C 
BRANCH  20  21
ATOM     21  N   UNL     1       3.398   3.997  18.936  0.00  0.00    +0.000 NA
ATOM     22  C   UNL     1       2.854   4.500  20.225  0.00  0.00    +0.000 C 
ATOM     23  C   UNL     1       2.533   3.249  21.034  0.00  0.00    +0.000 C 
ATOM     24  C   UNL     1       1.783   2.321  20.100  0.00  0.00    +0.000 C 
ATOM     25  S   UNL     1       2.476   2.616  18.478  0.00  0.00    +0.000 S 
ATOM     26  O   UNL     1       1.382   3.036  17.628  0.00  0.00    +0.000 OA
ATOM     27  O   UNL     1       3.386   1.542  18.153  0.00  0.00    +0.000 OA
ENDBRANCH  20  21
BRANCH  20  28
ATOM     28  C   UNL     1       4.861   4.801  16.999  0.00  0.00    +0.000 A 
ATOM     29  C   UNL     1       4.741   4.458  15.643  0.00  0.00    +0.000 A 
ATOM     30  C   UNL     1       5.873   4.170  14.878  0.00  0.00    +0.000 A 
ATOM     31  C   UNL     1       7.144   4.242  15.451  0.00  0.00    +0.000 A 
ATOM     32  C   UNL     1       7.284   4.625  16.782  0.00  0.00    +0.000 A 
ATOM     33  C   UNL     1       6.152   4.904  17.549  0.00  0.00    +0.000 A 
ENDBRANCH  20  28
ENDBRANCH  19  20
ENDBRANCH   5  19
TORSDOF 7
ENDMDL
MODEL 7
REMARK VINA RESULT:      -7.8      1.407      2.554
REMARK  Name = 
REMARK  8 active torsions:
REMARK  status: ('A' for Active; 'I' for Inactive)
REMARK    1  A    between atoms: C_1  and  C_2
REMARK    2  A    between atoms: C_7  and  C_8
REMARK    3  A    between atoms: C_8  and  C_9
REMARK    4  A    between atoms: C_8  and  N_11
REMARK    5  A    between atoms: C_15  and  C_17
REMARK    6  A    between atoms: C_17  and  C_18
REMARK    7  A    between atoms: C_18  and  C_19
REMARK    8  A    between atoms: C_18  and  N_25
REMARK                            x       y       z     vdW  Elec       q    Type
REMARK                         _______ _______ _______ _____ _____    ______ ____
ROOT
ATOM      1  N   UNL     1      -0.757  11.227  19.927  0.00  0.00    +0.000 NA
ATOM      2  C   UNL     1      -0.794  10.999  18.487  0.00  0.00    +0.000 C 
ATOM      3  C   UNL     1       0.403  10.216  17.892  0.00  0.00    +0.000 C 
ATOM      4  N   UNL     1       0.950   9.131  18.719  0.00  0.00    +0.000 N 
ATOM      5  C   UNL     1       1.981   8.359  18.135  0.00  0.00    +0.000 C 
ATOM      6  O   UNL     1       2.218   8.401  16.928  0.00  0.00    +0.000 OA
ATOM      7  C   UNL     1       0.819   9.261  20.171  0.00  0.00    +0.000 C 
ATOM      8  C   UNL     1      -0.420  10.027  20.669  0.00  0.00    +0.000 C 
ENDROOT
BRANCH   1   9
ATOM      9  C   UNL     1      -0.519  12.562  20.515  0.00  0.00    +0.000 C 
BRANCH   9  16
ATOM     10  C   UNL     1      -3.621  12.661  20.209  0.00  0.00    +0.000 C 
ATOM     11  C   UNL     1      -2.883  13.129  21.427  0.00  0.00    +0.000 A 
ATOM     12  N   UNL     1      -3.723  13.619  22.382  0.00  0.00    +0.000 NA
ATOM     13  C   UNL     1      -3.227  13.870  23.605  0.00  0.00    +0.000 A 
ATOM     14  C   UNL     1      -1.916  13.628  23.944  0.00  0.00    +0.000 A 
ATOM     15  C   UNL     1      -1.050  13.185  22.945  0.00  0.00    +0.000 A 
ATOM     16  C   UNL     1      -1.504  12.951  21.632  0.00  0.00    +0.000 A 
ENDBRANCH   9  16
BRANCH   9  17
ATOM     17  C   UNL     1       0.929  12.737  20.942  0.00  0.00    +0.000 C 
ATOM     18  N   UNL     1       2.131  12.881  21.296  0.00  0.00    +0.000 NA
ENDBRANCH   9  17
ENDBRANCH   1   9
BRANCH   5  19
ATOM     19  C   UNL     1       2.728   7.409  19.069  0.00  0.00    +0.000 C 
BRANCH  19  20
ATOM     20  C   UNL     1       3.296   6.113  18.427  0.00  0.00    +0.000 C 
BRANCH  20  21
ATOM     21  N   UNL     1       2.754   4.931  19.215  0.00  0.00    +0.000 NA
ATOM     22  C   UNL     1       1.910   5.292  20.384  0.00  0.00    +0.000 C 
ATOM     23  C   UNL     1       1.351   3.969  20.893  0.00  0.00    +0.000 C 
ATOM     24  C   UNL     1       0.841   3.228  19.673  0.00  0.00    +0.000 C 
ATOM     25  S   UNL     1       1.940   3.690  18.341  0.00  0.00    +0.000 S 
ATOM     26  O   UNL     1       1.119   4.294  17.313  0.00  0.00    +0.000 OA
ATOM     27  O   UNL     1       2.870   2.610  18.102  0.00  0.00    +0.000 OA
ENDBRANCH  20  21
BRANCH  20  28
ATOM     28  C   UNL     1       4.824   6.165  18.357  0.00  0.00    +0.000 A 
ATOM     29  C   UNL     1       5.503   6.903  17.377  0.00  0.00    +0.000 A 
ATOM     30  C   UNL     1       6.897   6.886  17.309  0.00  0.00    +0.000 A 
ATOM     31  C   UNL     1       7.635   6.147  18.236  0.00  0.00    +0.000 A 
ATOM     32  C   UNL     1       6.980   5.445  19.243  0.00  0.00    +0.000 A 
ATOM     33  C   UNL     1       5.585   5.455  19.305  0.00  0.00    +0.000 A 
ENDBRANCH  20  28
ENDBRANCH  19  20
ENDBRANCH   5  19
TORSDOF 7
ENDMDL
MODEL 8
REMARK VINA RESULT:      -7.8      0.596      1.265
REMARK  Name = 
REMARK  8 active torsions:
REMARK  status: ('A' for Active; 'I' for Inactive)
REMARK    1  A    between atoms: C_1  and  C_2
REMARK    2  A    between atoms: C_7  and  C_8
REMARK    3  A    between atoms: C_8  and  C_9
REMARK    4  A    between atoms: C_8  and  N_11
REMARK    5  A    between atoms: C_15  and  C_17
REMARK    6  A    between atoms: C_17  and  C_18
REMARK    7  A    between atoms: C_18  and  C_19
REMARK    8  A    between atoms: C_18  and  N_25
REMARK                            x       y       z     vdW  Elec       q    Type
REMARK                         _______ _______ _______ _____ _____    ______ ____
ROOT
ATOM      1  N   UNL     1      -0.142  11.223  20.723  0.00  0.00    +0.000 NA
ATOM      2  C   UNL     1      -0.122  11.270  19.266  0.00  0.00    +0.000 C 
ATOM      3  C   UNL     1       0.959  10.405  18.572  0.00  0.00    +0.000 C 
ATOM      4  N   UNL     1       1.256   9.108  19.195  0.00  0.00    +0.000 N 
ATOM      5  C   UNL     1       2.176   8.281  18.508  0.00  0.00    +0.000 C 
ATOM      6  O   UNL     1       2.496   8.498  17.340  0.00  0.00    +0.000 OA
ATOM      7  C   UNL     1       1.054   8.993  20.640  0.00  0.00    +0.000 C 
ATOM      8  C   UNL     1      -0.065   9.867  21.234  0.00  0.00    +0.000 C 
ENDROOT
BRANCH   1   9
ATOM      9  C   UNL     1       0.282  12.363  21.562  0.00  0.00    +0.000 C 
BRANCH   9  16
ATOM     10  C   UNL     1      -1.293  14.655  20.149  0.00  0.00    +0.000 C 
ATOM     11  C   UNL     1       0.190  14.460  20.034  0.00  0.00    +0.000 A 
ATOM     12  N   UNL     1       0.770  15.391  19.226  0.00  0.00    +0.000 NA
ATOM     13  C   UNL     1       2.111  15.474  19.203  0.00  0.00    +0.000 A 
ATOM     14  C   UNL     1       2.923  14.680  19.980  0.00  0.00    +0.000 A 
ATOM     15  C   UNL     1       2.323  13.689  20.757  0.00  0.00    +0.000 A 
ATOM     16  C   UNL     1       0.924  13.524  20.783  0.00  0.00    +0.000 A 
ENDBRANCH   9  16
BRANCH   9  17
ATOM     17  C   UNL     1      -0.840  12.836  22.473  0.00  0.00    +0.000 C 
ATOM     18  N   UNL     1      -1.770  13.228  23.229  0.00  0.00    +0.000 NA
ENDBRANCH   9  17
ENDBRANCH   1   9
BRANCH   5  19
ATOM     19  C   UNL     1       2.686   7.058  19.269  0.00  0.00    +0.000 C 
BRANCH  19  20
ATOM     20  C   UNL     1       3.116   5.838  18.407  0.00  0.00    +0.000 C 
BRANCH  20  21
ATOM     21  N   UNL     1       2.600   4.583  19.093  0.00  0.00    +0.000 NA
ATOM     22  C   UNL     1       1.768   4.827  20.301  0.00  0.00    +0.000 C 
ATOM     23  C   UNL     1       1.233   3.456  20.697  0.00  0.00    +0.000 C 
ATOM     24  C   UNL     1       0.714   2.821  19.423  0.00  0.00    +0.000 C 
ATOM     25  S   UNL     1       1.788   3.415  18.122  0.00  0.00    +0.000 S 
ATOM     26  O   UNL     1       0.945   4.097  17.164  0.00  0.00    +0.000 OA
ATOM     27  O   UNL     1       2.727   2.373  17.775  0.00  0.00    +0.000 OA
ENDBRANCH  20  21
BRANCH  20  28
ATOM     28  C   UNL     1       4.628   5.841  18.175  0.00  0.00    +0.000 A 
ATOM     29  C   UNL     1       5.197   6.253  16.960  0.00  0.00    +0.000 A 
ATOM     30  C   UNL     1       6.578   6.193  16.763  0.00  0.00    +0.000 A 
ATOM     31  C   UNL     1       7.413   5.741  17.786  0.00  0.00    +0.000 A 
ATOM     32  C   UNL     1       6.870   5.373  19.014  0.00  0.00    +0.000 A 
ATOM     33  C   UNL     1       5.489   5.423  19.207  0.00  0.00    +0.000 A 
ENDBRANCH  20  28
ENDBRANCH  19  20
ENDBRANCH   5  19
TORSDOF 7
ENDMDL
MODEL 9
REMARK VINA RESULT:      -7.7      1.892      2.897
REMARK  Name = 
REMARK  8 active torsions:
REMARK  status: ('A' for Active; 'I' for Inactive)
REMARK    1  A    between atoms: C_1  and  C_2
REMARK    2  A    between atoms: C_7  and  C_8
REMARK    3  A    between atoms: C_8  and  C_9
REMARK    4  A    between atoms: C_8  and  N_11
REMARK    5  A    between atoms: C_15  and  C_17
REMARK    6  A    between atoms: C_17  and  C_18
REMARK    7  A    between atoms: C_18  and  C_19
REMARK    8  A    between atoms: C_18  and  N_25
REMARK                            x       y       z     vdW  Elec       q    Type
REMARK                         _______ _______ _______ _____ _____    ______ ____
ROOT
ATOM      1  N   UNL     1      -0.514  10.571  19.614  0.00  0.00    +0.000 NA
ATOM      2  C   UNL     1      -0.358  10.368  18.179  0.00  0.00    +0.000 C 
ATOM      3  C   UNL     1       0.947   9.663  17.730  0.00  0.00    +0.000 C 
ATOM      4  N   UNL     1       1.447   8.595  18.607  0.00  0.00    +0.000 N 
ATOM      5  C   UNL     1       2.585   7.892  18.148  0.00  0.00    +0.000 C 
ATOM      6  O   UNL     1       2.968   7.970  16.981  0.00  0.00    +0.000 OA
ATOM      7  C   UNL     1       1.129   8.690  20.032  0.00  0.00    +0.000 C 
ATOM      8  C   UNL     1      -0.205   9.378  20.378  0.00  0.00    +0.000 C 
ENDROOT
BRANCH   1   9
ATOM      9  C   UNL     1      -0.428  11.906  20.243  0.00  0.00    +0.000 C 
BRANCH   9  16
ATOM     10  C   UNL     1      -3.445  12.421  19.640  0.00  0.00    +0.000 C 
ATOM     11  C   UNL     1      -2.826  12.553  20.999  0.00  0.00    +0.000 A 
ATOM     12  N   UNL     1      -3.731  12.940  21.942  0.00  0.00    +0.000 NA
ATOM     13  C   UNL     1      -3.373  12.888  23.235  0.00  0.00    +0.000 A 
ATOM     14  C   UNL     1      -2.143  12.434  23.653  0.00  0.00    +0.000 A 
ATOM     15  C   UNL     1      -1.202  12.098  22.679  0.00  0.00    +0.000 A 
ATOM     16  C   UNL     1      -1.506  12.180  21.306  0.00  0.00    +0.000 A 
ENDBRANCH   9  16
BRANCH   9  17
ATOM     17  C   UNL     1       0.972  12.193  20.759  0.00  0.00    +0.000 C 
ATOM     18  N   UNL     1       2.134  12.432  21.187  0.00  0.00    +0.000 NA
ENDBRANCH   9  17
ENDBRANCH   1   9
BRANCH   5  19
ATOM     19  C   UNL     1       3.262   6.967  19.158  0.00  0.00    +0.000 C 
BRANCH  19  20
ATOM     20  C   UNL     1       3.491   5.499  18.705  0.00  0.00    +0.000 C 
BRANCH  20  21
ATOM     21  N   UNL     1       3.301   4.605  19.920  0.00  0.00    +0.000 NA
ATOM     22  C   UNL     1       2.056   4.857  20.693  0.00  0.00    +0.000 C 
ATOM     23  C   UNL     1       2.003   3.744  21.733  0.00  0.00    +0.000 C 
ATOM     24  C   UNL     1       2.297   2.456  20.990  0.00  0.00    +0.000 C 
ATOM     25  S   UNL     1       3.446   2.904  19.696  0.00  0.00    +0.000 S 
ATOM     26  O   UNL     1       2.826   2.536  18.440  0.00  0.00    +0.000 OA
ATOM     27  O   UNL     1       4.777   2.500  20.088  0.00  0.00    +0.000 OA
ENDBRANCH  20  21
BRANCH  20  28
ATOM     28  C   UNL     1       4.854   5.344  18.028  0.00  0.00    +0.000 A 
ATOM     29  C   UNL     1       4.982   4.997  16.674  0.00  0.00    +0.000 A 
ATOM     30  C   UNL     1       6.242   4.812  16.101  0.00  0.00    +0.000 A 
ATOM     31  C   UNL     1       7.394   4.992  16.868  0.00  0.00    +0.000 A 
ATOM     32  C   UNL     1       7.287   5.381  18.200  0.00  0.00    +0.000 A 
ATOM     33  C   UNL     1       6.028   5.556  18.776  0.00  0.00    +0.000 A 
ENDBRANCH  20  28
ENDBRANCH  19  20
ENDBRANCH   5  19
TORSDOF 7
ENDMDL
