MODEL 1
REMARK VINA RESULT:      -7.8      0.000      0.000
REMARK  Name = 
REMARK  6 active torsions:
REMARK  status: ('A' for Active; 'I' for Inactive)
REMARK    1  A    between atoms: C_1  and  C_2
REMARK    2  A    between atoms: C_5  and  C_6
REMARK    3  A    between atoms: C_7  and  N_8
REMARK    4  A    between atoms: N_17  and  C_18
REMARK    5  A    between atoms: C_18  and  C_19
REMARK    6  A    between atoms: C_19  and  C_20
REMARK                            x       y       z     vdW  Elec       q    Type
REMARK                         _______ _______ _______ _____ _____    ______ ____
ROOT
ATOM      1  N   UNL     1       4.870   4.969  17.032  0.00  0.00    +0.000 N 
ATOM      2  C   UNL     1       5.473   4.952  18.379  0.00  0.00    +0.000 C 
ATOM      3  C   UNL     1       4.391   4.599  19.414  0.00  0.00    +0.000 C 
ATOM      4  C   UNL     1       3.154   5.513  19.286  0.00  0.00    +0.000 C 
ATOM      5  C   UNL     1       2.659   5.583  17.844  0.00  0.00    +0.000 C 
ATOM      6  C   UNL     1       2.001   4.260  17.406  0.00  0.00    +0.000 C 
ATOM      7  C   UNL     1       1.458   3.353  18.508  0.00  0.00    +0.000 C 
ATOM      8  C   UNL     1       1.337   3.935  19.896  0.00  0.00    +0.000 C 
ATOM      9  O   UNL     1       0.628   3.379  20.738  0.00  0.00    +0.000 OA
ATOM     10  N   UNL     1       2.032   5.102  20.143  0.00  0.00    +0.000 N 
ATOM     11  C   UNL     1       3.816   5.981  16.907  0.00  0.00    +0.000 C 
ENDROOT
BRANCH   1  18
ATOM     12  C   UNL     1       5.804   3.251  12.626  0.00  0.00    +0.000 C 
ATOM     13  C   UNL     1       6.215   4.084  13.800  0.00  0.00    +0.000 A 
ATOM     14  C   UNL     1       7.369   4.842  13.748  0.00  0.00    +0.000 A 
ATOM     15  N   UNL     1       7.792   5.577  14.788  0.00  0.00    +0.000 NA
ATOM     16  C   UNL     1       6.998   5.573  15.899  0.00  0.00    +0.000 A 
ATOM     17  C   UNL     1       7.496   6.500  16.965  0.00  0.00    +0.000 C 
ATOM     18  C   UNL     1       5.784   4.842  15.971  0.00  0.00    +0.000 A 
ATOM     19  N   UNL     1       5.419   4.080  14.903  0.00  0.00    +0.000 NA
ENDBRANCH   1  18
BRANCH  10  20
ATOM     20  C   UNL     1       1.544   5.989  21.216  0.00  0.00    +0.000 C 
BRANCH  20  21
ATOM     21  C   UNL     1       1.639   7.480  20.856  0.00  0.00    +0.000 C 
BRANCH  21  22
ATOM     22  C   UNL     1       0.786   8.330  21.734  0.00  0.00    +0.000 A 
ATOM     23  C   UNL     1      -0.589   8.338  21.869  0.00  0.00    +0.000 A 
ATOM     24  N   UNL     1      -0.849   9.302  22.803  0.00  0.00    +0.000 N 
ATOM     25  C   UNL     1       0.349   9.834  23.195  0.00  0.00    +0.000 A 
ATOM     26  N   UNL     1       1.354   9.272  22.563  0.00  0.00    +0.000 NA
ATOM     27  H   UNL     1      -1.760   9.577  23.158  0.00  0.00    +0.000 HD
ENDBRANCH  21  22
ENDBRANCH  20  21
ENDBRANCH  10  20
TORSDOF 4
ENDMDL
MODEL 2
REMARK VINA RESULT:      -7.6      2.184      7.673
REMARK  Name = 
REMARK  6 active torsions:
REMARK  status: ('A' for Active; 'I' for Inactive)
REMARK    1  A    between atoms: C_1  and  C_2
REMARK    2  A    between atoms: C_5  and  C_6
REMARK    3  A    between atoms: C_7  and  N_8
REMARK    4  A    between atoms: N_17  and  C_18
REMARK    5  A    between atoms: C_18  and  C_19
REMARK    6  A    between atoms: C_19  and  C_20
REMARK                            x       y       z     vdW  Elec       q    Type
REMARK                         _______ _______ _______ _____ _____    ______ ____
ROOT
ATOM      1  N   UNL     1       1.643   8.016  19.610  0.00  0.00    +0.000 N 
ATOM      2  C   UNL     1       2.261   7.953  18.271  0.00  0.00    +0.000 C 
ATOM      3  C   UNL     1       2.443   6.480  17.866  0.00  0.00    +0.000 C 
ATOM      4  C   UNL     1       3.193   5.675  18.947  0.00  0.00    +0.000 C 
ATOM      5  C   UNL     1       2.576   5.886  20.328  0.00  0.00    +0.000 C 
ATOM      6  C   UNL     1       1.206   5.191  20.448  0.00  0.00    +0.000 C 
ATOM      7  C   UNL     1       0.929   4.027  19.500  0.00  0.00    +0.000 C 
ATOM      8  C   UNL     1       2.097   3.458  18.731  0.00  0.00    +0.000 C 
ATOM      9  O   UNL     1       2.007   2.345  18.208  0.00  0.00    +0.000 OA
ATOM     10  N   UNL     1       3.240   4.230  18.676  0.00  0.00    +0.000 N 
ATOM     11  C   UNL     1       2.481   7.391  20.639  0.00  0.00    +0.000 C 
ENDROOT
BRANCH   1  18
ATOM     12  C   UNL     1       0.957  12.651  18.478  0.00  0.00    +0.000 C 
ATOM     13  C   UNL     1       0.621  11.468  19.332  0.00  0.00    +0.000 A 
ATOM     14  C   UNL     1      -0.395  11.546  20.265  0.00  0.00    +0.000 A 
ATOM     15  N   UNL     1      -0.708  10.522  21.073  0.00  0.00    +0.000 NA
ATOM     16  C   UNL     1       0.006   9.370  20.900  0.00  0.00    +0.000 A 
ATOM     17  C   UNL     1      -0.481   8.254  21.772  0.00  0.00    +0.000 C 
ATOM     18  C   UNL     1       1.026   9.241  19.922  0.00  0.00    +0.000 A 
ATOM     19  N   UNL     1       1.332  10.322  19.153  0.00  0.00    +0.000 NA
ENDBRANCH   1  18
BRANCH  10  20
ATOM     20  C   UNL     1       4.530   3.550  18.454  0.00  0.00    +0.000 C 
BRANCH  20  21
ATOM     21  C   UNL     1       5.735   4.498  18.556  0.00  0.00    +0.000 C 
BRANCH  21  22
ATOM     22  C   UNL     1       6.324   4.811  17.222  0.00  0.00    +0.000 A 
ATOM     23  C   UNL     1       7.125   5.873  16.852  0.00  0.00    +0.000 A 
ATOM     24  N   UNL     1       7.383   5.677  15.523  0.00  0.00    +0.000 N 
ATOM     25  C   UNL     1       6.743   4.530  15.141  0.00  0.00    +0.000 A 
ATOM     26  N   UNL     1       6.091   3.987  16.143  0.00  0.00    +0.000 NA
ATOM     27  H   UNL     1       7.951   6.264  14.920  0.00  0.00    +0.000 HD
ENDBRANCH  21  22
ENDBRANCH  20  21
ENDBRANCH  10  20
TORSDOF 4
ENDMDL
MODEL 3
REMARK VINA RESULT:      -7.4      1.931      7.776
REMARK  Name = 
REMARK  6 active torsions:
REMARK  status: ('A' for Active; 'I' for Inactive)
REMARK    1  A    between atoms: C_1  and  C_2
REMARK    2  A    between atoms: C_5  and  C_6
REMARK    3  A    between atoms: C_7  and  N_8
REMARK    4  A    between atoms: N_17  and  C_18
REMARK    5  A    between atoms: C_18  and  C_19
REMARK    6  A    between atoms: C_19  and  C_20
REMARK                            x       y       z     vdW  Elec       q    Type
REMARK                         _______ _______ _______ _____ _____    ______ ____
ROOT
ATOM      1  N   UNL     1       1.542   7.633  19.871  0.00  0.00    +0.000 N 
ATOM      2  C   UNL     1       2.432   7.776  18.702  0.00  0.00    +0.000 C 
ATOM      3  C   UNL     1       2.788   6.380  18.164  0.00  0.00    +0.000 C 
ATOM      4  C   UNL     1       3.342   5.460  19.272  0.00  0.00    +0.000 C 
ATOM      5  C   UNL     1       2.435   5.458  20.500  0.00  0.00    +0.000 C 
ATOM      6  C   UNL     1       1.117   4.707  20.229  0.00  0.00    +0.000 C 
ATOM      7  C   UNL     1       1.121   3.675  19.103  0.00  0.00    +0.000 C 
ATOM      8  C   UNL     1       2.459   3.257  18.542  0.00  0.00    +0.000 C 
ATOM      9  O   UNL     1       2.553   2.225  17.876  0.00  0.00    +0.000 OA
ATOM     10  N   UNL     1       3.537   4.069  18.836  0.00  0.00    +0.000 N 
ATOM     11  C   UNL     1       2.181   6.903  20.970  0.00  0.00    +0.000 C 
ENDROOT
BRANCH   1  18
ATOM     12  C   UNL     1      -0.799  10.178  23.230  0.00  0.00    +0.000 C 
ATOM     13  C   UNL     1      -0.268  10.064  21.835  0.00  0.00    +0.000 A 
ATOM     14  C   UNL     1      -0.353  11.134  20.966  0.00  0.00    +0.000 A 
ATOM     15  N   UNL     1       0.079  11.065  19.697  0.00  0.00    +0.000 NA
ATOM     16  C   UNL     1       0.653   9.886  19.313  0.00  0.00    +0.000 A 
ATOM     17  C   UNL     1       1.197   9.939  17.919  0.00  0.00    +0.000 C 
ATOM     18  C   UNL     1       0.797   8.782  20.193  0.00  0.00    +0.000 A 
ATOM     19  N   UNL     1       0.306   8.889  21.458  0.00  0.00    +0.000 NA
ENDBRANCH   1  18
BRANCH  10  20
ATOM     20  C   UNL     1       4.884   3.471  18.817  0.00  0.00    +0.000 C 
BRANCH  20  21
ATOM     21  C   UNL     1       5.972   4.449  18.346  0.00  0.00    +0.000 C 
BRANCH  21  22
ATOM     22  C   UNL     1       6.102   4.478  16.861  0.00  0.00    +0.000 A 
ATOM     23  C   UNL     1       5.137   4.258  15.898  0.00  0.00    +0.000 A 
ATOM     24  N   UNL     1       5.786   4.408  14.703  0.00  0.00    +0.000 N 
ATOM     25  C   UNL     1       7.093   4.705  14.976  0.00  0.00    +0.000 A 
ATOM     26  N   UNL     1       7.316   4.749  16.269  0.00  0.00    +0.000 NA
ATOM     27  H   UNL     1       5.382   4.324  13.775  0.00  0.00    +0.000 HD
ENDBRANCH  21  22
ENDBRANCH  20  21
ENDBRANCH  10  20
TORSDOF 4
ENDMDL
MODEL 4
REMARK VINA RESULT:      -7.4      0.923      1.018
REMARK  Name = 
REMARK  6 active torsions:
REMARK  status: ('A' for Active; 'I' for Inactive)
REMARK    1  A    between atoms: C_1  and  C_2
REMARK    2  A    between atoms: C_5  and  C_6
REMARK    3  A    between atoms: C_7  and  N_8
REMARK    4  A    between atoms: N_17  and  C_18
REMARK    5  A    between atoms: C_18  and  C_19
REMARK    6  A    between atoms: C_19  and  C_20
REMARK                            x       y       z     vdW  Elec       q    Type
REMARK                         _______ _______ _______ _____ _____    ______ ____
ROOT
ATOM      1  N   UNL     1       4.815   4.968  17.049  0.00  0.00    +0.000 N 
ATOM      2  C   UNL     1       5.396   5.037  18.403  0.00  0.00    +0.000 C 
ATOM      3  C   UNL     1       4.317   4.670  19.437  0.00  0.00    +0.000 C 
ATOM      4  C   UNL     1       3.037   5.511  19.254  0.00  0.00    +0.000 C 
ATOM      5  C   UNL     1       2.562   5.497  17.803  0.00  0.00    +0.000 C 
ATOM      6  C   UNL     1       1.981   4.124  17.411  0.00  0.00    +0.000 C 
ATOM      7  C   UNL     1       1.468   3.235  18.543  0.00  0.00    +0.000 C 
ATOM      8  C   UNL     1       1.294   3.866  19.903  0.00  0.00    +0.000 C 
ATOM      9  O   UNL     1       0.602   3.309  20.757  0.00  0.00    +0.000 OA
ATOM     10  N   UNL     1       1.923   5.078  20.112  0.00  0.00    +0.000 N 
ATOM     11  C   UNL     1       3.711   5.916  16.867  0.00  0.00    +0.000 C 
ENDROOT
BRANCH   1  18
ATOM     12  C   UNL     1       5.851   3.252  12.665  0.00  0.00    +0.000 C 
ATOM     13  C   UNL     1       6.232   4.089  13.846  0.00  0.00    +0.000 A 
ATOM     14  C   UNL     1       7.381   4.855  13.817  0.00  0.00    +0.000 A 
ATOM     15  N   UNL     1       7.778   5.593  14.864  0.00  0.00    +0.000 NA
ATOM     16  C   UNL     1       6.961   5.585  15.959  0.00  0.00    +0.000 A 
ATOM     17  C   UNL     1       7.431   6.516  17.034  0.00  0.00    +0.000 C 
ATOM     18  C   UNL     1       5.751   4.845  16.007  0.00  0.00    +0.000 A 
ATOM     19  N   UNL     1       5.413   4.080  14.932  0.00  0.00    +0.000 NA
ENDBRANCH   1  18
BRANCH  10  20
ATOM     20  C   UNL     1       1.373   5.980  21.140  0.00  0.00    +0.000 C 
BRANCH  20  21
ATOM     21  C   UNL     1       2.034   7.368  21.140  0.00  0.00    +0.000 C 
BRANCH  21  22
ATOM     22  C   UNL     1       1.063   8.458  20.842  0.00  0.00    +0.000 A 
ATOM     23  C   UNL     1       0.002   8.911  21.602  0.00  0.00    +0.000 A 
ATOM     24  N   UNL     1      -0.554   9.922  20.868  0.00  0.00    +0.000 N 
ATOM     25  C   UNL     1       0.171  10.046  19.714  0.00  0.00    +0.000 A 
ATOM     26  N   UNL     1       1.150   9.172  19.667  0.00  0.00    +0.000 NA
ATOM     27  H   UNL     1      -1.355  10.492  21.125  0.00  0.00    +0.000 HD
ENDBRANCH  21  22
ENDBRANCH  20  21
ENDBRANCH  10  20
TORSDOF 4
ENDMDL
MODEL 5
REMARK VINA RESULT:      -7.3      2.835      7.099
REMARK  Name = 
REMARK  6 active torsions:
REMARK  status: ('A' for Active; 'I' for Inactive)
REMARK    1  A    between atoms: C_1  and  C_2
REMARK    2  A    between atoms: C_5  and  C_6
REMARK    3  A    between atoms: C_7  and  N_8
REMARK    4  A    between atoms: N_17  and  C_18
REMARK    5  A    between atoms: C_18  and  C_19
REMARK    6  A    between atoms: C_19  and  C_20
REMARK                            x       y       z     vdW  Elec       q    Type
REMARK                         _______ _______ _______ _____ _____    ______ ____
ROOT
ATOM      1  N   UNL     1       1.867   8.054  19.392  0.00  0.00    +0.000 N 
ATOM      2  C   UNL     1       1.903   6.945  20.365  0.00  0.00    +0.000 C 
ATOM      3  C   UNL     1       2.984   5.935  19.943  0.00  0.00    +0.000 C 
ATOM      4  C   UNL     1       2.809   5.485  18.478  0.00  0.00    +0.000 C 
ATOM      5  C   UNL     1       2.652   6.682  17.542  0.00  0.00    +0.000 C 
ATOM      6  C   UNL     1       3.978   7.450  17.379  0.00  0.00    +0.000 C 
ATOM      7  C   UNL     1       5.268   6.684  17.663  0.00  0.00    +0.000 C 
ATOM      8  C   UNL     1       5.175   5.182  17.791  0.00  0.00    +0.000 C 
ATOM      9  O   UNL     1       6.193   4.492  17.703  0.00  0.00    +0.000 OA
ATOM     10  N   UNL     1       3.915   4.651  17.985  0.00  0.00    +0.000 N 
ATOM     11  C   UNL     1       1.520   7.598  18.042  0.00  0.00    +0.000 C 
ENDROOT
BRANCH   1  18
ATOM     12  C   UNL     1      -0.555  10.291  22.909  0.00  0.00    +0.000 C 
ATOM     13  C   UNL     1       0.163  10.351  21.597  0.00  0.00    +0.000 A 
ATOM     14  C   UNL     1       0.377  11.565  20.974  0.00  0.00    +0.000 A 
ATOM     15  N   UNL     1       0.986  11.662  19.782  0.00  0.00    +0.000 NA
ATOM     16  C   UNL     1       1.427  10.495  19.227  0.00  0.00    +0.000 A 
ATOM     17  C   UNL     1       2.183  10.713  17.952  0.00  0.00    +0.000 C 
ATOM     18  C   UNL     1       1.264   9.235  19.860  0.00  0.00    +0.000 A 
ATOM     19  N   UNL     1       0.604   9.186  21.050  0.00  0.00    +0.000 NA
ENDBRANCH   1  18
BRANCH  10  20
ATOM     20  C   UNL     1       3.676   3.256  17.571  0.00  0.00    +0.000 C 
BRANCH  20  21
ATOM     21  C   UNL     1       3.730   2.263  18.743  0.00  0.00    +0.000 C 
BRANCH  21  22
ATOM     22  C   UNL     1       2.626   2.482  19.721  0.00  0.00    +0.000 A 
ATOM     23  C   UNL     1       1.266   2.567  19.495  0.00  0.00    +0.000 A 
ATOM     24  N   UNL     1       0.713   2.770  20.729  0.00  0.00    +0.000 N 
ATOM     25  C   UNL     1       1.733   2.802  21.641  0.00  0.00    +0.000 A 
ATOM     26  N   UNL     1       2.899   2.636  21.063  0.00  0.00    +0.000 NA
ATOM     27  H   UNL     1      -0.274   2.872  20.946  0.00  0.00    +0.000 HD
ENDBRANCH  21  22
ENDBRANCH  20  21
ENDBRANCH  10  20
TORSDOF 4
ENDMDL
MODEL 6
REMARK VINA RESULT:      -7.3      2.216      7.409
REMARK  Name = 
REMARK  6 active torsions:
REMARK  status: ('A' for Active; 'I' for Inactive)
REMARK    1  A    between atoms: C_1  and  C_2
REMARK    2  A    between atoms: C_5  and  C_6
REMARK    3  A    between atoms: C_7  and  N_8
REMARK    4  A    between atoms: N_17  and  C_18
REMARK    5  A    between atoms: C_18  and  C_19
REMARK    6  A    between atoms: C_19  and  C_20
REMARK                            x       y       z     vdW  Elec       q    Type
REMARK                         _______ _______ _______ _____ _____    ______ ____
ROOT
ATOM      1  N   UNL     1       1.717   7.516  19.707  0.00  0.00    +0.000 N 
ATOM      2  C   UNL     1       2.457   7.708  18.445  0.00  0.00    +0.000 C 
ATOM      3  C   UNL     1       2.692   6.339  17.783  0.00  0.00    +0.000 C 
ATOM      4  C   UNL     1       3.349   5.336  18.755  0.00  0.00    +0.000 C 
ATOM      5  C   UNL     1       2.605   5.282  20.087  0.00  0.00    +0.000 C 
ATOM      6  C   UNL     1       1.237   4.586  19.944  0.00  0.00    +0.000 C 
ATOM      7  C   UNL     1       1.062   3.628  18.767  0.00  0.00    +0.000 C 
ATOM      8  C   UNL     1       2.303   3.209  18.016  0.00  0.00    +0.000 C 
ATOM      9  O   UNL     1       2.275   2.219  17.282  0.00  0.00    +0.000 OA
ATOM     10  N   UNL     1       3.438   3.970  18.216  0.00  0.00    +0.000 N 
ATOM     11  C   UNL     1       2.463   6.700  20.671  0.00  0.00    +0.000 C 
ENDROOT
BRANCH   1  18
ATOM     12  C   UNL     1      -0.398   9.758  23.413  0.00  0.00    +0.000 C 
ATOM     13  C   UNL     1       0.108   9.790  22.005  0.00  0.00    +0.000 A 
ATOM     14  C   UNL     1       0.090  10.968  21.283  0.00  0.00    +0.000 A 
ATOM     15  N   UNL     1       0.502  11.035  20.008  0.00  0.00    +0.000 NA
ATOM     16  C   UNL     1       0.986   9.879  19.464  0.00  0.00    +0.000 A 
ATOM     17  C   UNL     1       1.517  10.074  18.077  0.00  0.00    +0.000 C 
ATOM     18  C   UNL     1       1.060   8.662  20.190  0.00  0.00    +0.000 A 
ATOM     19  N   UNL     1       0.591   8.637  21.468  0.00  0.00    +0.000 NA
ENDBRANCH   1  18
BRANCH  10  20
ATOM     20  C   UNL     1       4.750   3.338  17.989  0.00  0.00    +0.000 C 
BRANCH  20  21
ATOM     21  C   UNL     1       5.626   4.110  16.990  0.00  0.00    +0.000 C 
BRANCH  21  22
ATOM     22  C   UNL     1       6.547   5.068  17.668  0.00  0.00    +0.000 A 
ATOM     23  C   UNL     1       7.010   6.291  17.225  0.00  0.00    +0.000 A 
ATOM     24  N   UNL     1       7.817   6.750  18.229  0.00  0.00    +0.000 N 
ATOM     25  C   UNL     1       7.817   5.811  19.224  0.00  0.00    +0.000 A 
ATOM     26  N   UNL     1       7.063   4.782  18.912  0.00  0.00    +0.000 NA
ATOM     27  H   UNL     1       8.324   7.630  18.250  0.00  0.00    +0.000 HD
ENDBRANCH  21  22
ENDBRANCH  20  21
ENDBRANCH  10  20
TORSDOF 4
ENDMDL
MODEL 7
REMARK VINA RESULT:      -7.2      2.435      7.469
REMARK  Name = 
REMARK  6 active torsions:
REMARK  status: ('A' for Active; 'I' for Inactive)
REMARK    1  A    between atoms: C_1  and  C_2
REMARK    2  A    between atoms: C_5  and  C_6
REMARK    3  A    between atoms: C_7  and  N_8
REMARK    4  A    between atoms: N_17  and  C_18
REMARK    5  A    between atoms: C_18  and  C_19
REMARK    6  A    between atoms: C_19  and  C_20
REMARK                            x       y       z     vdW  Elec       q    Type
REMARK                         _______ _______ _______ _____ _____    ______ ____
ROOT
ATOM      1  N   UNL     1       1.625   8.193  19.537  0.00  0.00    +0.000 N 
ATOM      2  C   UNL     1       2.209   8.192  18.182  0.00  0.00    +0.000 C 
ATOM      3  C   UNL     1       2.463   6.740  17.741  0.00  0.00    +0.000 C 
ATOM      4  C   UNL     1       3.285   5.957  18.785  0.00  0.00    +0.000 C 
ATOM      5  C   UNL     1       2.695   6.105  20.185  0.00  0.00    +0.000 C 
ATOM      6  C   UNL     1       1.369   5.332  20.325  0.00  0.00    +0.000 C 
ATOM      7  C   UNL     1       1.133   4.173  19.359  0.00  0.00    +0.000 C 
ATOM      8  C   UNL     1       2.310   3.686  18.549  0.00  0.00    +0.000 C 
ATOM      9  O   UNL     1       2.269   2.581  18.004  0.00  0.00    +0.000 OA
ATOM     10  N   UNL     1       3.406   4.523  18.481  0.00  0.00    +0.000 N 
ATOM     11  C   UNL     1       2.523   7.596  20.531  0.00  0.00    +0.000 C 
ENDROOT
BRANCH   1  18
ATOM     12  C   UNL     1       0.644  12.802  18.520  0.00  0.00    +0.000 C 
ATOM     13  C   UNL     1       0.401  11.586  19.358  0.00  0.00    +0.000 A 
ATOM     14  C   UNL     1      -0.591  11.588  20.320  0.00  0.00    +0.000 A 
ATOM     15  N   UNL     1      -0.821  10.532  21.116  0.00  0.00    +0.000 NA
ATOM     16  C   UNL     1      -0.048   9.427  20.899  0.00  0.00    +0.000 A 
ATOM     17  C   UNL     1      -0.447   8.269  21.762  0.00  0.00    +0.000 C 
ATOM     18  C   UNL     1       0.949   9.375  19.891  0.00  0.00    +0.000 A 
ATOM     19  N   UNL     1       1.171  10.486  19.136  0.00  0.00    +0.000 NA
ENDBRANCH   1  18
BRANCH  10  20
ATOM     20  C   UNL     1       4.726   3.922  18.212  0.00  0.00    +0.000 C 
BRANCH  20  21
ATOM     21  C   UNL     1       5.469   4.597  17.049  0.00  0.00    +0.000 C 
BRANCH  21  22
ATOM     22  C   UNL     1       6.457   5.610  17.519  0.00  0.00    +0.000 A 
ATOM     23  C   UNL     1       7.316   5.552  18.598  0.00  0.00    +0.000 A 
ATOM     24  N   UNL     1       7.999   6.737  18.573  0.00  0.00    +0.000 N 
ATOM     25  C   UNL     1       7.539   7.458  17.504  0.00  0.00    +0.000 A 
ATOM     26  N   UNL     1       6.605   6.806  16.852  0.00  0.00    +0.000 NA
ATOM     27  H   UNL     1       8.723   7.038  19.218  0.00  0.00    +0.000 HD
ENDBRANCH  21  22
ENDBRANCH  20  21
ENDBRANCH  10  20
TORSDOF 4
ENDMDL
MODEL 8
REMARK VINA RESULT:      -7.2      2.306      7.793
REMARK  Name = 
REMARK  6 active torsions:
REMARK  status: ('A' for Active; 'I' for Inactive)
REMARK    1  A    between atoms: C_1  and  C_2
REMARK    2  A    between atoms: C_5  and  C_6
REMARK    3  A    between atoms: C_7  and  N_8
REMARK    4  A    between atoms: N_17  and  C_18
REMARK    5  A    between atoms: C_18  and  C_19
REMARK    6  A    between atoms: C_19  and  C_20
REMARK                            x       y       z     vdW  Elec       q    Type
REMARK                         _______ _______ _______ _____ _____    ______ ____
ROOT
ATOM      1  N   UNL     1       1.605   8.080  19.331  0.00  0.00    +0.000 N 
ATOM      2  C   UNL     1       2.552   8.242  18.211  0.00  0.00    +0.000 C 
ATOM      3  C   UNL     1       3.024   6.855  17.742  0.00  0.00    +0.000 C 
ATOM      4  C   UNL     1       3.567   6.008  18.911  0.00  0.00    +0.000 C 
ATOM      5  C   UNL     1       2.591   5.987  20.085  0.00  0.00    +0.000 C 
ATOM      6  C   UNL     1       1.340   5.145  19.766  0.00  0.00    +0.000 C 
ATOM      7  C   UNL     1       1.474   4.081  18.679  0.00  0.00    +0.000 C 
ATOM      8  C   UNL     1       2.866   3.732  18.210  0.00  0.00    +0.000 C 
ATOM      9  O   UNL     1       3.062   2.687  17.586  0.00  0.00    +0.000 OA
ATOM     10  N   UNL     1       3.873   4.619  18.536  0.00  0.00    +0.000 N 
ATOM     11  C   UNL     1       2.221   7.426  20.490  0.00  0.00    +0.000 C 
ENDROOT
BRANCH   1  18
ATOM     12  C   UNL     1      -1.416  11.385  17.544  0.00  0.00    +0.000 C 
ATOM     13  C   UNL     1      -0.759  10.742  18.726  0.00  0.00    +0.000 A 
ATOM     14  C   UNL     1      -1.112  11.114  20.009  0.00  0.00    +0.000 A 
ATOM     15  N   UNL     1      -0.526  10.589  21.096  0.00  0.00    +0.000 NA
ATOM     16  C   UNL     1       0.417   9.626  20.873  0.00  0.00    +0.000 A 
ATOM     17  C   UNL     1       0.939   9.027  22.143  0.00  0.00    +0.000 C 
ATOM     18  C   UNL     1       0.773   9.189  19.571  0.00  0.00    +0.000 A 
ATOM     19  N   UNL     1       0.178   9.782  18.499  0.00  0.00    +0.000 NA
ENDBRANCH   1  18
BRANCH  10  20
ATOM     20  C   UNL     1       5.253   4.107  18.615  0.00  0.00    +0.000 C 
BRANCH  20  21
ATOM     21  C   UNL     1       6.275   5.020  17.919  0.00  0.00    +0.000 C 
BRANCH  21  22
ATOM     22  C   UNL     1       6.450   4.679  16.478  0.00  0.00    +0.000 A 
ATOM     23  C   UNL     1       5.882   3.651  15.752  0.00  0.00    +0.000 A 
ATOM     24  N   UNL     1       6.375   3.797  14.484  0.00  0.00    +0.000 N 
ATOM     25  C   UNL     1       7.206   4.883  14.485  0.00  0.00    +0.000 A 
ATOM     26  N   UNL     1       7.277   5.434  15.675  0.00  0.00    +0.000 NA
ATOM     27  H   UNL     1       6.164   3.217  13.678  0.00  0.00    +0.000 HD
ENDBRANCH  21  22
ENDBRANCH  20  21
ENDBRANCH  10  20
TORSDOF 4
ENDMDL
MODEL 9
REMARK VINA RESULT:      -7.0      2.617      8.488
REMARK  Name = 
REMARK  6 active torsions:
REMARK  status: ('A' for Active; 'I' for Inactive)
REMARK    1  A    between atoms: C_1  and  C_2
REMARK    2  A    between atoms: C_5  and  C_6
REMARK    3  A    between atoms: C_7  and  N_8
REMARK    4  A    between atoms: N_17  and  C_18
REMARK    5  A    between atoms: C_18  and  C_19
REMARK    6  A    between atoms: C_19  and  C_20
REMARK                            x       y       z     vdW  Elec       q    Type
REMARK                         _______ _______ _______ _____ _____    ______ ____
ROOT
ATOM      1  N   UNL     1       3.210   6.909  18.450  0.00  0.00    +0.000 N 
ATOM      2  C   UNL     1       2.931   5.465  18.576  0.00  0.00    +0.000 C 
ATOM      3  C   UNL     1       4.188   4.671  18.180  0.00  0.00    +0.000 C 
ATOM      4  C   UNL     1       4.723   5.094  16.796  0.00  0.00    +0.000 C 
ATOM      5  C   UNL     1       4.868   6.610  16.694  0.00  0.00    +0.000 C 
ATOM      6  C   UNL     1       6.041   7.126  17.550  0.00  0.00    +0.000 C 
ATOM      7  C   UNL     1       7.148   6.130  17.889  0.00  0.00    +0.000 C 
ATOM      8  C   UNL     1       7.168   4.823  17.133  0.00  0.00    +0.000 C 
ATOM      9  O   UNL     1       8.188   4.130  17.126  0.00  0.00    +0.000 OA
ATOM     10  N   UNL     1       6.015   4.479  16.455  0.00  0.00    +0.000 N 
ATOM     11  C   UNL     1       3.542   7.294  17.074  0.00  0.00    +0.000 C 
ENDROOT
BRANCH   1  18
ATOM     12  C   UNL     1       0.657  10.995  18.603  0.00  0.00    +0.000 C 
ATOM     13  C   UNL     1       1.033   9.685  19.222  0.00  0.00    +0.000 A 
ATOM     14  C   UNL     1       0.399   9.247  20.368  0.00  0.00    +0.000 A 
ATOM     15  N   UNL     1       0.727   8.096  20.975  0.00  0.00    +0.000 NA
ATOM     16  C   UNL     1       1.700   7.348  20.375  0.00  0.00    +0.000 A 
ATOM     17  C   UNL     1       1.924   6.037  21.064  0.00  0.00    +0.000 C 
ATOM     18  C   UNL     1       2.341   7.746  19.173  0.00  0.00    +0.000 A 
ATOM     19  N   UNL     1       2.000   8.942  18.619  0.00  0.00    +0.000 NA
ENDBRANCH   1  18
BRANCH  10  20
ATOM     20  C   UNL     1       6.131   3.570  15.300  0.00  0.00    +0.000 C 
BRANCH  20  21
ATOM     21  C   UNL     1       6.387   4.307  13.976  0.00  0.00    +0.000 C 
BRANCH  21  22
ATOM     22  C   UNL     1       5.901   3.536  12.796  0.00  0.00    +0.000 A 
ATOM     23  C   UNL     1       6.586   2.642  11.997  0.00  0.00    +0.000 A 
ATOM     24  N   UNL     1       5.674   2.224  11.068  0.00  0.00    +0.000 N 
ATOM     25  C   UNL     1       4.494   2.865  11.327  0.00  0.00    +0.000 A 
ATOM     26  N   UNL     1       4.600   3.667  12.361  0.00  0.00    +0.000 NA
ATOM     27  H   UNL     1       5.829   1.554  10.320  0.00  0.00    +0.000 HD
ENDBRANCH  21  22
ENDBRANCH  20  21
ENDBRANCH  10  20
TORSDOF 4
ENDMDL
