MODEL 1
REMARK VINA RESULT:      -7.1      0.000      0.000
REMARK  Name = 
REMARK  9 active torsions:
REMARK  status: ('A' for Active; 'I' for Inactive)
REMARK    1  A    between atoms: C_1  and  C_2
REMARK    2  A    between atoms: C_3  and  C_4
REMARK    3  A    between atoms: N_6  and  C_7
REMARK    4  A    between atoms: C_7  and  C_8
REMARK    5  A    between atoms: C_8  and  C_9
REMARK    6  A    between atoms: C_9  and  C_10
REMARK    7  A    between atoms: N_29  and  C_30
REMARK    8  A    between atoms: C_30  and  C_31
REMARK    9  A    between atoms: C_31  and  O_33
REMARK                            x       y       z     vdW  Elec       q    Type
REMARK                         _______ _______ _______ _____ _____    ______ ____
ROOT
ATOM      1  C   UNL     1      -1.699  12.853  20.148  0.00  0.00    +0.000 A 
ATOM      2  C   UNL     1      -1.223  11.593  20.002  0.00  0.00    +0.000 A 
ATOM      3  N   UNL     1       0.051  11.315  19.541  0.00  0.00    +0.000 N 
ATOM      4  C   UNL     1       0.945  12.317  19.205  0.00  0.00    +0.000 A 
ATOM      5  O   UNL     1       2.099  12.102  18.838  0.00  0.00    +0.000 OA
ATOM      6  C   UNL     1       0.427  13.714  19.288  0.00  0.00    +0.000 A 
ATOM      7  C   UNL     1      -0.816  13.969  19.742  0.00  0.00    +0.000 A 
ATOM      8  C   UNL     1      -1.322  15.383  19.830  0.00  0.00    +0.000 C 
ATOM      9  C   UNL     1      -0.367  16.520  19.429  0.00  0.00    +0.000 C 
ATOM     10  C   UNL     1       0.980  16.178  18.808  0.00  0.00    +0.000 C 
ATOM     11  C   UNL     1       1.414  14.726  18.806  0.00  0.00    +0.000 C 
ENDROOT
BRANCH   1  14
ATOM     12  C   UNL     1      -2.420  14.157  22.958  0.00  0.00    +0.000 C 
ATOM     13  C   UNL     1      -3.318  13.528  21.947  0.00  0.00    +0.000 A 
ATOM     14  C   UNL     1      -3.035  13.019  20.685  0.00  0.00    +0.000 A 
ATOM     15  C   UNL     1      -4.277  12.613  20.099  0.00  0.00    +0.000 A 
ATOM     16  C   UNL     1      -4.644  12.072  18.849  0.00  0.00    +0.000 A 
ATOM     17  C   UNL     1      -5.984  11.776  18.601  0.00  0.00    +0.000 A 
ATOM     18  F   UNL     1      -6.335  11.292  17.401  0.00  0.00    +0.000 F 
ATOM     19  C   UNL     1      -6.963  11.969  19.562  0.00  0.00    +0.000 A 
ATOM     20  C   UNL     1      -6.627  12.480  20.818  0.00  0.00    +0.000 A 
ATOM     21  C   UNL     1      -5.279  12.805  21.062  0.00  0.00    +0.000 A 
ATOM     22  N   UNL     1      -4.663  13.315  22.192  0.00  0.00    +0.000 N 
BRANCH  22  23
ATOM     23  C   UNL     1      -5.347  13.560  23.461  0.00  0.00    +0.000 C 
BRANCH  23  24
ATOM     24  C   UNL     1      -5.700  12.331  24.260  0.00  0.00    +0.000 C 
ATOM     25  O   UNL     1      -6.842  11.893  24.294  0.00  0.00    +0.000 OA
BRANCH  24  26
ATOM     26  O   UNL     1      -4.717  11.744  24.973  0.00  0.00    +0.000 OA
ATOM     27  H   UNL     1      -4.091  12.344  25.424  0.00  0.00    +0.000 HD
ENDBRANCH  24  26
ENDBRANCH  23  24
ENDBRANCH  22  23
ENDBRANCH   1  14
BRANCH   3  28
ATOM     28  C   UNL     1       0.506   9.940  19.361  0.00  0.00    +0.000 C 
BRANCH  28  29
ATOM     29  C   UNL     1       0.425   9.091  20.638  0.00  0.00    +0.000 C 
BRANCH  29  30
ATOM     30  C   UNL     1       0.819   9.808  21.927  0.00  0.00    +0.000 C 
BRANCH  30  31
ATOM     31  C   UNL     1      -0.171   9.648  23.063  0.00  0.00    +0.000 C 
ATOM     32  F   UNL     1       0.417   9.324  24.232  0.00  0.00    +0.000 F 
ATOM     33  F   UNL     1      -0.858  10.794  23.264  0.00  0.00    +0.000 F 
ATOM     34  F   UNL     1      -1.071   8.681  22.775  0.00  0.00    +0.000 F 
ENDBRANCH  30  31
ENDBRANCH  29  30
ENDBRANCH  28  29
ENDBRANCH   3  28
TORSDOF 8
ENDMDL
MODEL 2
REMARK VINA RESULT:      -7.0      1.849      2.305
REMARK  Name = 
REMARK  9 active torsions:
REMARK  status: ('A' for Active; 'I' for Inactive)
REMARK    1  A    between atoms: C_1  and  C_2
REMARK    2  A    between atoms: C_3  and  C_4
REMARK    3  A    between atoms: N_6  and  C_7
REMARK    4  A    between atoms: C_7  and  C_8
REMARK    5  A    between atoms: C_8  and  C_9
REMARK    6  A    between atoms: C_9  and  C_10
REMARK    7  A    between atoms: N_29  and  C_30
REMARK    8  A    between atoms: C_30  and  C_31
REMARK    9  A    between atoms: C_31  and  O_33
REMARK                            x       y       z     vdW  Elec       q    Type
REMARK                         _______ _______ _______ _____ _____    ______ ____
ROOT
ATOM      1  C   UNL     1      -1.822  13.413  20.656  0.00  0.00    +0.000 A 
ATOM      2  C   UNL     1      -1.103  12.267  20.731  0.00  0.00    +0.000 A 
ATOM      3  N   UNL     1       0.248  12.201  20.443  0.00  0.00    +0.000 N 
ATOM      4  C   UNL     1       0.973  13.318  20.064  0.00  0.00    +0.000 A 
ATOM      5  O   UNL     1       2.183  13.300  19.847  0.00  0.00    +0.000 OA
ATOM      6  C   UNL     1       0.195  14.582  19.903  0.00  0.00    +0.000 A 
ATOM      7  C   UNL     1      -1.120  14.631  20.191  0.00  0.00    +0.000 A 
ATOM      8  C   UNL     1      -1.889  15.914  20.035  0.00  0.00    +0.000 C 
ATOM      9  C   UNL     1      -1.123  17.166  19.580  0.00  0.00    +0.000 C 
ATOM     10  C   UNL     1       0.332  17.035  19.149  0.00  0.00    +0.000 C 
ATOM     11  C   UNL     1       1.027  15.710  19.389  0.00  0.00    +0.000 C 
ENDROOT
BRANCH   1  14
ATOM     12  C   UNL     1      -3.071  14.610  23.325  0.00  0.00    +0.000 C 
ATOM     13  C   UNL     1      -3.730  13.834  22.235  0.00  0.00    +0.000 A 
ATOM     14  C   UNL     1      -3.221  13.366  21.030  0.00  0.00    +0.000 A 
ATOM     15  C   UNL     1      -4.304  12.759  20.315  0.00  0.00    +0.000 A 
ATOM     16  C   UNL     1      -4.428  12.153  19.047  0.00  0.00    +0.000 A 
ATOM     17  C   UNL     1      -5.664  11.642  18.654  0.00  0.00    +0.000 A 
ATOM     18  F   UNL     1      -5.789  11.095  17.435  0.00  0.00    +0.000 F 
ATOM     19  C   UNL     1      -6.769  11.683  19.489  0.00  0.00    +0.000 A 
ATOM     20  C   UNL     1      -6.671  12.254  20.760  0.00  0.00    +0.000 A 
ATOM     21  C   UNL     1      -5.432  12.795  21.149  0.00  0.00    +0.000 A 
ATOM     22  N   UNL     1      -5.044  13.410  22.328  0.00  0.00    +0.000 N 
BRANCH  22  23
ATOM     23  C   UNL     1      -5.904  13.553  23.501  0.00  0.00    +0.000 C 
BRANCH  23  24
ATOM     24  C   UNL     1      -6.090  12.307  24.331  0.00  0.00    +0.000 C 
ATOM     25  O   UNL     1      -7.112  11.637  24.264  0.00  0.00    +0.000 OA
BRANCH  24  26
ATOM     26  O   UNL     1      -5.101  11.971  25.184  0.00  0.00    +0.000 OA
ATOM     27  H   UNL     1      -5.361  11.834  26.116  0.00  0.00    +0.000 HD
ENDBRANCH  24  26
ENDBRANCH  23  24
ENDBRANCH  22  23
ENDBRANCH   1  14
BRANCH   3  28
ATOM     28  C   UNL     1       0.971  10.935  20.498  0.00  0.00    +0.000 C 
BRANCH  28  29
ATOM     29  C   UNL     1       0.258   9.784  19.774  0.00  0.00    +0.000 C 
BRANCH  29  30
ATOM     30  C   UNL     1       0.134   9.941  18.260  0.00  0.00    +0.000 C 
BRANCH  30  31
ATOM     31  C   UNL     1      -1.275  10.208  17.769  0.00  0.00    +0.000 C 
ATOM     32  F   UNL     1      -2.221   9.797  18.637  0.00  0.00    +0.000 F 
ATOM     33  F   UNL     1      -1.467  11.529  17.562  0.00  0.00    +0.000 F 
ATOM     34  F   UNL     1      -1.495   9.577  16.594  0.00  0.00    +0.000 F 
ENDBRANCH  30  31
ENDBRANCH  29  30
ENDBRANCH  28  29
ENDBRANCH   3  28
TORSDOF 8
ENDMDL
MODEL 3
REMARK VINA RESULT:      -6.7      0.869      1.125
REMARK  Name = 
REMARK  9 active torsions:
REMARK  status: ('A' for Active; 'I' for Inactive)
REMARK    1  A    between atoms: C_1  and  C_2
REMARK    2  A    between atoms: C_3  and  C_4
REMARK    3  A    between atoms: N_6  and  C_7
REMARK    4  A    between atoms: C_7  and  C_8
REMARK    5  A    between atoms: C_8  and  C_9
REMARK    6  A    between atoms: C_9  and  C_10
REMARK    7  A    between atoms: N_29  and  C_30
REMARK    8  A    between atoms: C_30  and  C_31
REMARK    9  A    between atoms: C_31  and  O_33
REMARK                            x       y       z     vdW  Elec       q    Type
REMARK                         _______ _______ _______ _____ _____    ______ ____
ROOT
ATOM      1  C   UNL     1      -1.715  12.978  20.354  0.00  0.00    +0.000 A 
ATOM      2  C   UNL     1      -1.079  11.793  20.191  0.00  0.00    +0.000 A 
ATOM      3  N   UNL     1       0.215  11.688  19.717  0.00  0.00    +0.000 N 
ATOM      4  C   UNL     1       0.967  12.801  19.383  0.00  0.00    +0.000 A 
ATOM      5  O   UNL     1       2.136  12.742  19.003  0.00  0.00    +0.000 OA
ATOM      6  C   UNL     1       0.271  14.118  19.484  0.00  0.00    +0.000 A 
ATOM      7  C   UNL     1      -0.989  14.204  19.951  0.00  0.00    +0.000 A 
ATOM      8  C   UNL     1      -1.675  15.539  20.058  0.00  0.00    +0.000 C 
ATOM      9  C   UNL     1      -0.881  16.794  19.660  0.00  0.00    +0.000 C 
ATOM     10  C   UNL     1       0.493  16.637  19.023  0.00  0.00    +0.000 C 
ATOM     11  C   UNL     1       1.113  15.254  19.004  0.00  0.00    +0.000 C 
ENDROOT
BRANCH   1  14
ATOM     12  C   UNL     1      -2.514  13.820  23.315  0.00  0.00    +0.000 C 
ATOM     13  C   UNL     1      -3.368  13.269  22.224  0.00  0.00    +0.000 A 
ATOM     14  C   UNL     1      -3.055  12.963  20.905  0.00  0.00    +0.000 A 
ATOM     15  C   UNL     1      -4.267  12.547  20.264  0.00  0.00    +0.000 A 
ATOM     16  C   UNL     1      -4.600  12.157  18.949  0.00  0.00    +0.000 A 
ATOM     17  C   UNL     1      -5.914  11.794  18.659  0.00  0.00    +0.000 A 
ATOM     18  F   UNL     1      -6.236  11.455  17.401  0.00  0.00    +0.000 F 
ATOM     19  C   UNL     1      -6.898  11.775  19.634  0.00  0.00    +0.000 A 
ATOM     20  C   UNL     1      -6.594  12.132  20.949  0.00  0.00    +0.000 A 
ATOM     21  C   UNL     1      -5.274  12.525  21.240  0.00  0.00    +0.000 A 
ATOM     22  N   UNL     1      -4.690  12.920  22.432  0.00  0.00    +0.000 N 
BRANCH  22  23
ATOM     23  C   UNL     1      -5.382  12.933  23.721  0.00  0.00    +0.000 C 
BRANCH  23  24
ATOM     24  C   UNL     1      -6.249  14.138  23.985  0.00  0.00    +0.000 C 
ATOM     25  O   UNL     1      -7.466  14.091  23.870  0.00  0.00    +0.000 OA
BRANCH  24  26
ATOM     26  O   UNL     1      -5.633  15.291  24.318  0.00  0.00    +0.000 OA
ATOM     27  H   UNL     1      -6.166  16.106  24.236  0.00  0.00    +0.000 HD
ENDBRANCH  24  26
ENDBRANCH  23  24
ENDBRANCH  22  23
ENDBRANCH   1  14
BRANCH   3  28
ATOM     28  C   UNL     1       0.844  10.386  19.519  0.00  0.00    +0.000 C 
BRANCH  28  29
ATOM     29  C   UNL     1       0.431   9.337  20.561  0.00  0.00    +0.000 C 
BRANCH  29  30
ATOM     30  C   UNL     1       0.951   9.580  21.976  0.00  0.00    +0.000 C 
BRANCH  30  31
ATOM     31  C   UNL     1      -0.118   9.565  23.049  0.00  0.00    +0.000 C 
ATOM     32  F   UNL     1      -0.733  10.756  23.195  0.00  0.00    +0.000 F 
ATOM     33  F   UNL     1      -1.074   8.654  22.761  0.00  0.00    +0.000 F 
ATOM     34  F   UNL     1       0.414   9.230  24.246  0.00  0.00    +0.000 F 
ENDBRANCH  30  31
ENDBRANCH  29  30
ENDBRANCH  28  29
ENDBRANCH   3  28
TORSDOF 8
ENDMDL
MODEL 4
REMARK VINA RESULT:      -6.7      2.104      2.441
REMARK  Name = 
REMARK  9 active torsions:
REMARK  status: ('A' for Active; 'I' for Inactive)
REMARK    1  A    between atoms: C_1  and  C_2
REMARK    2  A    between atoms: C_3  and  C_4
REMARK    3  A    between atoms: N_6  and  C_7
REMARK    4  A    between atoms: C_7  and  C_8
REMARK    5  A    between atoms: C_8  and  C_9
REMARK    6  A    between atoms: C_9  and  C_10
REMARK    7  A    between atoms: N_29  and  C_30
REMARK    8  A    between atoms: C_30  and  C_31
REMARK    9  A    between atoms: C_31  and  O_33
REMARK                            x       y       z     vdW  Elec       q    Type
REMARK                         _______ _______ _______ _____ _____    ______ ____
ROOT
ATOM      1  C   UNL     1      -2.000  13.038  20.993  0.00  0.00    +0.000 A 
ATOM      2  C   UNL     1      -1.351  11.874  21.238  0.00  0.00    +0.000 A 
ATOM      3  N   UNL     1       0.027  11.759  21.228  0.00  0.00    +0.000 N 
ATOM      4  C   UNL     1       0.851  12.841  20.978  0.00  0.00    +0.000 A 
ATOM      5  O   UNL     1       2.080  12.781  21.008  0.00  0.00    +0.000 OA
ATOM      6  C   UNL     1       0.167  14.123  20.634  0.00  0.00    +0.000 A 
ATOM      7  C   UNL     1      -1.176  14.219  20.652  0.00  0.00    +0.000 A 
ATOM      8  C   UNL     1      -1.853  15.520  20.314  0.00  0.00    +0.000 C 
ATOM      9  C   UNL     1      -0.967  16.735  19.994  0.00  0.00    +0.000 C 
ATOM     10  C   UNL     1       0.539  16.548  19.867  0.00  0.00    +0.000 C 
ATOM     11  C   UNL     1       1.125  15.210  20.273  0.00  0.00    +0.000 C 
ENDROOT
BRANCH   1  14
ATOM     12  C   UNL     1      -3.711  14.198  23.411  0.00  0.00    +0.000 C 
ATOM     13  C   UNL     1      -4.168  13.493  22.179  0.00  0.00    +0.000 A 
ATOM     14  C   UNL     1      -3.446  13.044  21.079  0.00  0.00    +0.000 A 
ATOM     15  C   UNL     1      -4.387  12.514  20.138  0.00  0.00    +0.000 A 
ATOM     16  C   UNL     1      -4.279  11.961  18.845  0.00  0.00    +0.000 A 
ATOM     17  C   UNL     1      -5.430  11.522  18.192  0.00  0.00    +0.000 A 
ATOM     18  F   UNL     1      -5.329  11.026  16.950  0.00  0.00    +0.000 F 
ATOM     19  C   UNL     1      -6.677  11.586  18.792  0.00  0.00    +0.000 A 
ATOM     20  C   UNL     1      -6.813  12.107  20.081  0.00  0.00    +0.000 A 
ATOM     21  C   UNL     1      -5.657  12.575  20.732  0.00  0.00    +0.000 A 
ATOM     22  N   UNL     1      -5.489  13.128  21.990  0.00  0.00    +0.000 N 
BRANCH  22  23
ATOM     23  C   UNL     1      -6.561  13.270  22.975  0.00  0.00    +0.000 C 
BRANCH  23  24
ATOM     24  C   UNL     1      -6.809  12.066  23.848  0.00  0.00    +0.000 C 
ATOM     25  O   UNL     1      -7.847  11.423  23.776  0.00  0.00    +0.000 OA
BRANCH  24  26
ATOM     26  O   UNL     1      -5.858  11.739  24.747  0.00  0.00    +0.000 OA
ATOM     27  H   UNL     1      -5.923  10.848  25.142  0.00  0.00    +0.000 HD
ENDBRANCH  24  26
ENDBRANCH  23  24
ENDBRANCH  22  23
ENDBRANCH   1  14
BRANCH   3  28
ATOM     28  C   UNL     1       0.679  10.473  21.457  0.00  0.00    +0.000 C 
BRANCH  28  29
ATOM     29  C   UNL     1       0.353   9.417  20.391  0.00  0.00    +0.000 C 
BRANCH  29  30
ATOM     30  C   UNL     1       1.535   8.960  19.540  0.00  0.00    +0.000 C 
BRANCH  30  31
ATOM     31  C   UNL     1       1.421   9.306  18.069  0.00  0.00    +0.000 C 
ATOM     32  F   UNL     1       0.157   9.585  17.691  0.00  0.00    +0.000 F 
ATOM     33  F   UNL     1       2.176  10.386  17.771  0.00  0.00    +0.000 F 
ATOM     34  F   UNL     1       1.860   8.281  17.305  0.00  0.00    +0.000 F 
ENDBRANCH  30  31
ENDBRANCH  29  30
ENDBRANCH  28  29
ENDBRANCH   3  28
TORSDOF 8
ENDMDL
MODEL 5
REMARK VINA RESULT:      -6.7      1.986      2.442
REMARK  Name = 
REMARK  9 active torsions:
REMARK  status: ('A' for Active; 'I' for Inactive)
REMARK    1  A    between atoms: C_1  and  C_2
REMARK    2  A    between atoms: C_3  and  C_4
REMARK    3  A    between atoms: N_6  and  C_7
REMARK    4  A    between atoms: C_7  and  C_8
REMARK    5  A    between atoms: C_8  and  C_9
REMARK    6  A    between atoms: C_9  and  C_10
REMARK    7  A    between atoms: N_29  and  C_30
REMARK    8  A    between atoms: C_30  and  C_31
REMARK    9  A    between atoms: C_31  and  O_33
REMARK                            x       y       z     vdW  Elec       q    Type
REMARK                         _______ _______ _______ _____ _____    ______ ____
ROOT
ATOM      1  C   UNL     1      -1.698  13.099  20.359  0.00  0.00    +0.000 A 
ATOM      2  C   UNL     1      -1.079  11.894  20.348  0.00  0.00    +0.000 A 
ATOM      3  N   UNL     1       0.241  11.725  19.973  0.00  0.00    +0.000 N 
ATOM      4  C   UNL     1       1.037  12.790  19.591  0.00  0.00    +0.000 A 
ATOM      5  O   UNL     1       2.227  12.678  19.297  0.00  0.00    +0.000 OA
ATOM      6  C   UNL     1       0.366  14.122  19.524  0.00  0.00    +0.000 A 
ATOM      7  C   UNL     1      -0.921  14.271  19.896  0.00  0.00    +0.000 A 
ATOM      8  C   UNL     1      -1.582  15.621  19.834  0.00  0.00    +0.000 C 
ATOM      9  C   UNL     1      -0.737  16.821  19.378  0.00  0.00    +0.000 C 
ATOM     10  C   UNL     1       0.672  16.584  18.852  0.00  0.00    +0.000 C 
ATOM     11  C   UNL     1       1.262  15.195  19.000  0.00  0.00    +0.000 C 
ENDROOT
BRANCH   1  14
ATOM     12  C   UNL     1      -2.690  14.392  23.091  0.00  0.00    +0.000 C 
ATOM     13  C   UNL     1      -3.470  13.664  22.048  0.00  0.00    +0.000 A 
ATOM     14  C   UNL     1      -3.072  13.156  20.818  0.00  0.00    +0.000 A 
ATOM     15  C   UNL     1      -4.238  12.629  20.175  0.00  0.00    +0.000 A 
ATOM     16  C   UNL     1      -4.484  12.032  18.921  0.00  0.00    +0.000 A 
ATOM     17  C   UNL     1      -5.776  11.612  18.608  0.00  0.00    +0.000 A 
ATOM     18  F   UNL     1      -6.015  11.073  17.402  0.00  0.00    +0.000 F 
ATOM     19  C   UNL     1      -6.822  11.737  19.508  0.00  0.00    +0.000 A 
ATOM     20  C   UNL     1      -6.604  12.302  20.766  0.00  0.00    +0.000 A 
ATOM     21  C   UNL     1      -5.307  12.751  21.076  0.00  0.00    +0.000 A 
ATOM     22  N   UNL     1      -4.803  13.338  22.224  0.00  0.00    +0.000 N 
BRANCH  22  23
ATOM     23  C   UNL     1      -5.577  13.547  23.447  0.00  0.00    +0.000 C 
BRANCH  23  24
ATOM     24  C   UNL     1      -5.864  12.309  24.258  0.00  0.00    +0.000 C 
ATOM     25  O   UNL     1      -6.967  11.778  24.253  0.00  0.00    +0.000 OA
BRANCH  24  26
ATOM     26  O   UNL     1      -4.869  11.820  25.027  0.00  0.00    +0.000 OA
ATOM     27  H   UNL     1      -4.466  10.980  24.731  0.00  0.00    +0.000 HD
ENDBRANCH  24  26
ENDBRANCH  23  24
ENDBRANCH  22  23
ENDBRANCH   1  14
BRANCH   3  28
ATOM     28  C   UNL     1       0.852  10.400  19.938  0.00  0.00    +0.000 C 
BRANCH  28  29
ATOM     29  C   UNL     1       0.687   9.681  18.592  0.00  0.00    +0.000 C 
BRANCH  29  30
ATOM     30  C   UNL     1       1.989   9.301  17.889  0.00  0.00    +0.000 C 
BRANCH  30  31
ATOM     31  C   UNL     1       2.485   7.903  18.199  0.00  0.00    +0.000 C 
ATOM     32  F   UNL     1       1.723   6.939  17.643  0.00  0.00    +0.000 F 
ATOM     33  F   UNL     1       3.745   7.730  17.744  0.00  0.00    +0.000 F 
ATOM     34  F   UNL     1       2.504   7.691  19.534  0.00  0.00    +0.000 F 
ENDBRANCH  30  31
ENDBRANCH  29  30
ENDBRANCH  28  29
ENDBRANCH   3  28
TORSDOF 8
ENDMDL
MODEL 6
REMARK VINA RESULT:      -6.6      7.966     12.477
REMARK  Name = 
REMARK  9 active torsions:
REMARK  status: ('A' for Active; 'I' for Inactive)
REMARK    1  A    between atoms: C_1  and  C_2
REMARK    2  A    between atoms: C_3  and  C_4
REMARK    3  A    between atoms: N_6  and  C_7
REMARK    4  A    between atoms: C_7  and  C_8
REMARK    5  A    between atoms: C_8  and  C_9
REMARK    6  A    between atoms: C_9  and  C_10
REMARK    7  A    between atoms: N_29  and  C_30
REMARK    8  A    between atoms: C_30  and  C_31
REMARK    9  A    between atoms: C_31  and  O_33
REMARK                            x       y       z     vdW  Elec       q    Type
REMARK                         _______ _______ _______ _____ _____    ______ ____
ROOT
ATOM      1  C   UNL     1       7.662  14.247  21.182  0.00  0.00    +0.000 A 
ATOM      2  C   UNL     1       6.594  14.986  20.795  0.00  0.00    +0.000 A 
ATOM      3  N   UNL     1       5.445  15.109  21.555  0.00  0.00    +0.000 N 
ATOM      4  C   UNL     1       5.308  14.490  22.785  0.00  0.00    +0.000 A 
ATOM      5  O   UNL     1       4.319  14.619  23.504  0.00  0.00    +0.000 OA
ATOM      6  C   UNL     1       6.439  13.612  23.207  0.00  0.00    +0.000 A 
ATOM      7  C   UNL     1       7.553  13.505  22.458  0.00  0.00    +0.000 A 
ATOM      8  C   UNL     1       8.690  12.624  22.901  0.00  0.00    +0.000 C 
ATOM      9  C   UNL     1       8.556  11.891  24.246  0.00  0.00    +0.000 C 
ATOM     10  C   UNL     1       7.232  11.946  24.997  0.00  0.00    +0.000 C 
ATOM     11  C   UNL     1       6.167  12.898  24.490  0.00  0.00    +0.000 C 
ENDROOT
BRANCH   1  14
ATOM     12  C   UNL     1       9.654  16.683  20.716  0.00  0.00    +0.000 C 
ATOM     13  C   UNL     1       9.643  15.333  20.082  0.00  0.00    +0.000 A 
ATOM     14  C   UNL     1       8.829  14.233  20.323  0.00  0.00    +0.000 A 
ATOM     15  C   UNL     1       9.302  13.162  19.498  0.00  0.00    +0.000 A 
ATOM     16  C   UNL     1       8.926  11.814  19.325  0.00  0.00    +0.000 A 
ATOM     17  C   UNL     1       9.615  11.026  18.403  0.00  0.00    +0.000 A 
ATOM     18  F   UNL     1       9.277   9.735  18.264  0.00  0.00    +0.000 F 
ATOM     19  C   UNL     1      10.640  11.541  17.626  0.00  0.00    +0.000 A 
ATOM     20  C   UNL     1      11.018  12.880  17.756  0.00  0.00    +0.000 A 
ATOM     21  C   UNL     1      10.343  13.670  18.705  0.00  0.00    +0.000 A 
ATOM     22  N   UNL     1      10.497  15.003  19.045  0.00  0.00    +0.000 N 
BRANCH  22  23
ATOM     23  C   UNL     1      11.415  15.922  18.373  0.00  0.00    +0.000 C 
BRANCH  23  24
ATOM     24  C   UNL     1      10.861  16.629  17.162  0.00  0.00    +0.000 C 
ATOM     25  O   UNL     1      10.400  17.760  17.234  0.00  0.00    +0.000 OA
BRANCH  24  26
ATOM     26  O   UNL     1      10.855  15.957  15.992  0.00  0.00    +0.000 OA
ATOM     27  H   UNL     1      10.828  16.500  15.180  0.00  0.00    +0.000 HD
ENDBRANCH  24  26
ENDBRANCH  23  24
ENDBRANCH  22  23
ENDBRANCH   1  14
BRANCH   3  28
ATOM     28  C   UNL     1       4.304  15.883  21.077  0.00  0.00    +0.000 C 
BRANCH  28  29
ATOM     29  C   UNL     1       4.458  16.383  19.633  0.00  0.00    +0.000 C 
BRANCH  29  30
ATOM     30  C   UNL     1       4.383  15.303  18.556  0.00  0.00    +0.000 C 
BRANCH  30  31
ATOM     31  C   UNL     1       3.115  15.331  17.726  0.00  0.00    +0.000 C 
ATOM     32  F   UNL     1       2.153  16.110  18.261  0.00  0.00    +0.000 F 
ATOM     33  F   UNL     1       3.365  15.800  16.484  0.00  0.00    +0.000 F 
ATOM     34  F   UNL     1       2.606  14.085  17.594  0.00  0.00    +0.000 F 
ENDBRANCH  30  31
ENDBRANCH  29  30
ENDBRANCH  28  29
ENDBRANCH   3  28
TORSDOF 8
ENDMDL
MODEL 7
REMARK VINA RESULT:      -6.6      2.845      4.763
REMARK  Name = 
REMARK  9 active torsions:
REMARK  status: ('A' for Active; 'I' for Inactive)
REMARK    1  A    between atoms: C_1  and  C_2
REMARK    2  A    between atoms: C_3  and  C_4
REMARK    3  A    between atoms: N_6  and  C_7
REMARK    4  A    between atoms: C_7  and  C_8
REMARK    5  A    between atoms: C_8  and  C_9
REMARK    6  A    between atoms: C_9  and  C_10
REMARK    7  A    between atoms: N_29  and  C_30
REMARK    8  A    between atoms: C_30  and  C_31
REMARK    9  A    between atoms: C_31  and  O_33
REMARK                            x       y       z     vdW  Elec       q    Type
REMARK                         _______ _______ _______ _____ _____    ______ ____
ROOT
ATOM      1  C   UNL     1      -2.093  12.608  20.235  0.00  0.00    +0.000 A 
ATOM      2  C   UNL     1      -0.913  11.951  20.129  0.00  0.00    +0.000 A 
ATOM      3  N   UNL     1      -0.682  10.954  19.199  0.00  0.00    +0.000 N 
ATOM      4  C   UNL     1      -1.649  10.561  18.290  0.00  0.00    +0.000 A 
ATOM      5  O   UNL     1      -1.458   9.712  17.421  0.00  0.00    +0.000 OA
ATOM      6  C   UNL     1      -2.984  11.216  18.426  0.00  0.00    +0.000 A 
ATOM      7  C   UNL     1      -3.191  12.188  19.335  0.00  0.00    +0.000 A 
ATOM      8  C   UNL     1      -4.539  12.847  19.454  0.00  0.00    +0.000 C 
ATOM      9  C   UNL     1      -5.647  12.408  18.484  0.00  0.00    +0.000 C 
ATOM     10  C   UNL     1      -5.403  11.224  17.558  0.00  0.00    +0.000 C 
ATOM     11  C   UNL     1      -3.998  10.660  17.482  0.00  0.00    +0.000 C 
ENDROOT
BRANCH   1  14
ATOM     12  C   UNL     1      -0.930  15.552  19.923  0.00  0.00    +0.000 C 
ATOM     13  C   UNL     1      -1.620  14.924  21.086  0.00  0.00    +0.000 A 
ATOM     14  C   UNL     1      -2.199  13.667  21.218  0.00  0.00    +0.000 A 
ATOM     15  C   UNL     1      -2.803  13.608  22.515  0.00  0.00    +0.000 A 
ATOM     16  C   UNL     1      -3.558  12.636  23.205  0.00  0.00    +0.000 A 
ATOM     17  C   UNL     1      -3.997  12.907  24.500  0.00  0.00    +0.000 A 
ATOM     18  F   UNL     1      -4.743  11.995  25.142  0.00  0.00    +0.000 F 
ATOM     19  C   UNL     1      -3.685  14.094  25.143  0.00  0.00    +0.000 A 
ATOM     20  C   UNL     1      -2.918  15.066  24.495  0.00  0.00    +0.000 A 
ATOM     21  C   UNL     1      -2.496  14.806  23.178  0.00  0.00    +0.000 A 
ATOM     22  N   UNL     1      -1.735  15.567  22.306  0.00  0.00    +0.000 N 
BRANCH  22  23
ATOM     23  C   UNL     1      -1.126  16.851  22.653  0.00  0.00    +0.000 C 
BRANCH  23  24
ATOM     24  C   UNL     1       0.264  16.778  23.232  0.00  0.00    +0.000 C 
ATOM     25  O   UNL     1       0.462  16.426  24.387  0.00  0.00    +0.000 OA
BRANCH  24  26
ATOM     26  O   UNL     1       1.291  17.152  22.442  0.00  0.00    +0.000 OA
ATOM     27  H   UNL     1       1.815  17.919  22.746  0.00  0.00    +0.000 HD
ENDBRANCH  24  26
ENDBRANCH  23  24
ENDBRANCH  22  23
ENDBRANCH   1  14
BRANCH   3  28
ATOM     28  C   UNL     1       0.593  10.247  19.151  0.00  0.00    +0.000 C 
BRANCH  28  29
ATOM     29  C   UNL     1       0.767   9.212  20.272  0.00  0.00    +0.000 C 
BRANCH  29  30
ATOM     30  C   UNL     1       0.915   9.790  21.678  0.00  0.00    +0.000 C 
BRANCH  30  31
ATOM     31  C   UNL     1      -0.198   9.409  22.633  0.00  0.00    +0.000 C 
ATOM     32  F   UNL     1      -1.147  10.361  22.742  0.00  0.00    +0.000 F 
ATOM     33  F   UNL     1      -0.812   8.276  22.227  0.00  0.00    +0.000 F 
ATOM     34  F   UNL     1       0.296   9.181  23.871  0.00  0.00    +0.000 F 
ENDBRANCH  30  31
ENDBRANCH  29  30
ENDBRANCH  28  29
ENDBRANCH   3  28
TORSDOF 8
ENDMDL
MODEL 8
REMARK VINA RESULT:      -6.6      9.993     12.159
REMARK  Name = 
REMARK  9 active torsions:
REMARK  status: ('A' for Active; 'I' for Inactive)
REMARK    1  A    between atoms: C_1  and  C_2
REMARK    2  A    between atoms: C_3  and  C_4
REMARK    3  A    between atoms: N_6  and  C_7
REMARK    4  A    between atoms: C_7  and  C_8
REMARK    5  A    between atoms: C_8  and  C_9
REMARK    6  A    between atoms: C_9  and  C_10
REMARK    7  A    between atoms: N_29  and  C_30
REMARK    8  A    between atoms: C_30  and  C_31
REMARK    9  A    between atoms: C_31  and  O_33
REMARK                            x       y       z     vdW  Elec       q    Type
REMARK                         _______ _______ _______ _____ _____    ______ ____
ROOT
ATOM      1  C   UNL     1       9.273  14.376  21.493  0.00  0.00    +0.000 A 
ATOM      2  C   UNL     1      10.420  13.883  20.967  0.00  0.00    +0.000 A 
ATOM      3  N   UNL     1      10.825  14.133  19.669  0.00  0.00    +0.000 N 
ATOM      4  C   UNL     1      10.085  14.925  18.808  0.00  0.00    +0.000 A 
ATOM      5  O   UNL     1      10.443  15.203  17.665  0.00  0.00    +0.000 OA
ATOM      6  C   UNL     1       8.781  15.425  19.334  0.00  0.00    +0.000 A 
ATOM      7  C   UNL     1       8.402  15.176  20.603  0.00  0.00    +0.000 A 
ATOM      8  C   UNL     1       7.089  15.696  21.123  0.00  0.00    +0.000 C 
ATOM      9  C   UNL     1       6.224  16.549  20.182  0.00  0.00    +0.000 C 
ATOM     10  C   UNL     1       6.634  16.700  18.723  0.00  0.00    +0.000 C 
ATOM     11  C   UNL     1       7.996  16.178  18.311  0.00  0.00    +0.000 C 
ENDROOT
BRANCH   1  14
ATOM     12  C   UNL     1       8.167  11.613  22.616  0.00  0.00    +0.000 C 
ATOM     13  C   UNL     1       8.430  12.892  23.336  0.00  0.00    +0.000 A 
ATOM     14  C   UNL     1       8.978  14.085  22.882  0.00  0.00    +0.000 A 
ATOM     15  C   UNL     1       9.087  14.963  24.008  0.00  0.00    +0.000 A 
ATOM     16  C   UNL     1       9.592  16.267  24.193  0.00  0.00    +0.000 A 
ATOM     17  C   UNL     1       9.534  16.847  25.460  0.00  0.00    +0.000 A 
ATOM     18  F   UNL     1      10.044  18.074  25.641  0.00  0.00    +0.000 F 
ATOM     19  C   UNL     1       8.964  16.189  26.538  0.00  0.00    +0.000 A 
ATOM     20  C   UNL     1       8.434  14.907  26.380  0.00  0.00    +0.000 A 
ATOM     21  C   UNL     1       8.515  14.308  25.109  0.00  0.00    +0.000 A 
ATOM     22  N   UNL     1       8.079  13.071  24.663  0.00  0.00    +0.000 N 
BRANCH  22  23
ATOM     23  C   UNL     1       7.331  12.119  25.483  0.00  0.00    +0.000 C 
BRANCH  23  24
ATOM     24  C   UNL     1       5.836  12.122  25.287  0.00  0.00    +0.000 C 
ATOM     25  O   UNL     1       5.158  13.111  25.530  0.00  0.00    +0.000 OA
BRANCH  24  26
ATOM     26  O   UNL     1       5.258  10.977  24.868  0.00  0.00    +0.000 OA
ATOM     27  H   UNL     1       4.282  10.942  24.915  0.00  0.00    +0.000 HD
ENDBRANCH  24  26
ENDBRANCH  23  24
ENDBRANCH  22  23
ENDBRANCH   1  14
BRANCH   3  28
ATOM     28  C   UNL     1      12.049  13.545  19.134  0.00  0.00    +0.000 C 
BRANCH  28  29
ATOM     29  C   UNL     1      11.969  12.025  18.936  0.00  0.00    +0.000 C 
BRANCH  29  30
ATOM     30  C   UNL     1      10.926  11.551  17.926  0.00  0.00    +0.000 C 
BRANCH  30  31
ATOM     31  C   UNL     1       9.643  11.033  18.544  0.00  0.00    +0.000 C 
ATOM     32  F   UNL     1       8.662  11.957  18.572  0.00  0.00    +0.000 F 
ATOM     33  F   UNL     1       9.173   9.971  17.854  0.00  0.00    +0.000 F 
ATOM     34  F   UNL     1       9.859  10.627  19.816  0.00  0.00    +0.000 F 
ENDBRANCH  30  31
ENDBRANCH  29  30
ENDBRANCH  28  29
ENDBRANCH   3  28
TORSDOF 8
ENDMDL
MODEL 9
REMARK VINA RESULT:      -6.6      3.506      6.548
REMARK  Name = 
REMARK  9 active torsions:
REMARK  status: ('A' for Active; 'I' for Inactive)
REMARK    1  A    between atoms: C_1  and  C_2
REMARK    2  A    between atoms: C_3  and  C_4
REMARK    3  A    between atoms: N_6  and  C_7
REMARK    4  A    between atoms: C_7  and  C_8
REMARK    5  A    between atoms: C_8  and  C_9
REMARK    6  A    between atoms: C_9  and  C_10
REMARK    7  A    between atoms: N_29  and  C_30
REMARK    8  A    between atoms: C_30  and  C_31
REMARK    9  A    between atoms: C_31  and  O_33
REMARK                            x       y       z     vdW  Elec       q    Type
REMARK                         _______ _______ _______ _____ _____    ______ ____
ROOT
ATOM      1  C   UNL     1      -1.324  13.374  20.596  0.00  0.00    +0.000 A 
ATOM      2  C   UNL     1      -0.774  14.487  20.055  0.00  0.00    +0.000 A 
ATOM      3  N   UNL     1      -0.862  15.736  20.641  0.00  0.00    +0.000 N 
ATOM      4  C   UNL     1      -1.515  15.937  21.844  0.00  0.00    +0.000 A 
ATOM      5  O   UNL     1      -1.570  17.027  22.413  0.00  0.00    +0.000 OA
ATOM      6  C   UNL     1      -2.194  14.744  22.431  0.00  0.00    +0.000 A 
ATOM      7  C   UNL     1      -2.096  13.533  21.850  0.00  0.00    +0.000 A 
ATOM      8  C   UNL     1      -2.775  12.336  22.458  0.00  0.00    +0.000 C 
ATOM      9  C   UNL     1      -3.542  12.532  23.776  0.00  0.00    +0.000 C 
ATOM     10  C   UNL     1      -3.728  13.938  24.329  0.00  0.00    +0.000 C 
ATOM     11  C   UNL     1      -2.965  15.069  23.668  0.00  0.00    +0.000 C 
ENDROOT
BRANCH   1  14
ATOM     12  C   UNL     1       0.996  11.283  21.200  0.00  0.00    +0.000 C 
ATOM     13  C   UNL     1      -0.060  11.249  20.148  0.00  0.00    +0.000 A 
ATOM     14  C   UNL     1      -1.124  12.112  19.912  0.00  0.00    +0.000 A 
ATOM     15  C   UNL     1      -1.885  11.566  18.828  0.00  0.00    +0.000 A 
ATOM     16  C   UNL     1      -3.072  11.950  18.169  0.00  0.00    +0.000 A 
ATOM     17  C   UNL     1      -3.547  11.174  17.113  0.00  0.00    +0.000 A 
ATOM     18  F   UNL     1      -4.693  11.522  16.509  0.00  0.00    +0.000 F 
ATOM     19  C   UNL     1      -2.867  10.050  16.671  0.00  0.00    +0.000 A 
ATOM     20  C   UNL     1      -1.676   9.659  17.287  0.00  0.00    +0.000 A 
ATOM     21  C   UNL     1      -1.208  10.425  18.371  0.00  0.00    +0.000 A 
ATOM     22  N   UNL     1      -0.078  10.283  19.157  0.00  0.00    +0.000 N 
BRANCH  22  23
ATOM     23  C   UNL     1       0.953   9.268  18.939  0.00  0.00    +0.000 C 
BRANCH  23  24
ATOM     24  C   UNL     1       1.921   9.552  17.818  0.00  0.00    +0.000 C 
ATOM     25  O   UNL     1       2.537   8.655  17.258  0.00  0.00    +0.000 OA
BRANCH  24  26
ATOM     26  O   UNL     1       2.117  10.842  17.473  0.00  0.00    +0.000 OA
ATOM     27  H   UNL     1       1.995  11.061  16.528  0.00  0.00    +0.000 HD
ENDBRANCH  24  26
ENDBRANCH  23  24
ENDBRANCH  22  23
ENDBRANCH   1  14
BRANCH   3  28
ATOM     28  C   UNL     1      -0.288  16.913  19.998  0.00  0.00    +0.000 C 
BRANCH  28  29
ATOM     29  C   UNL     1       1.241  16.860  19.864  0.00  0.00    +0.000 C 
BRANCH  29  30
ATOM     30  C   UNL     1       1.770  16.795  18.433  0.00  0.00    +0.000 C 
BRANCH  30  31
ATOM     31  C   UNL     1       2.716  15.643  18.164  0.00  0.00    +0.000 C 
ATOM     32  F   UNL     1       3.749  15.598  19.030  0.00  0.00    +0.000 F 
ATOM     33  F   UNL     1       2.068  14.460  18.252  0.00  0.00    +0.000 F 
ATOM     34  F   UNL     1       3.230  15.731  16.917  0.00  0.00    +0.000 F 
ENDBRANCH  30  31
ENDBRANCH  29  30
ENDBRANCH  28  29
ENDBRANCH   3  28
TORSDOF 8
ENDMDL
