MODEL 1
REMARK VINA RESULT:      -7.7      0.000      0.000
REMARK  Name = 
REMARK  7 active torsions:
REMARK  status: ('A' for Active; 'I' for Inactive)
REMARK    1  A    between atoms: C_1  and  N_2
REMARK    2  A    between atoms: N_2  and  C_3
REMARK    3  A    between atoms: N_2  and  C_4
REMARK    4  A    between atoms: C_9  and  C_10
REMARK    5  A    between atoms: C_10  and  S_11
REMARK    6  A    between atoms: S_11  and  C_13
REMARK    7  A    between atoms: N_17  and  C_18
REMARK                            x       y       z     vdW  Elec       q    Type
REMARK                         _______ _______ _______ _____ _____    ______ ____
ROOT
ATOM      1  C   UNL     1       2.442   7.295  18.838  0.00  0.00    +0.000 A 
ATOM      2  N   UNL     1       3.175   7.956  17.941  0.00  0.00    +0.000 NA
ATOM      3  C   UNL     1       3.955   7.030  17.378  0.00  0.00    +0.000 A 
ATOM      4  C   UNL     1       3.708   5.787  17.868  0.00  0.00    +0.000 A 
ATOM      5  N   UNL     1       2.740   5.901  18.844  0.00  0.00    +0.000 N 
ATOM      6  C   UNL     1       4.331   4.721  17.045  0.00  0.00    +0.000 C 
ATOM      7  C   UNL     1       5.344   5.566  16.193  0.00  0.00    +0.000 C 
ATOM      8  C   UNL     1       4.823   7.038  16.192  0.00  0.00    +0.000 C 
ENDROOT
BRANCH   5   9
ATOM      9  C   UNL     1       2.193   4.789  19.572  0.00  0.00    +0.000 A 
ATOM     10  C   UNL     1       2.543   4.608  20.927  0.00  0.00    +0.000 A 
ATOM     11  C   UNL     1       2.080   3.507  21.664  0.00  0.00    +0.000 A 
ATOM     12  C   UNL     1       1.248   2.578  21.065  0.00  0.00    +0.000 A 
ATOM     13  C   UNL     1       0.877   2.753  19.735  0.00  0.00    +0.000 A 
ATOM     14  C   UNL     1       1.349   3.846  18.989  0.00  0.00    +0.000 A 
ENDBRANCH   5   9
BRANCH   1  15
ATOM     15  S   UNL     1       1.259   8.226  19.742  0.00  0.00    +0.000 S 
ATOM     16  O   UNL     1       1.909   8.721  21.080  0.00  0.00    +0.000 OA
BRANCH  15  17
ATOM     17  C   UNL     1       1.028   9.631  18.570  0.00  0.00    +0.000 C 
BRANCH  17  23
ATOM     18  C   UNL     1      -0.792  11.281  19.396  0.00  0.00    +0.000 A 
ATOM     19  C   UNL     1      -2.099  11.797  19.211  0.00  0.00    +0.000 A 
ATOM     20  C   UNL     1      -2.937  11.404  18.165  0.00  0.00    +0.000 A 
ATOM     21  C   UNL     1      -2.496  10.461  17.262  0.00  0.00    +0.000 A 
ATOM     22  C   UNL     1      -1.221   9.914  17.405  0.00  0.00    +0.000 A 
ATOM     23  C   UNL     1      -0.351  10.292  18.456  0.00  0.00    +0.000 A 
BRANCH  18  25
ATOM     24  C   UNL     1      -0.304  11.409  21.851  0.00  0.00    +0.000 C 
ATOM     25  N   UNL     1      -0.017  11.770  20.457  0.00  0.00    +0.000 N 
ATOM     26  C   UNL     1       0.826  12.945  20.258  0.00  0.00    +0.000 C 
ENDBRANCH  18  25
ENDBRANCH  17  23
ENDBRANCH  15  17
ENDBRANCH   1  15
TORSDOF 5
ENDMDL
MODEL 2
REMARK VINA RESULT:      -7.5      0.652      1.365
REMARK  Name = 
REMARK  7 active torsions:
REMARK  status: ('A' for Active; 'I' for Inactive)
REMARK    1  A    between atoms: C_1  and  N_2
REMARK    2  A    between atoms: N_2  and  C_3
REMARK    3  A    between atoms: N_2  and  C_4
REMARK    4  A    between atoms: C_9  and  C_10
REMARK    5  A    between atoms: C_10  and  S_11
REMARK    6  A    between atoms: S_11  and  C_13
REMARK    7  A    between atoms: N_17  and  C_18
REMARK                            x       y       z     vdW  Elec       q    Type
REMARK                         _______ _______ _______ _____ _____    ______ ____
ROOT
ATOM      1  C   UNL     1       2.581   7.175  18.650  0.00  0.00    +0.000 A 
ATOM      2  N   UNL     1       3.313   7.791  17.719  0.00  0.00    +0.000 NA
ATOM      3  C   UNL     1       4.107   6.842  17.217  0.00  0.00    +0.000 A 
ATOM      4  C   UNL     1       3.872   5.627  17.778  0.00  0.00    +0.000 A 
ATOM      5  N   UNL     1       2.896   5.788  18.741  0.00  0.00    +0.000 N 
ATOM      6  C   UNL     1       4.512   4.522  17.024  0.00  0.00    +0.000 C 
ATOM      7  C   UNL     1       5.521   5.327  16.130  0.00  0.00    +0.000 C 
ATOM      8  C   UNL     1       4.983   6.791  16.037  0.00  0.00    +0.000 C 
ENDROOT
BRANCH   5   9
ATOM      9  C   UNL     1       2.357   4.714  19.530  0.00  0.00    +0.000 A 
ATOM     10  C   UNL     1       1.452   3.807  18.940  0.00  0.00    +0.000 A 
ATOM     11  C   UNL     1       0.856   2.776  19.683  0.00  0.00    +0.000 A 
ATOM     12  C   UNL     1       1.166   2.625  21.022  0.00  0.00    +0.000 A 
ATOM     13  C   UNL     1       2.074   3.499  21.614  0.00  0.00    +0.000 A 
ATOM     14  C   UNL     1       2.662   4.541  20.878  0.00  0.00    +0.000 A 
ENDBRANCH   5   9
BRANCH   1  15
ATOM     15  S   UNL     1       1.381   8.144  19.489  0.00  0.00    +0.000 S 
ATOM     16  O   UNL     1       1.964   8.594  20.874  0.00  0.00    +0.000 OA
BRANCH  15  17
ATOM     17  C   UNL     1       1.285   9.572  18.326  0.00  0.00    +0.000 C 
BRANCH  17  23
ATOM     18  C   UNL     1      -0.171  11.678  18.724  0.00  0.00    +0.000 A 
ATOM     19  C   UNL     1      -1.444  12.285  18.584  0.00  0.00    +0.000 A 
ATOM     20  C   UNL     1      -2.525  11.663  17.955  0.00  0.00    +0.000 A 
ATOM     21  C   UNL     1      -2.372  10.390  17.449  0.00  0.00    +0.000 A 
ATOM     22  C   UNL     1      -1.143   9.743  17.570  0.00  0.00    +0.000 A 
ATOM     23  C   UNL     1      -0.030  10.349  18.204  0.00  0.00    +0.000 A 
BRANCH  18  25
ATOM     24  C   UNL     1       1.907  13.068  18.554  0.00  0.00    +0.000 C 
ATOM     25  N   UNL     1       0.859  12.404  19.338  0.00  0.00    +0.000 N 
ATOM     26  C   UNL     1       1.150  12.194  20.753  0.00  0.00    +0.000 C 
ENDBRANCH  18  25
ENDBRANCH  17  23
ENDBRANCH  15  17
ENDBRANCH   1  15
TORSDOF 5
ENDMDL
MODEL 3
REMARK VINA RESULT:      -7.5      4.136      6.646
REMARK  Name = 
REMARK  7 active torsions:
REMARK  status: ('A' for Active; 'I' for Inactive)
REMARK    1  A    between atoms: C_1  and  N_2
REMARK    2  A    between atoms: N_2  and  C_3
REMARK    3  A    between atoms: N_2  and  C_4
REMARK    4  A    between atoms: C_9  and  C_10
REMARK    5  A    between atoms: C_10  and  S_11
REMARK    6  A    between atoms: S_11  and  C_13
REMARK    7  A    between atoms: N_17  and  C_18
REMARK                            x       y       z     vdW  Elec       q    Type
REMARK                         _______ _______ _______ _____ _____    ______ ____
ROOT
ATOM      1  C   UNL     1       5.354   3.912  16.072  0.00  0.00    +0.000 A 
ATOM      2  N   UNL     1       5.135   3.301  14.906  0.00  0.00    +0.000 NA
ATOM      3  C   UNL     1       5.943   3.912  14.036  0.00  0.00    +0.000 A 
ATOM      4  C   UNL     1       6.700   4.873  14.628  0.00  0.00    +0.000 A 
ATOM      5  N   UNL     1       6.343   4.933  15.959  0.00  0.00    +0.000 N 
ATOM      6  C   UNL     1       7.807   5.336  13.756  0.00  0.00    +0.000 C 
ATOM      7  C   UNL     1       7.338   4.772  12.367  0.00  0.00    +0.000 C 
ATOM      8  C   UNL     1       6.352   3.598  12.659  0.00  0.00    +0.000 C 
ENDROOT
BRANCH   5   9
ATOM      9  C   UNL     1       6.952   5.813  16.918  0.00  0.00    +0.000 A 
ATOM     10  C   UNL     1       6.945   7.204  16.686  0.00  0.00    +0.000 A 
ATOM     11  C   UNL     1       7.575   8.099  17.564  0.00  0.00    +0.000 A 
ATOM     12  C   UNL     1       8.209   7.621  18.696  0.00  0.00    +0.000 A 
ATOM     13  C   UNL     1       8.208   6.252  18.951  0.00  0.00    +0.000 A 
ATOM     14  C   UNL     1       7.591   5.351  18.068  0.00  0.00    +0.000 A 
ENDBRANCH   5   9
BRANCH   1  15
ATOM     15  S   UNL     1       4.468   3.313  17.465  0.00  0.00    +0.000 S 
ATOM     16  O   UNL     1       5.249   3.692  18.771  0.00  0.00    +0.000 OA
BRANCH  15  17
ATOM     17  C   UNL     1       2.937   4.328  17.302  0.00  0.00    +0.000 C 
BRANCH  17  23
ATOM     18  C   UNL     1       2.047   4.812  19.687  0.00  0.00    +0.000 A 
ATOM     19  C   UNL     1       1.691   5.793  20.646  0.00  0.00    +0.000 A 
ATOM     20  C   UNL     1       1.834   7.165  20.426  0.00  0.00    +0.000 A 
ATOM     21  C   UNL     1       2.332   7.609  19.220  0.00  0.00    +0.000 A 
ATOM     22  C   UNL     1       2.688   6.685  18.239  0.00  0.00    +0.000 A 
ATOM     23  C   UNL     1       2.553   5.288  18.433  0.00  0.00    +0.000 A 
BRANCH  18  25
ATOM     24  C   UNL     1       0.708   2.693  19.631  0.00  0.00    +0.000 C 
ATOM     25  N   UNL     1       1.900   3.459  20.022  0.00  0.00    +0.000 N 
ATOM     26  C   UNL     1       2.713   2.882  21.088  0.00  0.00    +0.000 C 
ENDBRANCH  18  25
ENDBRANCH  17  23
ENDBRANCH  15  17
ENDBRANCH   1  15
TORSDOF 5
ENDMDL
MODEL 4
REMARK VINA RESULT:      -7.5      3.478      5.482
REMARK  Name = 
REMARK  7 active torsions:
REMARK  status: ('A' for Active; 'I' for Inactive)
REMARK    1  A    between atoms: C_1  and  N_2
REMARK    2  A    between atoms: N_2  and  C_3
REMARK    3  A    between atoms: N_2  and  C_4
REMARK    4  A    between atoms: C_9  and  C_10
REMARK    5  A    between atoms: C_10  and  S_11
REMARK    6  A    between atoms: S_11  and  C_13
REMARK    7  A    between atoms: N_17  and  C_18
REMARK                            x       y       z     vdW  Elec       q    Type
REMARK                         _______ _______ _______ _____ _____    ______ ____
ROOT
ATOM      1  C   UNL     1       6.424   4.745  17.237  0.00  0.00    +0.000 A 
ATOM      2  N   UNL     1       7.364   5.169  16.390  0.00  0.00    +0.000 NA
ATOM      3  C   UNL     1       6.998   4.692  15.197  0.00  0.00    +0.000 A 
ATOM      4  C   UNL     1       5.827   4.006  15.258  0.00  0.00    +0.000 A 
ATOM      5  N   UNL     1       5.414   3.989  16.574  0.00  0.00    +0.000 N 
ATOM      6  C   UNL     1       5.256   3.744  13.914  0.00  0.00    +0.000 C 
ATOM      7  C   UNL     1       6.502   4.040  13.005  0.00  0.00    +0.000 C 
ATOM      8  C   UNL     1       7.458   4.962  13.827  0.00  0.00    +0.000 C 
ENDROOT
BRANCH   5   9
ATOM      9  C   UNL     1       4.193   3.380  17.028  0.00  0.00    +0.000 A 
ATOM     10  C   UNL     1       2.980   4.089  16.911  0.00  0.00    +0.000 A 
ATOM     11  C   UNL     1       1.771   3.561  17.390  0.00  0.00    +0.000 A 
ATOM     12  C   UNL     1       1.753   2.310  17.980  0.00  0.00    +0.000 A 
ATOM     13  C   UNL     1       2.938   1.589  18.085  0.00  0.00    +0.000 A 
ATOM     14  C   UNL     1       4.152   2.119  17.619  0.00  0.00    +0.000 A 
ENDBRANCH   5   9
BRANCH   1  15
ATOM     15  S   UNL     1       6.580   5.242  18.913  0.00  0.00    +0.000 S 
ATOM     16  O   UNL     1       7.825   6.186  19.055  0.00  0.00    +0.000 OA
BRANCH  15  17
ATOM     17  C   UNL     1       5.013   6.198  19.087  0.00  0.00    +0.000 C 
BRANCH  17  23
ATOM     18  C   UNL     1       2.554   6.222  19.903  0.00  0.00    +0.000 A 
ATOM     19  C   UNL     1       1.528   5.539  20.602  0.00  0.00    +0.000 A 
ATOM     20  C   UNL     1       1.691   4.264  21.147  0.00  0.00    +0.000 A 
ATOM     21  C   UNL     1       2.904   3.623  21.019  0.00  0.00    +0.000 A 
ATOM     22  C   UNL     1       3.951   4.256  20.349  0.00  0.00    +0.000 A 
ATOM     23  C   UNL     1       3.814   5.549  19.788  0.00  0.00    +0.000 A 
BRANCH  18  25
ATOM     24  C   UNL     1       1.550   8.508  20.126  0.00  0.00    +0.000 C 
ATOM     25  N   UNL     1       2.275   7.485  19.362  0.00  0.00    +0.000 N 
ATOM     26  C   UNL     1       2.335   7.685  17.917  0.00  0.00    +0.000 C 
ENDBRANCH  18  25
ENDBRANCH  17  23
ENDBRANCH  15  17
ENDBRANCH   1  15
TORSDOF 5
ENDMDL
MODEL 5
REMARK VINA RESULT:      -7.1      1.090      2.191
REMARK  Name = 
REMARK  7 active torsions:
REMARK  status: ('A' for Active; 'I' for Inactive)
REMARK    1  A    between atoms: C_1  and  N_2
REMARK    2  A    between atoms: N_2  and  C_3
REMARK    3  A    between atoms: N_2  and  C_4
REMARK    4  A    between atoms: C_9  and  C_10
REMARK    5  A    between atoms: C_10  and  S_11
REMARK    6  A    between atoms: S_11  and  C_13
REMARK    7  A    between atoms: N_17  and  C_18
REMARK                            x       y       z     vdW  Elec       q    Type
REMARK                         _______ _______ _______ _____ _____    ______ ____
ROOT
ATOM      1  C   UNL     1       2.687   7.206  18.406  0.00  0.00    +0.000 A 
ATOM      2  N   UNL     1       3.501   7.748  17.499  0.00  0.00    +0.000 NA
ATOM      3  C   UNL     1       4.275   6.743  17.080  0.00  0.00    +0.000 A 
ATOM      4  C   UNL     1       3.947   5.565  17.672  0.00  0.00    +0.000 A 
ATOM      5  N   UNL     1       2.927   5.810  18.568  0.00  0.00    +0.000 N 
ATOM      6  C   UNL     1       4.574   4.401  17.000  0.00  0.00    +0.000 C 
ATOM      7  C   UNL     1       5.672   5.121  16.137  0.00  0.00    +0.000 C 
ATOM      8  C   UNL     1       5.213   6.603  15.958  0.00  0.00    +0.000 C 
ENDROOT
BRANCH   5   9
ATOM      9  C   UNL     1       2.291   4.796  19.364  0.00  0.00    +0.000 A 
ATOM     10  C   UNL     1       2.604   4.694  20.735  0.00  0.00    +0.000 A 
ATOM     11  C   UNL     1       2.053   3.686  21.542  0.00  0.00    +0.000 A 
ATOM     12  C   UNL     1       1.168   2.775  20.995  0.00  0.00    +0.000 A 
ATOM     13  C   UNL     1       0.832   2.874  19.648  0.00  0.00    +0.000 A 
ATOM     14  C   UNL     1       1.392   3.872  18.834  0.00  0.00    +0.000 A 
ENDBRANCH   5   9
BRANCH   1  15
ATOM     15  S   UNL     1       1.491   8.264  19.136  0.00  0.00    +0.000 S 
ATOM     16  O   UNL     1       2.028   8.767  20.521  0.00  0.00    +0.000 OA
BRANCH  15  17
ATOM     17  C   UNL     1       1.505   9.629  17.897  0.00  0.00    +0.000 C 
BRANCH  17  23
ATOM     18  C   UNL     1       0.494  11.635  19.188  0.00  0.00    +0.000 A 
ATOM     19  C   UNL     1       0.620  12.999  19.550  0.00  0.00    +0.000 A 
ATOM     20  C   UNL     1       1.710  13.792  19.182  0.00  0.00    +0.000 A 
ATOM     21  C   UNL     1       2.718  13.244  18.419  0.00  0.00    +0.000 A 
ATOM     22  C   UNL     1       2.638  11.909  18.027  0.00  0.00    +0.000 A 
ATOM     23  C   UNL     1       1.544  11.082  18.384  0.00  0.00    +0.000 A 
BRANCH  18  25
ATOM     24  C   UNL     1      -1.787  10.681  18.779  0.00  0.00    +0.000 C 
ATOM     25  N   UNL     1      -0.622  10.918  19.641  0.00  0.00    +0.000 N 
ATOM     26  C   UNL     1      -0.834  10.735  21.073  0.00  0.00    +0.000 C 
ENDBRANCH  18  25
ENDBRANCH  17  23
ENDBRANCH  15  17
ENDBRANCH   1  15
TORSDOF 5
ENDMDL
MODEL 6
REMARK VINA RESULT:      -7.0      1.676      4.414
REMARK  Name = 
REMARK  7 active torsions:
REMARK  status: ('A' for Active; 'I' for Inactive)
REMARK    1  A    between atoms: C_1  and  N_2
REMARK    2  A    between atoms: N_2  and  C_3
REMARK    3  A    between atoms: N_2  and  C_4
REMARK    4  A    between atoms: C_9  and  C_10
REMARK    5  A    between atoms: C_10  and  S_11
REMARK    6  A    between atoms: S_11  and  C_13
REMARK    7  A    between atoms: N_17  and  C_18
REMARK                            x       y       z     vdW  Elec       q    Type
REMARK                         _______ _______ _______ _____ _____    ______ ____
ROOT
ATOM      1  C   UNL     1       2.366   6.339  19.846  0.00  0.00    +0.000 A 
ATOM      2  N   UNL     1       1.483   5.680  20.599  0.00  0.00    +0.000 NA
ATOM      3  C   UNL     1       1.877   4.405  20.562  0.00  0.00    +0.000 A 
ATOM      4  C   UNL     1       3.013   4.241  19.836  0.00  0.00    +0.000 A 
ATOM      5  N   UNL     1       3.370   5.471  19.323  0.00  0.00    +0.000 N 
ATOM      6  C   UNL     1       3.628   2.907  20.042  0.00  0.00    +0.000 C 
ATOM      7  C   UNL     1       2.436   2.138  20.715  0.00  0.00    +0.000 C 
ATOM      8  C   UNL     1       1.488   3.215  21.332  0.00  0.00    +0.000 C 
ENDROOT
BRANCH   5   9
ATOM      9  C   UNL     1       4.542   5.703  18.524  0.00  0.00    +0.000 A 
ATOM     10  C   UNL     1       4.397   6.011  17.155  0.00  0.00    +0.000 A 
ATOM     11  C   UNL     1       5.512   6.191  16.321  0.00  0.00    +0.000 A 
ATOM     12  C   UNL     1       6.787   6.082  16.844  0.00  0.00    +0.000 A 
ATOM     13  C   UNL     1       6.947   5.799  18.198  0.00  0.00    +0.000 A 
ATOM     14  C   UNL     1       5.835   5.605  19.033  0.00  0.00    +0.000 A 
ENDBRANCH   5   9
BRANCH   1  15
ATOM     15  S   UNL     1       2.162   8.078  19.715  0.00  0.00    +0.000 S 
ATOM     16  O   UNL     1       2.367   8.507  18.221  0.00  0.00    +0.000 OA
BRANCH  15  17
ATOM     17  C   UNL     1       0.386   8.205  20.193  0.00  0.00    +0.000 C 
BRANCH  17  23
ATOM     18  C   UNL     1      -0.202  10.706  20.533  0.00  0.00    +0.000 A 
ATOM     19  C   UNL     1      -0.600  11.720  21.440  0.00  0.00    +0.000 A 
ATOM     20  C   UNL     1      -0.883  11.476  22.785  0.00  0.00    +0.000 A 
ATOM     21  C   UNL     1      -0.765  10.195  23.280  0.00  0.00    +0.000 A 
ATOM     22  C   UNL     1      -0.367   9.162  22.432  0.00  0.00    +0.000 A 
ATOM     23  C   UNL     1      -0.072   9.380  21.064  0.00  0.00    +0.000 A 
BRANCH  18  25
ATOM     24  C   UNL     1       1.231  11.772  18.774  0.00  0.00    +0.000 C 
ATOM     25  N   UNL     1       0.022  11.050  19.193  0.00  0.00    +0.000 N 
ATOM     26  C   UNL     1      -1.093  11.064  18.251  0.00  0.00    +0.000 C 
ENDBRANCH  18  25
ENDBRANCH  17  23
ENDBRANCH  15  17
ENDBRANCH   1  15
TORSDOF 5
ENDMDL
MODEL 7
REMARK VINA RESULT:      -6.9      1.909      4.468
REMARK  Name = 
REMARK  7 active torsions:
REMARK  status: ('A' for Active; 'I' for Inactive)
REMARK    1  A    between atoms: C_1  and  N_2
REMARK    2  A    between atoms: N_2  and  C_3
REMARK    3  A    between atoms: N_2  and  C_4
REMARK    4  A    between atoms: C_9  and  C_10
REMARK    5  A    between atoms: C_10  and  S_11
REMARK    6  A    between atoms: S_11  and  C_13
REMARK    7  A    between atoms: N_17  and  C_18
REMARK                            x       y       z     vdW  Elec       q    Type
REMARK                         _______ _______ _______ _____ _____    ______ ____
ROOT
ATOM      1  C   UNL     1       2.833   5.957  18.333  0.00  0.00    +0.000 A 
ATOM      2  N   UNL     1       1.741   5.619  19.021  0.00  0.00    +0.000 NA
ATOM      3  C   UNL     1       1.726   4.283  19.015  0.00  0.00    +0.000 A 
ATOM      4  C   UNL     1       2.803   3.762  18.372  0.00  0.00    +0.000 A 
ATOM      5  N   UNL     1       3.554   4.812  17.885  0.00  0.00    +0.000 N 
ATOM      6  C   UNL     1       2.964   2.309  18.624  0.00  0.00    +0.000 C 
ATOM      7  C   UNL     1       1.549   1.958  19.211  0.00  0.00    +0.000 C 
ATOM      8  C   UNL     1       0.939   3.288  19.757  0.00  0.00    +0.000 C 
ENDROOT
BRANCH   5   9
ATOM      9  C   UNL     1       4.793   4.655  17.172  0.00  0.00    +0.000 A 
ATOM     10  C   UNL     1       6.013   4.790  17.866  0.00  0.00    +0.000 A 
ATOM     11  C   UNL     1       7.248   4.701  17.203  0.00  0.00    +0.000 A 
ATOM     12  C   UNL     1       7.283   4.461  15.842  0.00  0.00    +0.000 A 
ATOM     13  C   UNL     1       6.087   4.305  15.147  0.00  0.00    +0.000 A 
ATOM     14  C   UNL     1       4.849   4.407  15.802  0.00  0.00    +0.000 A 
ENDBRANCH   5   9
BRANCH   1  15
ATOM     15  S   UNL     1       3.182   7.671  18.186  0.00  0.00    +0.000 S 
ATOM     16  O   UNL     1       3.738   7.959  16.748  0.00  0.00    +0.000 OA
BRANCH  15  17
ATOM     17  C   UNL     1       1.473   8.340  18.370  0.00  0.00    +0.000 C 
BRANCH  17  23
ATOM     18  C   UNL     1       0.232  10.121  19.784  0.00  0.00    +0.000 A 
ATOM     19  C   UNL     1      -0.070  10.610  21.080  0.00  0.00    +0.000 A 
ATOM     20  C   UNL     1       0.366   9.989  22.253  0.00  0.00    +0.000 A 
ATOM     21  C   UNL     1       1.139   8.851  22.170  0.00  0.00    +0.000 A 
ATOM     22  C   UNL     1       1.474   8.335  20.919  0.00  0.00    +0.000 A 
ATOM     23  C   UNL     1       1.047   8.944  19.713  0.00  0.00    +0.000 A 
BRANCH  18  25
ATOM     24  C   UNL     1       0.011  12.214  18.423  0.00  0.00    +0.000 C 
ATOM     25  N   UNL     1      -0.286  10.797  18.671  0.00  0.00    +0.000 N 
ATOM     26  C   UNL     1      -1.435  10.247  17.958  0.00  0.00    +0.000 C 
ENDBRANCH  18  25
ENDBRANCH  17  23
ENDBRANCH  15  17
ENDBRANCH   1  15
TORSDOF 5
ENDMDL
MODEL 8
REMARK VINA RESULT:      -6.9      1.841      4.308
REMARK  Name = 
REMARK  7 active torsions:
REMARK  status: ('A' for Active; 'I' for Inactive)
REMARK    1  A    between atoms: C_1  and  N_2
REMARK    2  A    between atoms: N_2  and  C_3
REMARK    3  A    between atoms: N_2  and  C_4
REMARK    4  A    between atoms: C_9  and  C_10
REMARK    5  A    between atoms: C_10  and  S_11
REMARK    6  A    between atoms: S_11  and  C_13
REMARK    7  A    between atoms: N_17  and  C_18
REMARK                            x       y       z     vdW  Elec       q    Type
REMARK                         _______ _______ _______ _____ _____    ______ ____
ROOT
ATOM      1  C   UNL     1       2.366   6.156  19.466  0.00  0.00    +0.000 A 
ATOM      2  N   UNL     1       1.341   5.390  19.845  0.00  0.00    +0.000 NA
ATOM      3  C   UNL     1       1.722   4.139  19.574  0.00  0.00    +0.000 A 
ATOM      4  C   UNL     1       2.982   4.086  19.068  0.00  0.00    +0.000 A 
ATOM      5  N   UNL     1       3.447   5.380  18.954  0.00  0.00    +0.000 N 
ATOM      6  C   UNL     1       3.529   2.708  19.058  0.00  0.00    +0.000 C 
ATOM      7  C   UNL     1       2.216   1.872  19.273  0.00  0.00    +0.000 C 
ATOM      8  C   UNL     1       1.172   2.825  19.936  0.00  0.00    +0.000 C 
ENDROOT
BRANCH   5   9
ATOM      9  C   UNL     1       4.760   5.726  18.484  0.00  0.00    +0.000 A 
ATOM     10  C   UNL     1       5.891   5.323  19.225  0.00  0.00    +0.000 A 
ATOM     11  C   UNL     1       7.190   5.684  18.837  0.00  0.00    +0.000 A 
ATOM     12  C   UNL     1       7.383   6.439  17.696  0.00  0.00    +0.000 A 
ATOM     13  C   UNL     1       6.279   6.829  16.942  0.00  0.00    +0.000 A 
ATOM     14  C   UNL     1       4.976   6.482  17.333  0.00  0.00    +0.000 A 
ENDBRANCH   5   9
BRANCH   1  15
ATOM     15  S   UNL     1       2.209   7.885  19.729  0.00  0.00    +0.000 S 
ATOM     16  O   UNL     1       2.336   8.626  18.353  0.00  0.00    +0.000 OA
BRANCH  15  17
ATOM     17  C   UNL     1       0.470   7.936  20.340  0.00  0.00    +0.000 C 
BRANCH  17  23
ATOM     18  C   UNL     1      -0.133  10.448  20.540  0.00  0.00    +0.000 A 
ATOM     19  C   UNL     1      -0.548  11.506  21.387  0.00  0.00    +0.000 A 
ATOM     20  C   UNL     1      -0.851  11.330  22.739  0.00  0.00    +0.000 A 
ATOM     21  C   UNL     1      -0.737  10.077  23.301  0.00  0.00    +0.000 A 
ATOM     22  C   UNL     1      -0.322   9.004  22.514  0.00  0.00    +0.000 A 
ATOM     23  C   UNL     1      -0.006   9.153  21.141  0.00  0.00    +0.000 A 
BRANCH  18  25
ATOM     24  C   UNL     1       1.099  11.728  18.771  0.00  0.00    +0.000 C 
ATOM     25  N   UNL     1       0.111  10.724  19.188  0.00  0.00    +0.000 N 
ATOM     26  C   UNL     1      -0.867  10.327  18.179  0.00  0.00    +0.000 C 
ENDBRANCH  18  25
ENDBRANCH  17  23
ENDBRANCH  15  17
ENDBRANCH   1  15
TORSDOF 5
ENDMDL
MODEL 9
REMARK VINA RESULT:      -6.8      1.774      4.287
REMARK  Name = 
REMARK  7 active torsions:
REMARK  status: ('A' for Active; 'I' for Inactive)
REMARK    1  A    between atoms: C_1  and  N_2
REMARK    2  A    between atoms: N_2  and  C_3
REMARK    3  A    between atoms: N_2  and  C_4
REMARK    4  A    between atoms: C_9  and  C_10
REMARK    5  A    between atoms: C_10  and  S_11
REMARK    6  A    between atoms: S_11  and  C_13
REMARK    7  A    between atoms: N_17  and  C_18
REMARK                            x       y       z     vdW  Elec       q    Type
REMARK                         _______ _______ _______ _____ _____    ______ ____
ROOT
ATOM      1  C   UNL     1       2.652   6.538  19.223  0.00  0.00    +0.000 A 
ATOM      2  N   UNL     1       1.890   6.121  20.235  0.00  0.00    +0.000 NA
ATOM      3  C   UNL     1       2.213   4.836  20.408  0.00  0.00    +0.000 A 
ATOM      4  C   UNL     1       3.191   4.435  19.555  0.00  0.00    +0.000 A 
ATOM      5  N   UNL     1       3.505   5.503  18.739  0.00  0.00    +0.000 N 
ATOM      6  C   UNL     1       3.772   3.125  19.937  0.00  0.00    +0.000 C 
ATOM      7  C   UNL     1       2.686   2.609  20.948  0.00  0.00    +0.000 C 
ATOM      8  C   UNL     1       1.914   3.863  21.469  0.00  0.00    +0.000 C 
ENDROOT
BRANCH   5   9
ATOM      9  C   UNL     1       4.523   5.471  17.725  0.00  0.00    +0.000 A 
ATOM     10  C   UNL     1       5.679   6.265  17.879  0.00  0.00    +0.000 A 
ATOM     11  C   UNL     1       6.675   6.310  16.891  0.00  0.00    +0.000 A 
ATOM     12  C   UNL     1       6.541   5.553  15.742  0.00  0.00    +0.000 A 
ATOM     13  C   UNL     1       5.416   4.748  15.585  0.00  0.00    +0.000 A 
ATOM     14  C   UNL     1       4.410   4.709  16.563  0.00  0.00    +0.000 A 
ENDBRANCH   5   9
BRANCH   1  15
ATOM     15  S   UNL     1       2.507   8.225  18.759  0.00  0.00    +0.000 S 
ATOM     16  O   UNL     1       2.789   8.359  17.222  0.00  0.00    +0.000 OA
BRANCH  15  17
ATOM     17  C   UNL     1       0.717   8.479  19.119  0.00  0.00    +0.000 C 
BRANCH  17  23
ATOM     18  C   UNL     1       0.203  10.739  20.279  0.00  0.00    +0.000 A 
ATOM     19  C   UNL     1      -0.146  11.405  21.480  0.00  0.00    +0.000 A 
ATOM     20  C   UNL     1      -0.404  10.736  22.679  0.00  0.00    +0.000 A 
ATOM     21  C   UNL     1      -0.309   9.362  22.722  0.00  0.00    +0.000 A 
ATOM     22  C   UNL     1       0.041   8.659  21.570  0.00  0.00    +0.000 A 
ATOM     23  C   UNL     1       0.310   9.311  20.341  0.00  0.00    +0.000 A 
BRANCH  18  25
ATOM     24  C   UNL     1       1.726  12.040  18.772  0.00  0.00    +0.000 C 
ATOM     25  N   UNL     1       0.405  11.501  19.120  0.00  0.00    +0.000 N 
ATOM     26  C   UNL     1      -0.736  12.112  18.446  0.00  0.00    +0.000 C 
ENDBRANCH  18  25
ENDBRANCH  17  23
ENDBRANCH  15  17
ENDBRANCH   1  15
TORSDOF 5
ENDMDL
