MODEL 1
REMARK VINA RESULT:      -5.9      0.000      0.000
REMARK  Name = 
REMARK  1 active torsions:
REMARK  status: ('A' for Active; 'I' for Inactive)
REMARK    1  A    between atoms: C_2  and  C_3
REMARK                            x       y       z     vdW  Elec       q    Type
REMARK                         _______ _______ _______ _____ _____    ______ ____
ROOT
ATOM      1  C   UNL     1       3.297   2.861  20.449  0.00  0.00    +0.000 A 
ATOM      2  C   UNL     1       3.449   3.658  19.365  0.00  0.00    +0.000 A 
ATOM      3  N   UNL     1       2.401   4.493  18.967  0.00  0.00    +0.000 N 
ATOM      4  C   UNL     1       1.241   4.436  19.711  0.00  0.00    +0.000 A 
ATOM      5  N   UNL     1       1.016   3.702  20.749  0.00  0.00    +0.000 NA
ATOM      6  C   UNL     1       2.022   2.870  21.205  0.00  0.00    +0.000 A 
ATOM      7  O   UNL     1       1.892   2.155  22.191  0.00  0.00    +0.000 OA
ATOM      8  C   UNL     1       2.505   5.411  17.822  0.00  0.00    +0.000 C 
ATOM      9  C   UNL     1       3.518   6.529  18.082  0.00  0.00    +0.000 C 
ATOM     10  C   UNL     1       4.979   6.133  17.861  0.00  0.00    +0.000 C 
ATOM     11  C   UNL     1       5.488   5.019  18.770  0.00  0.00    +0.000 C 
ATOM     12  C   UNL     1       4.742   3.702  18.563  0.00  0.00    +0.000 C 
ENDROOT
BRANCH   1  14
ATOM     13  N   UNL     1       5.449   1.290  21.247  0.00  0.00    +0.000 NA
ATOM     14  C   UNL     1       4.473   2.002  20.885  0.00  0.00    +0.000 C 
ENDBRANCH   1  14
TORSDOF 1
ENDMDL
MODEL 2
REMARK VINA RESULT:      -5.9      3.368      4.805
REMARK  Name = 
REMARK  1 active torsions:
REMARK  status: ('A' for Active; 'I' for Inactive)
REMARK    1  A    between atoms: C_2  and  C_3
REMARK                            x       y       z     vdW  Elec       q    Type
REMARK                         _______ _______ _______ _____ _____    ______ ____
ROOT
ATOM      1  C   UNL     1       6.088   4.614  17.957  0.00  0.00    +0.000 A 
ATOM      2  C   UNL     1       4.772   4.341  18.118  0.00  0.00    +0.000 A 
ATOM      3  N   UNL     1       4.028   3.862  17.036  0.00  0.00    +0.000 N 
ATOM      4  C   UNL     1       4.694   3.715  15.837  0.00  0.00    +0.000 A 
ATOM      5  N   UNL     1       5.939   3.959  15.602  0.00  0.00    +0.000 NA
ATOM      6  C   UNL     1       6.733   4.415  16.637  0.00  0.00    +0.000 A 
ATOM      7  O   UNL     1       7.927   4.654  16.499  0.00  0.00    +0.000 OA
ATOM      8  C   UNL     1       2.603   3.510  17.143  0.00  0.00    +0.000 C 
ATOM      9  C   UNL     1       2.387   2.291  18.044  0.00  0.00    +0.000 C 
ATOM     10  C   UNL     1       2.395   2.596  19.544  0.00  0.00    +0.000 C 
ATOM     11  C   UNL     1       3.706   3.163  20.078  0.00  0.00    +0.000 C 
ATOM     12  C   UNL     1       4.063   4.511  19.454  0.00  0.00    +0.000 C 
ENDROOT
BRANCH   1  14
ATOM     13  N   UNL     1       7.538   5.477  20.168  0.00  0.00    +0.000 NA
ATOM     14  C   UNL     1       6.881   5.086  19.166  0.00  0.00    +0.000 C 
ENDBRANCH   1  14
TORSDOF 1
ENDMDL
MODEL 3
REMARK VINA RESULT:      -5.9      3.553      5.244
REMARK  Name = 
REMARK  1 active torsions:
REMARK  status: ('A' for Active; 'I' for Inactive)
REMARK    1  A    between atoms: C_2  and  C_3
REMARK                            x       y       z     vdW  Elec       q    Type
REMARK                         _______ _______ _______ _____ _____    ______ ____
ROOT
ATOM      1  C   UNL     1       5.733   4.719  16.642  0.00  0.00    +0.000 A 
ATOM      2  C   UNL     1       4.879   4.161  17.533  0.00  0.00    +0.000 A 
ATOM      3  N   UNL     1       4.996   4.470  18.891  0.00  0.00    +0.000 N 
ATOM      4  C   UNL     1       6.013   5.330  19.250  0.00  0.00    +0.000 A 
ATOM      5  N   UNL     1       6.868   5.896  18.466  0.00  0.00    +0.000 NA
ATOM      6  C   UNL     1       6.791   5.647  17.108  0.00  0.00    +0.000 A 
ATOM      7  O   UNL     1       7.555   6.158  16.298  0.00  0.00    +0.000 OA
ATOM      8  C   UNL     1       4.084   3.931  19.912  0.00  0.00    +0.000 C 
ATOM      9  C   UNL     1       2.661   4.469  19.742  0.00  0.00    +0.000 C 
ATOM     10  C   UNL     1       1.833   3.760  18.668  0.00  0.00    +0.000 C 
ATOM     11  C   UNL     1       2.389   3.866  17.252  0.00  0.00    +0.000 C 
ATOM     12  C   UNL     1       3.764   3.215  17.108  0.00  0.00    +0.000 C 
ENDROOT
BRANCH   1  14
ATOM     13  N   UNL     1       5.394   4.137  13.944  0.00  0.00    +0.000 NA
ATOM     14  C   UNL     1       5.548   4.401  15.167  0.00  0.00    +0.000 C 
ENDBRANCH   1  14
TORSDOF 1
ENDMDL
MODEL 4
REMARK VINA RESULT:      -5.8      3.083      4.607
REMARK  Name = 
REMARK  1 active torsions:
REMARK  status: ('A' for Active; 'I' for Inactive)
REMARK    1  A    between atoms: C_2  and  C_3
REMARK                            x       y       z     vdW  Elec       q    Type
REMARK                         _______ _______ _______ _____ _____    ______ ____
ROOT
ATOM      1  C   UNL     1       4.453   5.004  17.161  0.00  0.00    +0.000 A 
ATOM      2  C   UNL     1       3.760   4.352  18.126  0.00  0.00    +0.000 A 
ATOM      3  N   UNL     1       2.937   5.073  18.994  0.00  0.00    +0.000 N 
ATOM      4  C   UNL     1       2.895   6.442  18.823  0.00  0.00    +0.000 A 
ATOM      5  N   UNL     1       3.527   7.135  17.937  0.00  0.00    +0.000 NA
ATOM      6  C   UNL     1       4.342   6.477  17.034  0.00  0.00    +0.000 A 
ATOM      7  O   UNL     1       4.961   7.062  16.154  0.00  0.00    +0.000 OA
ATOM      8  C   UNL     1       2.128   4.431  20.042  0.00  0.00    +0.000 C 
ATOM      9  C   UNL     1       1.019   3.559  19.448  0.00  0.00    +0.000 C 
ATOM     10  C   UNL     1       1.473   2.172  18.987  0.00  0.00    +0.000 C 
ATOM     11  C   UNL     1       2.514   2.173  17.873  0.00  0.00    +0.000 C 
ATOM     12  C   UNL     1       3.824   2.840  18.291  0.00  0.00    +0.000 C 
ENDROOT
BRANCH   1  14
ATOM     13  N   UNL     1       6.004   3.506  15.405  0.00  0.00    +0.000 NA
ATOM     14  C   UNL     1       5.301   4.185  16.202  0.00  0.00    +0.000 C 
ENDBRANCH   1  14
TORSDOF 1
ENDMDL
MODEL 5
REMARK VINA RESULT:      -5.8      2.640      5.100
REMARK  Name = 
REMARK  1 active torsions:
REMARK  status: ('A' for Active; 'I' for Inactive)
REMARK    1  A    between atoms: C_2  and  C_3
REMARK                            x       y       z     vdW  Elec       q    Type
REMARK                         _______ _______ _______ _____ _____    ______ ____
ROOT
ATOM      1  C   UNL     1       3.722   5.953  18.226  0.00  0.00    +0.000 A 
ATOM      2  C   UNL     1       3.126   4.848  18.734  0.00  0.00    +0.000 A 
ATOM      3  N   UNL     1       3.887   3.702  18.979  0.00  0.00    +0.000 N 
ATOM      4  C   UNL     1       5.228   3.763  18.659  0.00  0.00    +0.000 A 
ATOM      5  N   UNL     1       5.867   4.771  18.168  0.00  0.00    +0.000 NA
ATOM      6  C   UNL     1       5.173   5.942  17.923  0.00  0.00    +0.000 A 
ATOM      7  O   UNL     1       5.711   6.946  17.473  0.00  0.00    +0.000 OA
ATOM      8  C   UNL     1       3.317   2.477  19.562  0.00  0.00    +0.000 C 
ATOM      9  C   UNL     1       2.873   2.693  21.011  0.00  0.00    +0.000 C 
ATOM     10  C   UNL     1       1.509   3.368  21.168  0.00  0.00    +0.000 C 
ATOM     11  C   UNL     1       1.418   4.776  20.589  0.00  0.00    +0.000 C 
ATOM     12  C   UNL     1       1.644   4.809  19.079  0.00  0.00    +0.000 C 
ENDROOT
BRANCH   1  14
ATOM     13  N   UNL     1       2.175   8.233  17.846  0.00  0.00    +0.000 NA
ATOM     14  C   UNL     1       2.877   7.199  18.018  0.00  0.00    +0.000 C 
ENDBRANCH   1  14
TORSDOF 1
ENDMDL
MODEL 6
REMARK VINA RESULT:      -5.7      3.067      4.413
REMARK  Name = 
REMARK  1 active torsions:
REMARK  status: ('A' for Active; 'I' for Inactive)
REMARK    1  A    between atoms: C_2  and  C_3
REMARK                            x       y       z     vdW  Elec       q    Type
REMARK                         _______ _______ _______ _____ _____    ______ ____
ROOT
ATOM      1  C   UNL     1       5.336   5.464  18.008  0.00  0.00    +0.000 A 
ATOM      2  C   UNL     1       4.319   4.791  18.597  0.00  0.00    +0.000 A 
ATOM      3  N   UNL     1       3.036   5.343  18.605  0.00  0.00    +0.000 N 
ATOM      4  C   UNL     1       2.885   6.581  18.016  0.00  0.00    +0.000 A 
ATOM      5  N   UNL     1       3.801   7.288  17.442  0.00  0.00    +0.000 NA
ATOM      6  C   UNL     1       5.088   6.786  17.383  0.00  0.00    +0.000 A 
ATOM      7  O   UNL     1       6.007   7.388  16.842  0.00  0.00    +0.000 OA
ATOM      8  C   UNL     1       1.876   4.655  19.194  0.00  0.00    +0.000 C 
ATOM      9  C   UNL     1       1.508   3.393  18.410  0.00  0.00    +0.000 C 
ATOM     10  C   UNL     1       2.364   2.166  18.733  0.00  0.00    +0.000 C 
ATOM     11  C   UNL     1       3.850   2.318  18.420  0.00  0.00    +0.000 C 
ATOM     12  C   UNL     1       4.514   3.424  19.239  0.00  0.00    +0.000 C 
ENDROOT
BRANCH   1  14
ATOM     13  N   UNL     1       7.848   4.274  17.943  0.00  0.00    +0.000 NA
ATOM     14  C   UNL     1       6.709   4.814  17.972  0.00  0.00    +0.000 C 
ENDBRANCH   1  14
TORSDOF 1
ENDMDL
MODEL 7
REMARK VINA RESULT:      -5.7      3.061      5.181
REMARK  Name = 
REMARK  1 active torsions:
REMARK  status: ('A' for Active; 'I' for Inactive)
REMARK    1  A    between atoms: C_2  and  C_3
REMARK                            x       y       z     vdW  Elec       q    Type
REMARK                         _______ _______ _______ _____ _____    ______ ____
ROOT
ATOM      1  C   UNL     1       3.520   5.944  17.716  0.00  0.00    +0.000 A 
ATOM      2  C   UNL     1       2.852   4.773  17.839  0.00  0.00    +0.000 A 
ATOM      3  N   UNL     1       3.482   3.576  17.487  0.00  0.00    +0.000 N 
ATOM      4  C   UNL     1       4.771   3.668  17.006  0.00  0.00    +0.000 A 
ATOM      5  N   UNL     1       5.472   4.741  16.853  0.00  0.00    +0.000 NA
ATOM      6  C   UNL     1       4.911   5.956  17.203  0.00  0.00    +0.000 A 
ATOM      7  O   UNL     1       5.516   7.016  17.103  0.00  0.00    +0.000 OA
ATOM      8  C   UNL     1       2.832   2.263  17.626  0.00  0.00    +0.000 C 
ATOM      9  C   UNL     1       2.596   1.901  19.095  0.00  0.00    +0.000 C 
ATOM     10  C   UNL     1       1.359   2.547  19.723  0.00  0.00    +0.000 C 
ATOM     11  C   UNL     1       1.383   4.072  19.767  0.00  0.00    +0.000 C 
ATOM     12  C   UNL     1       1.428   4.701  18.375  0.00  0.00    +0.000 C 
ENDROOT
BRANCH   1  14
ATOM     13  N   UNL     1       2.247   8.283  18.517  0.00  0.00    +0.000 NA
ATOM     14  C   UNL     1       2.824   7.223  18.154  0.00  0.00    +0.000 C 
ENDBRANCH   1  14
TORSDOF 1
ENDMDL
MODEL 8
REMARK VINA RESULT:      -5.7      4.036      5.770
REMARK  Name = 
REMARK  1 active torsions:
REMARK  status: ('A' for Active; 'I' for Inactive)
REMARK    1  A    between atoms: C_2  and  C_3
REMARK                            x       y       z     vdW  Elec       q    Type
REMARK                         _______ _______ _______ _____ _____    ______ ____
ROOT
ATOM      1  C   UNL     1       6.297   5.786  16.356  0.00  0.00    +0.000 A 
ATOM      2  C   UNL     1       5.174   5.333  16.963  0.00  0.00    +0.000 A 
ATOM      3  N   UNL     1       4.563   4.164  16.503  0.00  0.00    +0.000 N 
ATOM      4  C   UNL     1       5.145   3.540  15.419  0.00  0.00    +0.000 A 
ATOM      5  N   UNL     1       6.206   3.910  14.784  0.00  0.00    +0.000 NA
ATOM      6  C   UNL     1       6.869   5.048  15.204  0.00  0.00    +0.000 A 
ATOM      7  O   UNL     1       7.891   5.455  14.665  0.00  0.00    +0.000 OA
ATOM      8  C   UNL     1       3.362   3.592  17.132  0.00  0.00    +0.000 C 
ATOM      9  C   UNL     1       3.653   3.081  18.546  0.00  0.00    +0.000 C 
ATOM     10  C   UNL     1       3.669   4.165  19.627  0.00  0.00    +0.000 C 
ATOM     11  C   UNL     1       4.738   5.238  19.445  0.00  0.00    +0.000 C 
ATOM     12  C   UNL     1       4.554   6.042  18.159  0.00  0.00    +0.000 C 
ENDROOT
BRANCH   1  14
ATOM     13  N   UNL     1       7.521   8.067  17.373  0.00  0.00    +0.000 NA
ATOM     14  C   UNL     1       6.966   7.033  16.912  0.00  0.00    +0.000 C 
ENDBRANCH   1  14
TORSDOF 1
ENDMDL
MODEL 9
REMARK VINA RESULT:      -5.6      2.798      4.511
REMARK  Name = 
REMARK  1 active torsions:
REMARK  status: ('A' for Active; 'I' for Inactive)
REMARK    1  A    between atoms: C_2  and  C_3
REMARK                            x       y       z     vdW  Elec       q    Type
REMARK                         _______ _______ _______ _____ _____    ______ ____
ROOT
ATOM      1  C   UNL     1       3.782   6.246  17.931  0.00  0.00    +0.000 A 
ATOM      2  C   UNL     1       3.792   5.038  18.543  0.00  0.00    +0.000 A 
ATOM      3  N   UNL     1       2.976   4.820  19.656  0.00  0.00    +0.000 N 
ATOM      4  C   UNL     1       2.207   5.882  20.084  0.00  0.00    +0.000 A 
ATOM      5  N   UNL     1       2.146   7.061  19.562  0.00  0.00    +0.000 NA
ATOM      6  C   UNL     1       2.915   7.333  18.445  0.00  0.00    +0.000 A 
ATOM      7  O   UNL     1       2.901   8.421  17.882  0.00  0.00    +0.000 OA
ATOM      8  C   UNL     1       2.907   3.525  20.352  0.00  0.00    +0.000 C 
ATOM      9  C   UNL     1       2.279   2.442  19.471  0.00  0.00    +0.000 C 
ATOM     10  C   UNL     1       3.233   1.812  18.453  0.00  0.00    +0.000 C 
ATOM     11  C   UNL     1       3.800   2.779  17.419  0.00  0.00    +0.000 C 
ATOM     12  C   UNL     1       4.650   3.882  18.048  0.00  0.00    +0.000 C 
ENDROOT
BRANCH   1  14
ATOM     13  N   UNL     1       5.359   6.592  15.666  0.00  0.00    +0.000 NA
ATOM     14  C   UNL     1       4.644   6.435  16.693  0.00  0.00    +0.000 C 
ENDBRANCH   1  14
TORSDOF 1
ENDMDL
