MODEL 1
REMARK VINA RESULT:      -8.2      0.000      0.000
REMARK  Name = 
REMARK  5 active torsions:
REMARK  status: ('A' for Active; 'I' for Inactive)
REMARK    1  A    between atoms: C_3  and  N_4
REMARK    2  A    between atoms: C_8  and  O_9
REMARK    3  A    between atoms: C_16  and  O_17
REMARK    4  A    between atoms: C_18  and  C_19
REMARK    5  A    between atoms: C_19  and  O_20
REMARK                            x       y       z     vdW  Elec       q    Type
REMARK                         _______ _______ _______ _____ _____    ______ ____
ROOT
ATOM      1  N   UNL     1       3.997   5.021  18.567  0.00  0.00    +0.000 N 
ATOM      2  C   UNL     1       4.781   4.993  19.697  0.00  0.00    +0.000 A 
ATOM      3  N   UNL     1       6.043   4.715  19.435  0.00  0.00    +0.000 NA
ATOM      4  C   UNL     1       6.082   4.571  18.074  0.00  0.00    +0.000 A 
ATOM      5  C   UNL     1       7.113   4.289  17.189  0.00  0.00    +0.000 A 
ATOM      6  N   UNL     1       6.873   4.199  15.870  0.00  0.00    +0.000 NA
ATOM      7  C   UNL     1       5.616   4.402  15.444  0.00  0.00    +0.000 A 
ATOM      8  N   UNL     1       5.411   4.300  14.081  0.00  0.00    +0.000 N 
ATOM      9  N   UNL     1       4.531   4.655  16.201  0.00  0.00    +0.000 NA
ATOM     10  C   UNL     1       4.830   4.740  17.507  0.00  0.00    +0.000 A 
ATOM     11  H   UNL     1       6.140   3.725  13.681  0.00  0.00    +0.000 HD
ATOM     12  H   UNL     1       4.456   4.041  13.889  0.00  0.00    +0.000 HD
ENDROOT
BRANCH   1  15
ATOM     13  C   UNL     1       1.455   6.261  20.521  0.00  0.00    +0.000 C 
ATOM     14  C   UNL     1       1.846   5.181  19.827  0.00  0.00    +0.000 C 
ATOM     15  C   UNL     1       2.552   5.204  18.484  0.00  0.00    +0.000 C 
ATOM     16  C   UNL     1       1.771   4.098  17.771  0.00  0.00    +0.000 C 
ATOM     17  C   UNL     1       1.527   3.023  18.837  0.00  0.00    +0.000 C 
ATOM     18  C   UNL     1       1.416   3.770  20.179  0.00  0.00    +0.000 C 
BRANCH  17  19
ATOM     19  O   UNL     1       0.322   2.324  18.528  0.00  0.00    +0.000 OA
ATOM     20  H   UNL     1       0.547   1.448  18.172  0.00  0.00    +0.000 HD
ENDBRANCH  17  19
BRANCH  18  21
ATOM     21  C   UNL     1       2.281   3.149  21.283  0.00  0.00    +0.000 C 
BRANCH  21  22
ATOM     22  O   UNL     1       1.504   2.432  22.235  0.00  0.00    +0.000 OA
ATOM     23  H   UNL     1       2.112   1.828  22.702  0.00  0.00    +0.000 HD
ENDBRANCH  21  22
ENDBRANCH  18  21
ENDBRANCH   1  15
BRANCH   5  24
ATOM     24  O   UNL     1       8.405   4.089  17.613  0.00  0.00    +0.000 OA
ATOM     25  H   UNL     1       8.478   4.628  18.423  0.00  0.00    +0.000 HD
ENDBRANCH   5  24
TORSDOF 5
ENDMDL
MODEL 2
REMARK VINA RESULT:      -7.9      2.203      3.462
REMARK  Name = 
REMARK  5 active torsions:
REMARK  status: ('A' for Active; 'I' for Inactive)
REMARK    1  A    between atoms: C_3  and  N_4
REMARK    2  A    between atoms: C_8  and  O_9
REMARK    3  A    between atoms: C_16  and  O_17
REMARK    4  A    between atoms: C_18  and  C_19
REMARK    5  A    between atoms: C_19  and  O_20
REMARK                            x       y       z     vdW  Elec       q    Type
REMARK                         _______ _______ _______ _____ _____    ______ ____
ROOT
ATOM      1  N   UNL     1       3.973   5.175  19.134  0.00  0.00    +0.000 N 
ATOM      2  C   UNL     1       3.366   5.831  18.089  0.00  0.00    +0.000 A 
ATOM      3  N   UNL     1       4.214   6.541  17.371  0.00  0.00    +0.000 NA
ATOM      4  C   UNL     1       5.427   6.322  17.968  0.00  0.00    +0.000 A 
ATOM      5  C   UNL     1       6.709   6.771  17.682  0.00  0.00    +0.000 A 
ATOM      6  N   UNL     1       7.748   6.398  18.447  0.00  0.00    +0.000 NA
ATOM      7  C   UNL     1       7.506   5.574  19.479  0.00  0.00    +0.000 A 
ATOM      8  N   UNL     1       8.600   5.214  20.242  0.00  0.00    +0.000 N 
ATOM      9  N   UNL     1       6.311   5.093  19.873  0.00  0.00    +0.000 NA
ATOM     10  C   UNL     1       5.311   5.492  19.070  0.00  0.00    +0.000 A 
ATOM     11  H   UNL     1       9.320   5.917  20.136  0.00  0.00    +0.000 HD
ATOM     12  H   UNL     1       8.313   4.980  21.180  0.00  0.00    +0.000 HD
ENDROOT
BRANCH   1  15
ATOM     13  C   UNL     1       4.366   2.086  20.594  0.00  0.00    +0.000 C 
ATOM     14  C   UNL     1       3.471   2.878  19.983  0.00  0.00    +0.000 C 
ATOM     15  C   UNL     1       3.341   4.378  20.180  0.00  0.00    +0.000 C 
ATOM     16  C   UNL     1       1.818   4.486  20.284  0.00  0.00    +0.000 C 
ATOM     17  C   UNL     1       1.270   3.487  19.257  0.00  0.00    +0.000 C 
ATOM     18  C   UNL     1       2.299   2.342  19.185  0.00  0.00    +0.000 C 
BRANCH  17  19
ATOM     19  O   UNL     1      -0.003   3.016  19.695  0.00  0.00    +0.000 OA
ATOM     20  H   UNL     1      -0.475   3.744  20.133  0.00  0.00    +0.000 HD
ENDBRANCH  17  19
BRANCH  18  21
ATOM     21  C   UNL     1       2.685   1.975  17.746  0.00  0.00    +0.000 C 
BRANCH  21  22
ATOM     22  O   UNL     1       2.254   2.953  16.808  0.00  0.00    +0.000 OA
ATOM     23  H   UNL     1       2.047   3.761  17.314  0.00  0.00    +0.000 HD
ENDBRANCH  21  22
ENDBRANCH  18  21
ENDBRANCH   1  15
BRANCH   5  24
ATOM     24  O   UNL     1       6.970   7.608  16.623  0.00  0.00    +0.000 OA
ATOM     25  H   UNL     1       7.941   7.592  16.538  0.00  0.00    +0.000 HD
ENDBRANCH   5  24
TORSDOF 5
ENDMDL
MODEL 3
REMARK VINA RESULT:      -7.8      1.672      2.473
REMARK  Name = 
REMARK  5 active torsions:
REMARK  status: ('A' for Active; 'I' for Inactive)
REMARK    1  A    between atoms: C_3  and  N_4
REMARK    2  A    between atoms: C_8  and  O_9
REMARK    3  A    between atoms: C_16  and  O_17
REMARK    4  A    between atoms: C_18  and  C_19
REMARK    5  A    between atoms: C_19  and  O_20
REMARK                            x       y       z     vdW  Elec       q    Type
REMARK                         _______ _______ _______ _____ _____    ______ ____
ROOT
ATOM      1  N   UNL     1       5.044   4.016  18.536  0.00  0.00    +0.000 N 
ATOM      2  C   UNL     1       5.423   4.999  19.420  0.00  0.00    +0.000 A 
ATOM      3  N   UNL     1       6.239   5.884  18.879  0.00  0.00    +0.000 NA
ATOM      4  C   UNL     1       6.382   5.463  17.584  0.00  0.00    +0.000 A 
ATOM      5  C   UNL     1       7.095   5.969  16.507  0.00  0.00    +0.000 A 
ATOM      6  N   UNL     1       7.066   5.346  15.316  0.00  0.00    +0.000 NA
ATOM      7  C   UNL     1       6.319   4.235  15.206  0.00  0.00    +0.000 A 
ATOM      8  N   UNL     1       6.315   3.624  13.968  0.00  0.00    +0.000 N 
ATOM      9  N   UNL     1       5.606   3.634  16.179  0.00  0.00    +0.000 NA
ATOM     10  C   UNL     1       5.667   4.302  17.343  0.00  0.00    +0.000 A 
ATOM     11  H   UNL     1       7.156   3.884  13.470  0.00  0.00    +0.000 HD
ATOM     12  H   UNL     1       6.116   2.640  14.063  0.00  0.00    +0.000 HD
ENDROOT
BRANCH   1  15
ATOM     13  C   UNL     1       2.020   2.708  17.553  0.00  0.00    +0.000 C 
ATOM     14  C   UNL     1       2.739   3.056  18.631  0.00  0.00    +0.000 C 
ATOM     15  C   UNL     1       4.231   2.835  18.806  0.00  0.00    +0.000 C 
ATOM     16  C   UNL     1       4.242   2.321  20.247  0.00  0.00    +0.000 C 
ATOM     17  C   UNL     1       3.188   3.157  20.983  0.00  0.00    +0.000 C 
ATOM     18  C   UNL     1       2.111   3.503  19.937  0.00  0.00    +0.000 C 
BRANCH  17  19
ATOM     19  O   UNL     1       2.645   2.388  22.054  0.00  0.00    +0.000 OA
ATOM     20  H   UNL     1       1.677   2.478  22.049  0.00  0.00    +0.000 HD
ENDBRANCH  17  19
BRANCH  18  21
ATOM     21  C   UNL     1       1.738   4.991  19.932  0.00  0.00    +0.000 C 
BRANCH  21  22
ATOM     22  O   UNL     1       2.313   5.692  21.027  0.00  0.00    +0.000 OA
ATOM     23  H   UNL     1       1.625   5.758  21.716  0.00  0.00    +0.000 HD
ENDBRANCH  21  22
ENDBRANCH  18  21
ENDBRANCH   1  15
BRANCH   5  24
ATOM     24  O   UNL     1       7.856   7.110  16.605  0.00  0.00    +0.000 OA
ATOM     25  H   UNL     1       8.078   7.332  15.682  0.00  0.00    +0.000 HD
ENDBRANCH   5  24
TORSDOF 5
ENDMDL
MODEL 4
REMARK VINA RESULT:      -7.4      1.979      5.760
REMARK  Name = 
REMARK  5 active torsions:
REMARK  status: ('A' for Active; 'I' for Inactive)
REMARK    1  A    between atoms: C_3  and  N_4
REMARK    2  A    between atoms: C_8  and  O_9
REMARK    3  A    between atoms: C_16  and  O_17
REMARK    4  A    between atoms: C_18  and  C_19
REMARK    5  A    between atoms: C_19  and  O_20
REMARK                            x       y       z     vdW  Elec       q    Type
REMARK                         _______ _______ _______ _____ _____    ______ ____
ROOT
ATOM      1  N   UNL     1       4.013   4.401  17.750  0.00  0.00    +0.000 N 
ATOM      2  C   UNL     1       4.264   3.063  17.948  0.00  0.00    +0.000 A 
ATOM      3  N   UNL     1       3.802   2.623  19.102  0.00  0.00    +0.000 NA
ATOM      4  C   UNL     1       3.212   3.721  19.670  0.00  0.00    +0.000 A 
ATOM      5  C   UNL     1       2.539   3.909  20.869  0.00  0.00    +0.000 A 
ATOM      6  N   UNL     1       2.049   5.118  21.193  0.00  0.00    +0.000 NA
ATOM      7  C   UNL     1       2.221   6.122  20.317  0.00  0.00    +0.000 A 
ATOM      8  N   UNL     1       1.703   7.348  20.687  0.00  0.00    +0.000 N 
ATOM      9  N   UNL     1       2.875   6.071  19.140  0.00  0.00    +0.000 NA
ATOM     10  C   UNL     1       3.337   4.841  18.866  0.00  0.00    +0.000 A 
ATOM     11  H   UNL     1       1.624   7.381  21.694  0.00  0.00    +0.000 HD
ATOM     12  H   UNL     1       2.212   8.093  20.235  0.00  0.00    +0.000 HD
ENDROOT
BRANCH   1  15
ATOM     13  C   UNL     1       5.832   4.069  14.851  0.00  0.00    +0.000 C 
ATOM     14  C   UNL     1       5.743   4.778  15.987  0.00  0.00    +0.000 C 
ATOM     15  C   UNL     1       4.453   5.240  16.641  0.00  0.00    +0.000 C 
ATOM     16  C   UNL     1       4.851   6.675  16.995  0.00  0.00    +0.000 C 
ATOM     17  C   UNL     1       6.313   6.589  17.449  0.00  0.00    +0.000 C 
ATOM     18  C   UNL     1       6.940   5.429  16.653  0.00  0.00    +0.000 C 
BRANCH  17  19
ATOM     19  O   UNL     1       6.964   7.827  17.165  0.00  0.00    +0.000 OA
ATOM     20  H   UNL     1       7.039   7.931  16.202  0.00  0.00    +0.000 HD
ENDBRANCH  17  19
BRANCH  18  21
ATOM     21  C   UNL     1       7.725   4.452  17.538  0.00  0.00    +0.000 C 
BRANCH  21  22
ATOM     22  O   UNL     1       7.676   4.815  18.912  0.00  0.00    +0.000 OA
ATOM     23  H   UNL     1       8.453   5.379  19.086  0.00  0.00    +0.000 HD
ENDBRANCH  21  22
ENDBRANCH  18  21
ENDBRANCH   1  15
BRANCH   5  24
ATOM     24  O   UNL     1       2.349   2.887  21.768  0.00  0.00    +0.000 OA
ATOM     25  H   UNL     1       2.551   2.080  21.260  0.00  0.00    +0.000 HD
ENDBRANCH   5  24
TORSDOF 5
ENDMDL
MODEL 5
REMARK VINA RESULT:      -7.3      1.550      1.682
REMARK  Name = 
REMARK  5 active torsions:
REMARK  status: ('A' for Active; 'I' for Inactive)
REMARK    1  A    between atoms: C_3  and  N_4
REMARK    2  A    between atoms: C_8  and  O_9
REMARK    3  A    between atoms: C_16  and  O_17
REMARK    4  A    between atoms: C_18  and  C_19
REMARK    5  A    between atoms: C_19  and  O_20
REMARK                            x       y       z     vdW  Elec       q    Type
REMARK                         _______ _______ _______ _____ _____    ______ ____
ROOT
ATOM      1  N   UNL     1       3.940   4.572  18.570  0.00  0.00    +0.000 N 
ATOM      2  C   UNL     1       4.377   3.323  18.944  0.00  0.00    +0.000 A 
ATOM      3  N   UNL     1       5.670   3.155  18.745  0.00  0.00    +0.000 NA
ATOM      4  C   UNL     1       6.091   4.353  18.234  0.00  0.00    +0.000 A 
ATOM      5  C   UNL     1       7.336   4.817  17.833  0.00  0.00    +0.000 A 
ATOM      6  N   UNL     1       7.477   6.064  17.354  0.00  0.00    +0.000 NA
ATOM      7  C   UNL     1       6.384   6.841  17.291  0.00  0.00    +0.000 A 
ATOM      8  N   UNL     1       6.570   8.116  16.793  0.00  0.00    +0.000 N 
ATOM      9  N   UNL     1       5.123   6.500  17.623  0.00  0.00    +0.000 NA
ATOM     10  C   UNL     1       5.043   5.247  18.100  0.00  0.00    +0.000 A 
ATOM     11  H   UNL     1       7.399   8.124  16.212  0.00  0.00    +0.000 HD
ATOM     12  H   UNL     1       5.714   8.462  16.386  0.00  0.00    +0.000 HD
ENDROOT
BRANCH   1  15
ATOM     13  C   UNL     1       1.972   6.675  20.450  0.00  0.00    +0.000 C 
ATOM     14  C   UNL     1       2.034   5.436  19.936  0.00  0.00    +0.000 C 
ATOM     15  C   UNL     1       2.570   5.076  18.562  0.00  0.00    +0.000 C 
ATOM     16  C   UNL     1       1.489   4.087  18.122  0.00  0.00    +0.000 C 
ATOM     17  C   UNL     1       1.137   3.285  19.381  0.00  0.00    +0.000 C 
ATOM     18  C   UNL     1       1.347   4.242  20.570  0.00  0.00    +0.000 C 
BRANCH  17  19
ATOM     19  O   UNL     1      -0.220   2.851  19.295  0.00  0.00    +0.000 OA
ATOM     20  H   UNL     1      -0.749   3.338  19.949  0.00  0.00    +0.000 HD
ENDBRANCH  17  19
BRANCH  18  21
ATOM     21  C   UNL     1       2.174   3.618  21.701  0.00  0.00    +0.000 C 
BRANCH  21  22
ATOM     22  O   UNL     1       1.566   2.444  22.226  0.00  0.00    +0.000 OA
ATOM     23  H   UNL     1       1.742   1.724  21.592  0.00  0.00    +0.000 HD
ENDBRANCH  21  22
ENDBRANCH  18  21
ENDBRANCH   1  15
BRANCH   5  24
ATOM     24  O   UNL     1       8.464   4.033  17.903  0.00  0.00    +0.000 OA
ATOM     25  H   UNL     1       8.183   3.252  18.414  0.00  0.00    +0.000 HD
ENDBRANCH   5  24
TORSDOF 5
ENDMDL
MODEL 6
REMARK VINA RESULT:      -7.2      2.194      5.432
REMARK  Name = 
REMARK  5 active torsions:
REMARK  status: ('A' for Active; 'I' for Inactive)
REMARK    1  A    between atoms: C_3  and  N_4
REMARK    2  A    between atoms: C_8  and  O_9
REMARK    3  A    between atoms: C_16  and  O_17
REMARK    4  A    between atoms: C_18  and  C_19
REMARK    5  A    between atoms: C_19  and  O_20
REMARK                            x       y       z     vdW  Elec       q    Type
REMARK                         _______ _______ _______ _____ _____    ______ ____
ROOT
ATOM      1  N   UNL     1       3.916   5.519  17.898  0.00  0.00    +0.000 N 
ATOM      2  C   UNL     1       3.240   6.418  18.690  0.00  0.00    +0.000 A 
ATOM      3  N   UNL     1       2.532   5.833  19.636  0.00  0.00    +0.000 NA
ATOM      4  C   UNL     1       2.772   4.496  19.459  0.00  0.00    +0.000 A 
ATOM      5  C   UNL     1       2.334   3.367  20.136  0.00  0.00    +0.000 A 
ATOM      6  N   UNL     1       2.728   2.143  19.745  0.00  0.00    +0.000 NA
ATOM      7  C   UNL     1       3.562   2.055  18.696  0.00  0.00    +0.000 A 
ATOM      8  N   UNL     1       3.943   0.780  18.326  0.00  0.00    +0.000 N 
ATOM      9  N   UNL     1       4.033   3.069  17.945  0.00  0.00    +0.000 NA
ATOM     10  C   UNL     1       3.613   4.267  18.384  0.00  0.00    +0.000 A 
ATOM     11  H   UNL     1       3.248   0.122  18.650  0.00  0.00    +0.000 HD
ATOM     12  H   UNL     1       4.185   0.757  17.347  0.00  0.00    +0.000 HD
ENDROOT
BRANCH   1  15
ATOM     13  C   UNL     1       5.996   3.815  15.755  0.00  0.00    +0.000 C 
ATOM     14  C   UNL     1       5.926   4.892  16.553  0.00  0.00    +0.000 C 
ATOM     15  C   UNL     1       4.717   5.796  16.711  0.00  0.00    +0.000 C 
ATOM     16  C   UNL     1       5.415   7.158  16.669  0.00  0.00    +0.000 C 
ATOM     17  C   UNL     1       6.721   6.967  17.449  0.00  0.00    +0.000 C 
ATOM     18  C   UNL     1       7.138   5.500  17.232  0.00  0.00    +0.000 C 
BRANCH  17  19
ATOM     19  O   UNL     1       7.704   7.868  16.943  0.00  0.00    +0.000 OA
ATOM     20  H   UNL     1       8.465   7.357  16.620  0.00  0.00    +0.000 HD
ENDBRANCH  17  19
BRANCH  18  21
ATOM     21  C   UNL     1       7.504   4.782  18.538  0.00  0.00    +0.000 C 
BRANCH  21  22
ATOM     22  O   UNL     1       6.832   5.337  19.661  0.00  0.00    +0.000 OA
ATOM     23  H   UNL     1       7.029   6.292  19.668  0.00  0.00    +0.000 HD
ENDBRANCH  21  22
ENDBRANCH  18  21
ENDBRANCH   1  15
BRANCH   5  24
ATOM     24  O   UNL     1       1.489   3.445  21.217  0.00  0.00    +0.000 OA
ATOM     25  H   UNL     1       2.041   3.174  21.974  0.00  0.00    +0.000 HD
ENDBRANCH   5  24
TORSDOF 5
ENDMDL
MODEL 7
REMARK VINA RESULT:      -7.2      2.075      6.035
REMARK  Name = 
REMARK  5 active torsions:
REMARK  status: ('A' for Active; 'I' for Inactive)
REMARK    1  A    between atoms: C_3  and  N_4
REMARK    2  A    between atoms: C_8  and  O_9
REMARK    3  A    between atoms: C_16  and  O_17
REMARK    4  A    between atoms: C_18  and  C_19
REMARK    5  A    between atoms: C_19  and  O_20
REMARK                            x       y       z     vdW  Elec       q    Type
REMARK                         _______ _______ _______ _____ _____    ______ ____
ROOT
ATOM      1  N   UNL     1       3.784   4.500  17.992  0.00  0.00    +0.000 N 
ATOM      2  C   UNL     1       3.290   4.112  16.768  0.00  0.00    +0.000 A 
ATOM      3  N   UNL     1       2.272   3.281  16.870  0.00  0.00    +0.000 NA
ATOM      4  C   UNL     1       2.088   3.136  18.219  0.00  0.00    +0.000 A 
ATOM      5  C   UNL     1       1.175   2.409  18.969  0.00  0.00    +0.000 A 
ATOM      6  N   UNL     1       1.217   2.440  20.312  0.00  0.00    +0.000 NA
ATOM      7  C   UNL     1       2.156   3.203  20.894  0.00  0.00    +0.000 A 
ATOM      8  N   UNL     1       2.166   3.209  22.276  0.00  0.00    +0.000 N 
ATOM      9  N   UNL     1       3.110   3.930  20.280  0.00  0.00    +0.000 NA
ATOM     10  C   UNL     1       3.016   3.866  18.942  0.00  0.00    +0.000 A 
ATOM     11  H   UNL     1       1.729   2.361  22.611  0.00  0.00    +0.000 HD
ATOM     12  H   UNL     1       3.091   3.422  22.618  0.00  0.00    +0.000 HD
ENDROOT
BRANCH   1  15
ATOM     13  C   UNL     1       5.161   7.436  16.846  0.00  0.00    +0.000 C 
ATOM     14  C   UNL     1       5.429   6.140  17.069  0.00  0.00    +0.000 C 
ATOM     15  C   UNL     1       4.952   5.332  18.263  0.00  0.00    +0.000 C 
ATOM     16  C   UNL     1       6.247   4.590  18.598  0.00  0.00    +0.000 C 
ATOM     17  C   UNL     1       6.873   4.235  17.243  0.00  0.00    +0.000 C 
ATOM     18  C   UNL     1       6.457   5.358  16.274  0.00  0.00    +0.000 C 
BRANCH  17  19
ATOM     19  O   UNL     1       8.291   4.169  17.386  0.00  0.00    +0.000 OA
ATOM     20  H   UNL     1       8.691   4.046  16.508  0.00  0.00    +0.000 HD
ENDBRANCH  17  19
BRANCH  18  21
ATOM     21  C   UNL     1       5.896   4.827  14.948  0.00  0.00    +0.000 C 
BRANCH  21  22
ATOM     22  O   UNL     1       6.283   3.480  14.703  0.00  0.00    +0.000 OA
ATOM     23  H   UNL     1       6.310   3.030  15.568  0.00  0.00    +0.000 HD
ENDBRANCH  21  22
ENDBRANCH  18  21
ENDBRANCH   1  15
BRANCH   5  24
ATOM     24  O   UNL     1       0.203   1.632  18.384  0.00  0.00    +0.000 OA
ATOM     25  H   UNL     1       0.027   0.932  19.039  0.00  0.00    +0.000 HD
ENDBRANCH   5  24
TORSDOF 5
ENDMDL
MODEL 8
REMARK VINA RESULT:      -7.1      3.386      5.478
REMARK  Name = 
REMARK  5 active torsions:
REMARK  status: ('A' for Active; 'I' for Inactive)
REMARK    1  A    between atoms: C_3  and  N_4
REMARK    2  A    between atoms: C_8  and  O_9
REMARK    3  A    between atoms: C_16  and  O_17
REMARK    4  A    between atoms: C_18  and  C_19
REMARK    5  A    between atoms: C_19  and  O_20
REMARK                            x       y       z     vdW  Elec       q    Type
REMARK                         _______ _______ _______ _____ _____    ______ ____
ROOT
ATOM      1  N   UNL     1       3.035   6.323  19.301  0.00  0.00    +0.000 N 
ATOM      2  C   UNL     1       3.570   6.488  18.044  0.00  0.00    +0.000 A 
ATOM      3  N   UNL     1       3.200   7.620  17.478  0.00  0.00    +0.000 NA
ATOM      4  C   UNL     1       2.404   8.222  18.415  0.00  0.00    +0.000 A 
ATOM      5  C   UNL     1       1.723   9.431  18.431  0.00  0.00    +0.000 A 
ATOM      6  N   UNL     1       0.993   9.789  19.501  0.00  0.00    +0.000 NA
ATOM      7  C   UNL     1       0.958   8.948  20.548  0.00  0.00    +0.000 A 
ATOM      8  N   UNL     1       0.198   9.351  21.628  0.00  0.00    +0.000 N 
ATOM      9  N   UNL     1       1.551   7.742  20.643  0.00  0.00    +0.000 NA
ATOM     10  C   UNL     1       2.269   7.440  19.549  0.00  0.00    +0.000 A 
ATOM     11  H   UNL     1      -0.500  10.012  21.311  0.00  0.00    +0.000 HD
ATOM     12  H   UNL     1      -0.124   8.550  22.149  0.00  0.00    +0.000 HD
ENDROOT
BRANCH   1  15
ATOM     13  C   UNL     1       4.761   3.351  19.403  0.00  0.00    +0.000 C 
ATOM     14  C   UNL     1       3.529   3.879  19.461  0.00  0.00    +0.000 C 
ATOM     15  C   UNL     1       3.152   5.163  20.178  0.00  0.00    +0.000 C 
ATOM     16  C   UNL     1       1.863   4.700  20.861  0.00  0.00    +0.000 C 
ATOM     17  C   UNL     1       1.164   3.798  19.837  0.00  0.00    +0.000 C 
ATOM     18  C   UNL     1       2.286   3.131  19.019  0.00  0.00    +0.000 C 
BRANCH  17  19
ATOM     19  O   UNL     1       0.377   2.829  20.528  0.00  0.00    +0.000 OA
ATOM     20  H   UNL     1       0.347   3.061  21.471  0.00  0.00    +0.000 HD
ENDBRANCH  17  19
BRANCH  18  21
ATOM     21  C   UNL     1       2.055   3.218  17.504  0.00  0.00    +0.000 C 
BRANCH  21  22
ATOM     22  O   UNL     1       1.056   4.174  17.168  0.00  0.00    +0.000 OA
ATOM     23  H   UNL     1       0.939   4.750  17.947  0.00  0.00    +0.000 HD
ENDBRANCH  21  22
ENDBRANCH  18  21
ENDBRANCH   1  15
BRANCH   5  24
ATOM     24  O   UNL     1       1.760  10.304  17.369  0.00  0.00    +0.000 OA
ATOM     25  H   UNL     1       1.389   9.794  16.626  0.00  0.00    +0.000 HD
ENDBRANCH   5  24
TORSDOF 5
ENDMDL
MODEL 9
REMARK VINA RESULT:      -6.9      3.133      5.490
REMARK  Name = 
REMARK  5 active torsions:
REMARK  status: ('A' for Active; 'I' for Inactive)
REMARK    1  A    between atoms: C_3  and  N_4
REMARK    2  A    between atoms: C_8  and  O_9
REMARK    3  A    between atoms: C_16  and  O_17
REMARK    4  A    between atoms: C_18  and  C_19
REMARK    5  A    between atoms: C_19  and  O_20
REMARK                            x       y       z     vdW  Elec       q    Type
REMARK                         _______ _______ _______ _____ _____    ______ ____
ROOT
ATOM      1  N   UNL     1       2.700   5.939  18.929  0.00  0.00    +0.000 N 
ATOM      2  C   UNL     1       2.388   5.335  20.125  0.00  0.00    +0.000 A 
ATOM      3  N   UNL     1       1.796   6.155  20.971  0.00  0.00    +0.000 NA
ATOM      4  C   UNL     1       1.707   7.338  20.287  0.00  0.00    +0.000 A 
ATOM      5  C   UNL     1       1.178   8.577  20.621  0.00  0.00    +0.000 A 
ATOM      6  N   UNL     1       1.223   9.596  19.746  0.00  0.00    +0.000 NA
ATOM      7  C   UNL     1       1.781   9.369  18.545  0.00  0.00    +0.000 A 
ATOM      8  N   UNL     1       1.808  10.441  17.675  0.00  0.00    +0.000 N 
ATOM      9  N   UNL     1       2.348   8.226  18.115  0.00  0.00    +0.000 NA
ATOM     10  C   UNL     1       2.269   7.243  19.026  0.00  0.00    +0.000 A 
ATOM     11  H   UNL     1       1.756  11.299  18.207  0.00  0.00    +0.000 HD
ATOM     12  H   UNL     1       2.571  10.344  17.022  0.00  0.00    +0.000 HD
ENDROOT
BRANCH   1  15
ATOM     13  C   UNL     1       2.637   3.089  17.006  0.00  0.00    +0.000 C 
ATOM     14  C   UNL     1       3.436   3.853  17.767  0.00  0.00    +0.000 C 
ATOM     15  C   UNL     1       3.434   5.371  17.803  0.00  0.00    +0.000 C 
ATOM     16  C   UNL     1       4.943   5.625  17.783  0.00  0.00    +0.000 C 
ATOM     17  C   UNL     1       5.550   4.531  18.670  0.00  0.00    +0.000 C 
ATOM     18  C   UNL     1       4.629   3.304  18.525  0.00  0.00    +0.000 C 
BRANCH  17  19
ATOM     19  O   UNL     1       6.873   4.246  18.221  0.00  0.00    +0.000 OA
ATOM     20  H   UNL     1       7.006   3.283  18.221  0.00  0.00    +0.000 HD
ENDBRANCH  17  19
BRANCH  18  21
ATOM     21  C   UNL     1       4.237   2.688  19.874  0.00  0.00    +0.000 C 
BRANCH  21  22
ATOM     22  O   UNL     1       5.170   1.705  20.307  0.00  0.00    +0.000 OA
ATOM     23  H   UNL     1       5.482   1.977  21.191  0.00  0.00    +0.000 HD
ENDBRANCH  21  22
ENDBRANCH  18  21
ENDBRANCH   1  15
BRANCH   5  24
ATOM     24  O   UNL     1       0.596   8.817  21.843  0.00  0.00    +0.000 OA
ATOM     25  H   UNL     1       0.653   7.962  22.309  0.00  0.00    +0.000 HD
ENDBRANCH   5  24
TORSDOF 5
ENDMDL
