MODEL 1
REMARK VINA RESULT:      -6.6      0.000      0.000
REMARK  Name = 
REMARK  3 active torsions:
REMARK  status: ('A' for Active; 'I' for Inactive)
REMARK    1  A    between atoms: C_2  and  C_3
REMARK    2  A    between atoms: N_10  and  C_11
REMARK    3  A    between atoms: C_11  and  C_12
REMARK                            x       y       z     vdW  Elec       q    Type
REMARK                         _______ _______ _______ _____ _____    ______ ____
ROOT
ATOM      1  C   UNL     1       2.522   7.356  18.883  0.00  0.00    +0.000 C 
ATOM      2  C   UNL     1       1.686   7.424  20.154  0.00  0.00    +0.000 C 
ATOM      3  C   UNL     1       1.302   8.848  20.506  0.00  0.00    +0.000 C 
ATOM      4  C   UNL     1       0.591   9.549  19.358  0.00  0.00    +0.000 C 
ATOM      5  C   UNL     1       1.267   9.274  18.013  0.00  0.00    +0.000 C 
ATOM      6  C   UNL     1       2.327  10.354  17.924  0.00  0.00    +0.000 C 
ATOM      7  C   UNL     1       1.675  11.539  18.618  0.00  0.00    +0.000 C 
ATOM      8  N   UNL     1       0.717  11.001  19.602  0.00  0.00    +0.000 NA
ATOM      9  O   UNL     1       1.783   7.954  17.795  0.00  0.00    +0.000 OA
ENDROOT
BRANCH   1  11
ATOM     10  O   UNL     1       2.130   5.026  18.392  0.00  0.00    +0.000 OA
ATOM     11  C   UNL     1       2.964   5.943  18.401  0.00  0.00    +0.000 C 
ATOM     12  N   UNL     1       4.260   5.704  18.038  0.00  0.00    +0.000 N 
ATOM     13  C   UNL     1       4.834   4.408  17.691  0.00  0.00    +0.000 C 
ATOM     14  C   UNL     1       4.908   4.259  16.175  0.00  0.00    +0.000 C 
ATOM     15  C   UNL     1       5.601   5.478  15.562  0.00  0.00    +0.000 C 
ATOM     16  C   UNL     1       4.986   6.759  16.110  0.00  0.00    +0.000 C 
ATOM     17  O   UNL     1       5.068   6.748  17.543  0.00  0.00    +0.000 OA
ENDBRANCH   1  11
BRANCH   8  18
ATOM     18  C   UNL     1      -0.578  11.700  19.576  0.00  0.00    +0.000 C 
BRANCH  18  19
ATOM     19  C   UNL     1      -1.196  11.800  20.949  0.00  0.00    +0.000 A 
ATOM     20  C   UNL     1      -0.720  11.305  22.149  0.00  0.00    +0.000 A 
ATOM     21  C   UNL     1      -1.574  11.620  23.247  0.00  0.00    +0.000 A 
ATOM     22  C   UNL     1      -2.677  12.341  22.851  0.00  0.00    +0.000 A 
ATOM     23  S   UNL     1      -2.693  12.615  21.164  0.00  0.00    +0.000 S 
ENDBRANCH  18  19
ENDBRANCH   8  18
TORSDOF 3
ENDMDL
MODEL 2
REMARK VINA RESULT:      -6.6      1.616      2.753
REMARK  Name = 
REMARK  3 active torsions:
REMARK  status: ('A' for Active; 'I' for Inactive)
REMARK    1  A    between atoms: C_2  and  C_3
REMARK    2  A    between atoms: N_10  and  C_11
REMARK    3  A    between atoms: C_11  and  C_12
REMARK                            x       y       z     vdW  Elec       q    Type
REMARK                         _______ _______ _______ _____ _____    ______ ____
ROOT
ATOM      1  C   UNL     1       2.156   6.979  18.728  0.00  0.00    +0.000 C 
ATOM      2  C   UNL     1       2.145   8.245  17.881  0.00  0.00    +0.000 C 
ATOM      3  C   UNL     1       1.135   9.257  18.385  0.00  0.00    +0.000 C 
ATOM      4  C   UNL     1       1.349   9.596  19.853  0.00  0.00    +0.000 C 
ATOM      5  C   UNL     1       1.630   8.348  20.693  0.00  0.00    +0.000 C 
ATOM      6  C   UNL     1       0.248   7.863  21.079  0.00  0.00    +0.000 C 
ATOM      7  C   UNL     1      -0.543   9.152  21.235  0.00  0.00    +0.000 C 
ATOM      8  N   UNL     1       0.075  10.157  20.350  0.00  0.00    +0.000 NA
ATOM      9  O   UNL     1       2.445   7.328  20.100  0.00  0.00    +0.000 OA
ENDROOT
BRANCH   1  11
ATOM     10  O   UNL     1       4.353   5.981  18.675  0.00  0.00    +0.000 OA
ATOM     11  C   UNL     1       3.169   5.867  18.326  0.00  0.00    +0.000 C 
ATOM     12  N   UNL     1       2.771   4.805  17.562  0.00  0.00    +0.000 N 
ATOM     13  C   UNL     1       3.635   3.767  17.011  0.00  0.00    +0.000 C 
ATOM     14  C   UNL     1       3.574   2.518  17.885  0.00  0.00    +0.000 C 
ATOM     15  C   UNL     1       2.117   2.114  18.119  0.00  0.00    +0.000 C 
ATOM     16  C   UNL     1       1.305   3.323  18.567  0.00  0.00    +0.000 C 
ATOM     17  O   UNL     1       1.432   4.367  17.590  0.00  0.00    +0.000 OA
ENDBRANCH   1  11
BRANCH   8  18
ATOM     18  C   UNL     1       0.243  11.464  21.005  0.00  0.00    +0.000 C 
BRANCH  18  19
ATOM     19  C   UNL     1      -1.041  11.956  21.627  0.00  0.00    +0.000 A 
ATOM     20  C   UNL     1      -1.372  12.048  22.966  0.00  0.00    +0.000 A 
ATOM     21  C   UNL     1      -2.675  12.589  23.171  0.00  0.00    +0.000 A 
ATOM     22  C   UNL     1      -3.302  12.887  21.982  0.00  0.00    +0.000 A 
ATOM     23  S   UNL     1      -2.331  12.498  20.630  0.00  0.00    +0.000 S 
ENDBRANCH  18  19
ENDBRANCH   8  18
TORSDOF 3
ENDMDL
MODEL 3
REMARK VINA RESULT:      -6.4      2.048      3.390
REMARK  Name = 
REMARK  3 active torsions:
REMARK  status: ('A' for Active; 'I' for Inactive)
REMARK    1  A    between atoms: C_2  and  C_3
REMARK    2  A    between atoms: N_10  and  C_11
REMARK    3  A    between atoms: C_11  and  C_12
REMARK                            x       y       z     vdW  Elec       q    Type
REMARK                         _______ _______ _______ _____ _____    ______ ____
ROOT
ATOM      1  C   UNL     1       2.176   6.921  18.790  0.00  0.00    +0.000 C 
ATOM      2  C   UNL     1       2.206   8.213  17.984  0.00  0.00    +0.000 C 
ATOM      3  C   UNL     1       1.202   9.226  18.497  0.00  0.00    +0.000 C 
ATOM      4  C   UNL     1       1.388   9.514  19.980  0.00  0.00    +0.000 C 
ATOM      5  C   UNL     1       1.628   8.236  20.785  0.00  0.00    +0.000 C 
ATOM      6  C   UNL     1       0.229   7.763  21.124  0.00  0.00    +0.000 C 
ATOM      7  C   UNL     1      -0.542   9.060  21.304  0.00  0.00    +0.000 C 
ATOM      8  N   UNL     1       0.112  10.082  20.466  0.00  0.00    +0.000 NA
ATOM      9  O   UNL     1       2.439   7.220  20.179  0.00  0.00    +0.000 OA
ENDROOT
BRANCH   1  11
ATOM     10  O   UNL     1       4.360   5.895  18.740  0.00  0.00    +0.000 OA
ATOM     11  C   UNL     1       3.178   5.804  18.375  0.00  0.00    +0.000 C 
ATOM     12  N   UNL     1       2.775   4.764  17.583  0.00  0.00    +0.000 N 
ATOM     13  C   UNL     1       3.632   3.727  17.020  0.00  0.00    +0.000 C 
ATOM     14  C   UNL     1       3.544   2.460  17.866  0.00  0.00    +0.000 C 
ATOM     15  C   UNL     1       2.079   2.071  18.074  0.00  0.00    +0.000 C 
ATOM     16  C   UNL     1       1.278   3.281  18.539  0.00  0.00    +0.000 C 
ATOM     17  O   UNL     1       1.430   4.344  17.586  0.00  0.00    +0.000 OA
ENDBRANCH   1  11
BRANCH   8  18
ATOM     18  C   UNL     1       0.288  11.364  21.166  0.00  0.00    +0.000 C 
BRANCH  18  19
ATOM     19  C   UNL     1       0.250  12.538  20.219  0.00  0.00    +0.000 A 
ATOM     20  C   UNL     1      -0.412  12.652  19.010  0.00  0.00    +0.000 A 
ATOM     21  C   UNL     1      -0.231  13.931  18.407  0.00  0.00    +0.000 A 
ATOM     22  C   UNL     1       0.567  14.753  19.170  0.00  0.00    +0.000 A 
ATOM     23  S   UNL     1       1.110  13.977  20.593  0.00  0.00    +0.000 S 
ENDBRANCH  18  19
ENDBRANCH   8  18
TORSDOF 3
ENDMDL
MODEL 4
REMARK VINA RESULT:      -6.3      2.062      3.538
REMARK  Name = 
REMARK  3 active torsions:
REMARK  status: ('A' for Active; 'I' for Inactive)
REMARK    1  A    between atoms: C_2  and  C_3
REMARK    2  A    between atoms: N_10  and  C_11
REMARK    3  A    between atoms: C_11  and  C_12
REMARK                            x       y       z     vdW  Elec       q    Type
REMARK                         _______ _______ _______ _____ _____    ______ ____
ROOT
ATOM      1  C   UNL     1       2.150   7.035  18.706  0.00  0.00    +0.000 C 
ATOM      2  C   UNL     1       2.233   8.343  17.930  0.00  0.00    +0.000 C 
ATOM      3  C   UNL     1       1.258   9.378  18.454  0.00  0.00    +0.000 C 
ATOM      4  C   UNL     1       1.435   9.627  19.945  0.00  0.00    +0.000 C 
ATOM      5  C   UNL     1       1.623   8.323  20.724  0.00  0.00    +0.000 C 
ATOM      6  C   UNL     1       0.205   7.890  21.036  0.00  0.00    +0.000 C 
ATOM      7  C   UNL     1      -0.525   9.209  21.236  0.00  0.00    +0.000 C 
ATOM      8  N   UNL     1       0.174  10.226  20.429  0.00  0.00    +0.000 NA
ATOM      9  O   UNL     1       2.407   7.295  20.104  0.00  0.00    +0.000 OA
ENDROOT
BRANCH   1  11
ATOM     10  O   UNL     1       4.335   6.035  18.478  0.00  0.00    +0.000 OA
ATOM     11  C   UNL     1       3.120   5.895  18.277  0.00  0.00    +0.000 C 
ATOM     12  N   UNL     1       2.646   4.777  17.647  0.00  0.00    +0.000 N 
ATOM     13  C   UNL     1       3.451   3.699  17.082  0.00  0.00    +0.000 C 
ATOM     14  C   UNL     1       3.500   2.522  18.052  0.00  0.00    +0.000 C 
ATOM     15  C   UNL     1       2.082   2.138  18.481  0.00  0.00    +0.000 C 
ATOM     16  C   UNL     1       1.317   3.378  18.924  0.00  0.00    +0.000 C 
ATOM     17  O   UNL     1       1.323   4.343  17.861  0.00  0.00    +0.000 OA
ENDBRANCH   1  11
BRANCH   8  18
ATOM     18  C   UNL     1       0.383  11.486  21.160  0.00  0.00    +0.000 C 
BRANCH  18  19
ATOM     19  C   UNL     1       1.046  12.536  20.303  0.00  0.00    +0.000 A 
ATOM     20  C   UNL     1       2.253  13.181  20.505  0.00  0.00    +0.000 A 
ATOM     21  C   UNL     1       2.563  14.100  19.460  0.00  0.00    +0.000 A 
ATOM     22  C   UNL     1       1.582  14.133  18.495  0.00  0.00    +0.000 A 
ATOM     23  S   UNL     1       0.287  13.078  18.861  0.00  0.00    +0.000 S 
ENDBRANCH  18  19
ENDBRANCH   8  18
TORSDOF 3
ENDMDL
MODEL 5
REMARK VINA RESULT:      -6.3      0.986      1.039
REMARK  Name = 
REMARK  3 active torsions:
REMARK  status: ('A' for Active; 'I' for Inactive)
REMARK    1  A    between atoms: C_2  and  C_3
REMARK    2  A    between atoms: N_10  and  C_11
REMARK    3  A    between atoms: C_11  and  C_12
REMARK                            x       y       z     vdW  Elec       q    Type
REMARK                         _______ _______ _______ _____ _____    ______ ____
ROOT
ATOM      1  C   UNL     1       2.574   7.303  18.858  0.00  0.00    +0.000 C 
ATOM      2  C   UNL     1       1.829   7.341  20.187  0.00  0.00    +0.000 C 
ATOM      3  C   UNL     1       1.451   8.753  20.586  0.00  0.00    +0.000 C 
ATOM      4  C   UNL     1       0.649   9.459  19.502  0.00  0.00    +0.000 C 
ATOM      5  C   UNL     1       1.232   9.213  18.109  0.00  0.00    +0.000 C 
ATOM      6  C   UNL     1       2.267  10.311  17.960  0.00  0.00    +0.000 C 
ATOM      7  C   UNL     1       1.649  11.476  18.716  0.00  0.00    +0.000 C 
ATOM      8  N   UNL     1       0.772  10.909  19.758  0.00  0.00    +0.000 NA
ATOM      9  O   UNL     1       1.750   7.905  17.834  0.00  0.00    +0.000 OA
ENDROOT
BRANCH   1  11
ATOM     10  O   UNL     1       2.156   4.997  18.283  0.00  0.00    +0.000 OA
ATOM     11  C   UNL     1       3.000   5.904  18.325  0.00  0.00    +0.000 C 
ATOM     12  N   UNL     1       4.294   5.665  17.953  0.00  0.00    +0.000 N 
ATOM     13  C   UNL     1       4.854   4.376  17.560  0.00  0.00    +0.000 C 
ATOM     14  C   UNL     1       4.926   4.280  16.039  0.00  0.00    +0.000 C 
ATOM     15  C   UNL     1       5.632   5.513  15.470  0.00  0.00    +0.000 C 
ATOM     16  C   UNL     1       5.031   6.780  16.065  0.00  0.00    +0.000 C 
ATOM     17  O   UNL     1       5.113   6.717  17.496  0.00  0.00    +0.000 OA
ENDBRANCH   1  11
BRANCH   8  18
ATOM     18  C   UNL     1      -0.531  11.588  19.835  0.00  0.00    +0.000 C 
BRANCH  18  19
ATOM     19  C   UNL     1      -0.630  12.493  21.039  0.00  0.00    +0.000 A 
ATOM     20  C   UNL     1      -0.117  13.766  21.207  0.00  0.00    +0.000 A 
ATOM     21  C   UNL     1      -0.438  14.319  22.482  0.00  0.00    +0.000 A 
ATOM     22  C   UNL     1      -1.180  13.450  23.249  0.00  0.00    +0.000 A 
ATOM     23  S   UNL     1      -1.469  11.970  22.443  0.00  0.00    +0.000 S 
ENDBRANCH  18  19
ENDBRANCH   8  18
TORSDOF 3
ENDMDL
MODEL 6
REMARK VINA RESULT:      -6.3      1.331      2.139
REMARK  Name = 
REMARK  3 active torsions:
REMARK  status: ('A' for Active; 'I' for Inactive)
REMARK    1  A    between atoms: C_2  and  C_3
REMARK    2  A    between atoms: N_10  and  C_11
REMARK    3  A    between atoms: C_11  and  C_12
REMARK                            x       y       z     vdW  Elec       q    Type
REMARK                         _______ _______ _______ _____ _____    ______ ____
ROOT
ATOM      1  C   UNL     1       2.991   7.134  18.871  0.00  0.00    +0.000 C 
ATOM      2  C   UNL     1       2.105   7.037  20.107  0.00  0.00    +0.000 C 
ATOM      3  C   UNL     1       1.488   8.373  20.469  0.00  0.00    +0.000 C 
ATOM      4  C   UNL     1       0.720   8.982  19.305  0.00  0.00    +0.000 C 
ATOM      5  C   UNL     1       1.484   8.853  17.986  0.00  0.00    +0.000 C 
ATOM      6  C   UNL     1       2.362  10.088  17.963  0.00  0.00    +0.000 C 
ATOM      7  C   UNL     1       1.504  11.137  18.651  0.00  0.00    +0.000 C 
ATOM      8  N   UNL     1       0.606  10.430  19.583  0.00  0.00    +0.000 NA
ATOM      9  O   UNL     1       2.210   7.636  17.764  0.00  0.00    +0.000 OA
ENDROOT
BRANCH   1  11
ATOM     10  O   UNL     1       4.879   5.655  18.598  0.00  0.00    +0.000 OA
ATOM     11  C   UNL     1       3.669   5.821  18.381  0.00  0.00    +0.000 C 
ATOM     12  N   UNL     1       2.956   4.887  17.682  0.00  0.00    +0.000 N 
ATOM     13  C   UNL     1       3.492   3.681  17.059  0.00  0.00    +0.000 C 
ATOM     14  C   UNL     1       3.239   2.473  17.956  0.00  0.00    +0.000 C 
ATOM     15  C   UNL     1       1.762   2.416  18.353  0.00  0.00    +0.000 C 
ATOM     16  C   UNL     1       1.306   3.776  18.864  0.00  0.00    +0.000 C 
ATOM     17  O   UNL     1       1.563   4.770  17.862  0.00  0.00    +0.000 OA
ENDBRANCH   1  11
BRANCH   8  18
ATOM     18  C   UNL     1      -0.781  10.917  19.515  0.00  0.00    +0.000 C 
BRANCH  18  19
ATOM     19  C   UNL     1      -1.233  11.526  20.820  0.00  0.00    +0.000 A 
ATOM     20  C   UNL     1      -0.837  11.206  22.106  0.00  0.00    +0.000 A 
ATOM     21  C   UNL     1      -1.468  12.022  23.090  0.00  0.00    +0.000 A 
ATOM     22  C   UNL     1      -2.330  12.935  22.527  0.00  0.00    +0.000 A 
ATOM     23  S   UNL     1      -2.392  12.794  20.824  0.00  0.00    +0.000 S 
ENDBRANCH  18  19
ENDBRANCH   8  18
TORSDOF 3
ENDMDL
MODEL 7
REMARK VINA RESULT:      -6.2      3.213      8.438
REMARK  Name = 
REMARK  3 active torsions:
REMARK  status: ('A' for Active; 'I' for Inactive)
REMARK    1  A    between atoms: C_2  and  C_3
REMARK    2  A    between atoms: N_10  and  C_11
REMARK    3  A    between atoms: C_11  and  C_12
REMARK                            x       y       z     vdW  Elec       q    Type
REMARK                         _______ _______ _______ _____ _____    ______ ____
ROOT
ATOM      1  C   UNL     1       2.006   8.549  19.133  0.00  0.00    +0.000 C 
ATOM      2  C   UNL     1       2.709   8.646  17.785  0.00  0.00    +0.000 C 
ATOM      3  C   UNL     1       3.739   7.550  17.600  0.00  0.00    +0.000 C 
ATOM      4  C   UNL     1       3.140   6.164  17.795  0.00  0.00    +0.000 C 
ATOM      5  C   UNL     1       2.208   6.109  19.006  0.00  0.00    +0.000 C 
ATOM      6  C   UNL     1       3.141   5.790  20.157  0.00  0.00    +0.000 C 
ATOM      7  C   UNL     1       4.186   4.890  19.517  0.00  0.00    +0.000 C 
ATOM      8  N   UNL     1       4.265   5.253  18.090  0.00  0.00    +0.000 NA
ATOM      9  O   UNL     1       1.378   7.253  19.250  0.00  0.00    +0.000 OA
ENDROOT
BRANCH   1  11
ATOM     10  O   UNL     1       0.034   9.826  18.584  0.00  0.00    +0.000 OA
ATOM     11  C   UNL     1       0.907   9.608  19.437  0.00  0.00    +0.000 C 
ATOM     12  N   UNL     1       0.929  10.321  20.604  0.00  0.00    +0.000 N 
ATOM     13  C   UNL     1       0.042  11.424  20.958  0.00  0.00    +0.000 C 
ATOM     14  C   UNL     1      -1.075  10.924  21.869  0.00  0.00    +0.000 C 
ATOM     15  C   UNL     1      -0.482  10.145  23.045  0.00  0.00    +0.000 C 
ATOM     16  C   UNL     1       0.521   9.117  22.537  0.00  0.00    +0.000 C 
ATOM     17  O   UNL     1       1.528   9.782  21.760  0.00  0.00    +0.000 OA
ENDBRANCH   1  11
BRANCH   8  18
ATOM     18  C   UNL     1       4.295   4.076  17.206  0.00  0.00    +0.000 C 
BRANCH  18  19
ATOM     19  C   UNL     1       5.273   4.245  16.069  0.00  0.00    +0.000 A 
ATOM     20  C   UNL     1       5.153   3.827  14.757  0.00  0.00    +0.000 A 
ATOM     21  C   UNL     1       6.279   4.191  13.962  0.00  0.00    +0.000 A 
ATOM     22  C   UNL     1       7.228   4.870  14.693  0.00  0.00    +0.000 A 
ATOM     23  S   UNL     1       6.769   5.047  16.331  0.00  0.00    +0.000 S 
ENDBRANCH  18  19
ENDBRANCH   8  18
TORSDOF 3
ENDMDL
MODEL 8
REMARK VINA RESULT:      -6.2      3.784      8.820
REMARK  Name = 
REMARK  3 active torsions:
REMARK  status: ('A' for Active; 'I' for Inactive)
REMARK    1  A    between atoms: C_2  and  C_3
REMARK    2  A    between atoms: N_10  and  C_11
REMARK    3  A    between atoms: C_11  and  C_12
REMARK                            x       y       z     vdW  Elec       q    Type
REMARK                         _______ _______ _______ _____ _____    ______ ____
ROOT
ATOM      1  C   UNL     1      -0.964  11.347  22.164  0.00  0.00    +0.000 C 
ATOM      2  C   UNL     1      -0.810   9.982  22.824  0.00  0.00    +0.000 C 
ATOM      3  C   UNL     1      -0.326   8.930  21.846  0.00  0.00    +0.000 C 
ATOM      4  C   UNL     1       0.967   9.342  21.157  0.00  0.00    +0.000 C 
ATOM      5  C   UNL     1       0.938  10.806  20.715  0.00  0.00    +0.000 C 
ATOM      6  C   UNL     1       0.305  10.749  19.340  0.00  0.00    +0.000 C 
ATOM      7  C   UNL     1       0.811   9.430  18.779  0.00  0.00    +0.000 C 
ATOM      8  N   UNL     1       1.067   8.534  19.923  0.00  0.00    +0.000 NA
ATOM      9  O   UNL     1       0.302  11.745  21.594  0.00  0.00    +0.000 OA
ENDROOT
BRANCH   1  11
ATOM     10  O   UNL     1      -0.592  13.318  23.506  0.00  0.00    +0.000 OA
ATOM     11  C   UNL     1      -1.436  12.521  23.070  0.00  0.00    +0.000 C 
ATOM     12  N   UNL     1      -2.753  12.648  23.418  0.00  0.00    +0.000 N 
ATOM     13  C   UNL     1      -3.308  13.619  24.355  0.00  0.00    +0.000 C 
ATOM     14  C   UNL     1      -3.915  14.793  23.592  0.00  0.00    +0.000 C 
ATOM     15  C   UNL     1      -4.878  14.279  22.520  0.00  0.00    +0.000 C 
ATOM     16  C   UNL     1      -4.210  13.182  21.701  0.00  0.00    +0.000 C 
ATOM     17  O   UNL     1      -3.765  12.138  22.580  0.00  0.00    +0.000 OA
ENDBRANCH   1  11
BRANCH   8  18
ATOM     18  C   UNL     1       2.349   7.820  19.810  0.00  0.00    +0.000 C 
BRANCH  18  19
ATOM     19  C   UNL     1       2.158   6.364  19.464  0.00  0.00    +0.000 A 
ATOM     20  C   UNL     1       2.411   5.720  18.266  0.00  0.00    +0.000 A 
ATOM     21  C   UNL     1       2.129   4.324  18.326  0.00  0.00    +0.000 A 
ATOM     22  C   UNL     1       1.665   3.945  19.565  0.00  0.00    +0.000 A 
ATOM     23  S   UNL     1       1.550   5.269  20.640  0.00  0.00    +0.000 S 
ENDBRANCH  18  19
ENDBRANCH   8  18
TORSDOF 3
ENDMDL
MODEL 9
REMARK VINA RESULT:      -6.0      1.476      1.916
REMARK  Name = 
REMARK  3 active torsions:
REMARK  status: ('A' for Active; 'I' for Inactive)
REMARK    1  A    between atoms: C_2  and  C_3
REMARK    2  A    between atoms: N_10  and  C_11
REMARK    3  A    between atoms: C_11  and  C_12
REMARK                            x       y       z     vdW  Elec       q    Type
REMARK                         _______ _______ _______ _____ _____    ______ ____
ROOT
ATOM      1  C   UNL     1       2.542   7.344  18.864  0.00  0.00    +0.000 C 
ATOM      2  C   UNL     1       1.791   7.421  20.187  0.00  0.00    +0.000 C 
ATOM      3  C   UNL     1       1.451   8.849  20.565  0.00  0.00    +0.000 C 
ATOM      4  C   UNL     1       0.677   9.562  19.466  0.00  0.00    +0.000 C 
ATOM      5  C   UNL     1       1.261   9.281  18.080  0.00  0.00    +0.000 C 
ATOM      6  C   UNL     1       2.328  10.346  17.923  0.00  0.00    +0.000 C 
ATOM      7  C   UNL     1       1.739  11.539  18.659  0.00  0.00    +0.000 C 
ATOM      8  N   UNL     1       0.840  11.012  19.703  0.00  0.00    +0.000 NA
ATOM      9  O   UNL     1       1.743   7.954  17.827  0.00  0.00    +0.000 OA
ENDROOT
BRANCH   1  11
ATOM     10  O   UNL     1       2.055   5.050  18.291  0.00  0.00    +0.000 OA
ATOM     11  C   UNL     1       2.931   5.926  18.353  0.00  0.00    +0.000 C 
ATOM     12  N   UNL     1       4.226   5.635  18.022  0.00  0.00    +0.000 N 
ATOM     13  C   UNL     1       4.748   4.323  17.654  0.00  0.00    +0.000 C 
ATOM     14  C   UNL     1       4.862   4.214  16.136  0.00  0.00    +0.000 C 
ATOM     15  C   UNL     1       5.632   5.415  15.582  0.00  0.00    +0.000 C 
ATOM     16  C   UNL     1       5.061   6.708  16.150  0.00  0.00    +0.000 C 
ATOM     17  O   UNL     1       5.097   6.652  17.584  0.00  0.00    +0.000 OA
ENDBRANCH   1  11
BRANCH   8  18
ATOM     18  C   UNL     1      -0.444  11.730  19.762  0.00  0.00    +0.000 C 
BRANCH  18  19
ATOM     19  C   UNL     1      -0.256  13.212  19.970  0.00  0.00    +0.000 A 
ATOM     20  C   UNL     1      -0.497  14.246  19.084  0.00  0.00    +0.000 A 
ATOM     21  C   UNL     1      -0.223  15.526  19.650  0.00  0.00    +0.000 A 
ATOM     22  C   UNL     1       0.223  15.430  20.949  0.00  0.00    +0.000 A 
ATOM     23  S   UNL     1       0.331  13.806  21.471  0.00  0.00    +0.000 S 
ENDBRANCH  18  19
ENDBRANCH   8  18
TORSDOF 3
ENDMDL
