MODEL 1
REMARK VINA RESULT:      -8.3      0.000      0.000
REMARK  Name = 
REMARK  8 active torsions:
REMARK  status: ('A' for Active; 'I' for Inactive)
REMARK    1  A    between atoms: C_1  and  C_2
REMARK    2  A    between atoms: C_4  and  O_5
REMARK    3  A    between atoms: O_5  and  C_6
REMARK    4  A    between atoms: C_8  and  N_9
REMARK    5  A    between atoms: C_10  and  C_12
REMARK    6  A    between atoms: C_20  and  N_21
REMARK    7  A    between atoms: N_24  and  C_25
REMARK    8  A    between atoms: C_28  and  C_29
REMARK                            x       y       z     vdW  Elec       q    Type
REMARK                         _______ _______ _______ _____ _____    ______ ____
ROOT
ATOM      1  C   UNL     1       2.063   9.569  17.707  0.00  0.00    +0.000 C 
ATOM      2  C   UNL     1       1.948   8.506  18.766  0.00  0.00    +0.000 A 
ATOM      3  C   UNL     1       2.393   7.204  18.417  0.00  0.00    +0.000 A 
ATOM      4  C   UNL     1       2.345   6.144  19.324  0.00  0.00    +0.000 A 
ATOM      5  C   UNL     1       1.884   6.386  20.607  0.00  0.00    +0.000 A 
ATOM      6  C   UNL     1       1.434   7.660  20.963  0.00  0.00    +0.000 A 
ATOM      7  C   UNL     1       1.446   8.740  20.069  0.00  0.00    +0.000 A 
ENDROOT
BRANCH   7   8
ATOM      8  N   UNL     1       0.977  10.029  20.471  0.00  0.00    +0.000 N 
ATOM      9  C   UNL     1      -0.344  10.342  20.794  0.00  0.00    +0.000 C 
ATOM     10  O   UNL     1      -1.291   9.562  20.767  0.00  0.00    +0.000 OA
ATOM     11  N   UNL     1      -0.524  11.688  21.103  0.00  0.00    +0.000 N 
ATOM     12  H   UNL     1       1.657  10.772  20.511  0.00  0.00    +0.000 HD
ATOM     13  H   UNL     1       0.063  12.315  20.575  0.00  0.00    +0.000 HD
BRANCH  11  14
ATOM     14  C   UNL     1      -1.824  12.173  21.422  0.00  0.00    +0.000 A 
ATOM     15  C   UNL     1      -2.688  12.526  20.386  0.00  0.00    +0.000 A 
ATOM     16  C   UNL     1      -4.002  12.931  20.666  0.00  0.00    +0.000 A 
ATOM     17  C   UNL     1      -4.452  13.044  21.991  0.00  0.00    +0.000 A 
ATOM     18  C   UNL     1      -3.573  12.726  23.030  0.00  0.00    +0.000 A 
ATOM     19 CL   UNL     1      -4.040  12.872  24.690  0.00  0.00    +0.000 Cl
ATOM     20  C   UNL     1      -2.271  12.283  22.747  0.00  0.00    +0.000 A 
BRANCH  17  21
ATOM     21  C   UNL     1      -5.804  13.482  22.230  0.00  0.00    +0.000 C 
ATOM     22  N   UNL     1      -6.879  13.880  22.419  0.00  0.00    +0.000 NA
ENDBRANCH  17  21
ENDBRANCH  11  14
ENDBRANCH   7   8
BRANCH   4  23
ATOM     23  O   UNL     1       2.867   4.936  18.915  0.00  0.00    +0.000 OA
BRANCH  23  24
ATOM     24  C   UNL     1       4.180   4.898  18.449  0.00  0.00    +0.000 A 
ATOM     25  C   UNL     1       4.383   4.329  17.206  0.00  0.00    +0.000 A 
ATOM     26  C   UNL     1       5.696   4.250  16.789  0.00  0.00    +0.000 A 
ATOM     27  N   UNL     1       6.701   4.731  17.537  0.00  0.00    +0.000 NA
ATOM     28  C   UNL     1       6.397   5.255  18.725  0.00  0.00    +0.000 A 
ATOM     29  N   UNL     1       5.172   5.341  19.240  0.00  0.00    +0.000 NA
BRANCH  26  30
ATOM     30  N   UNL     1       5.988   3.628  15.555  0.00  0.00    +0.000 N 
ATOM     31  C   UNL     1       6.402   4.323  14.436  0.00  0.00    +0.000 C 
ATOM     32  O   UNL     1       6.547   5.530  14.324  0.00  0.00    +0.000 OA
ATOM     33  H   UNL     1       5.925   2.620  15.486  0.00  0.00    +0.000 HD
BRANCH  31  34
ATOM     34  C   UNL     1       6.699   3.456  13.251  0.00  0.00    +0.000 C 
ATOM     35  C   UNL     1       5.719   3.436  12.096  0.00  0.00    +0.000 C 
ATOM     36  C   UNL     1       7.048   4.114  11.933  0.00  0.00    +0.000 C 
ENDBRANCH  31  34
ENDBRANCH  26  30
ENDBRANCH  23  24
ENDBRANCH   4  23
TORSDOF 7
ENDMDL
MODEL 2
REMARK VINA RESULT:      -8.2      0.927      1.246
REMARK  Name = 
REMARK  8 active torsions:
REMARK  status: ('A' for Active; 'I' for Inactive)
REMARK    1  A    between atoms: C_1  and  C_2
REMARK    2  A    between atoms: C_4  and  O_5
REMARK    3  A    between atoms: O_5  and  C_6
REMARK    4  A    between atoms: C_8  and  N_9
REMARK    5  A    between atoms: C_10  and  C_12
REMARK    6  A    between atoms: C_20  and  N_21
REMARK    7  A    between atoms: N_24  and  C_25
REMARK    8  A    between atoms: C_28  and  C_29
REMARK                            x       y       z     vdW  Elec       q    Type
REMARK                         _______ _______ _______ _____ _____    ______ ____
ROOT
ATOM      1  C   UNL     1       2.064   9.413  17.793  0.00  0.00    +0.000 C 
ATOM      2  C   UNL     1       1.983   8.351  18.857  0.00  0.00    +0.000 A 
ATOM      3  C   UNL     1       2.423   7.050  18.496  0.00  0.00    +0.000 A 
ATOM      4  C   UNL     1       2.405   5.991  19.404  0.00  0.00    +0.000 A 
ATOM      5  C   UNL     1       1.980   6.233  20.700  0.00  0.00    +0.000 A 
ATOM      6  C   UNL     1       1.536   7.505  21.068  0.00  0.00    +0.000 A 
ATOM      7  C   UNL     1       1.518   8.584  20.172  0.00  0.00    +0.000 A 
ENDROOT
BRANCH   7   8
ATOM      8  N   UNL     1       1.056   9.872  20.587  0.00  0.00    +0.000 N 
ATOM      9  C   UNL     1      -0.233  10.159  21.039  0.00  0.00    +0.000 C 
ATOM     10  O   UNL     1      -1.154   9.354  21.133  0.00  0.00    +0.000 OA
ATOM     11  N   UNL     1      -0.419  11.509  21.328  0.00  0.00    +0.000 N 
ATOM     12  H   UNL     1       1.714  10.633  20.535  0.00  0.00    +0.000 HD
ATOM     13  H   UNL     1       0.091  12.135  20.724  0.00  0.00    +0.000 HD
BRANCH  11  14
ATOM     14  C   UNL     1      -1.693  11.969  21.769  0.00  0.00    +0.000 A 
ATOM     15  C   UNL     1      -2.008  11.894  23.125  0.00  0.00    +0.000 A 
ATOM     16  C   UNL     1      -3.223  12.413  23.599  0.00  0.00    +0.000 A 
ATOM     17  C   UNL     1      -4.164  12.963  22.715  0.00  0.00    +0.000 A 
ATOM     18  C   UNL     1      -3.863  13.002  21.350  0.00  0.00    +0.000 A 
ATOM     19 CL   UNL     1      -4.984  13.631  20.191  0.00  0.00    +0.000 Cl
ATOM     20  C   UNL     1      -2.630  12.519  20.881  0.00  0.00    +0.000 A 
BRANCH  17  21
ATOM     21  C   UNL     1      -5.405  13.466  23.246  0.00  0.00    +0.000 C 
ATOM     22  N   UNL     1      -6.409  13.900  23.637  0.00  0.00    +0.000 NA
ENDBRANCH  17  21
ENDBRANCH  11  14
ENDBRANCH   7   8
BRANCH   4  23
ATOM     23  O   UNL     1       2.920   4.785  18.982  0.00  0.00    +0.000 OA
BRANCH  23  24
ATOM     24  C   UNL     1       4.240   4.740  18.536  0.00  0.00    +0.000 A 
ATOM     25  C   UNL     1       4.455   4.206  17.280  0.00  0.00    +0.000 A 
ATOM     26  C   UNL     1       5.773   4.119  16.882  0.00  0.00    +0.000 A 
ATOM     27  N   UNL     1       6.773   4.560  17.661  0.00  0.00    +0.000 NA
ATOM     28  C   UNL     1       6.458   5.052  18.859  0.00  0.00    +0.000 A 
ATOM     29  N   UNL     1       5.226   5.142  19.357  0.00  0.00    +0.000 NA
BRANCH  26  30
ATOM     30  N   UNL     1       6.076   3.531  15.634  0.00  0.00    +0.000 N 
ATOM     31  C   UNL     1       6.198   4.256  14.465  0.00  0.00    +0.000 C 
ATOM     32  O   UNL     1       6.041   5.459  14.318  0.00  0.00    +0.000 OA
ATOM     33  H   UNL     1       6.247   2.535  15.588  0.00  0.00    +0.000 HD
BRANCH  31  34
ATOM     34  C   UNL     1       6.568   3.434  13.269  0.00  0.00    +0.000 C 
ATOM     35  C   UNL     1       5.615   3.386  12.092  0.00  0.00    +0.000 C 
ATOM     36  C   UNL     1       6.908   4.140  11.973  0.00  0.00    +0.000 C 
ENDBRANCH  31  34
ENDBRANCH  26  30
ENDBRANCH  23  24
ENDBRANCH   4  23
TORSDOF 7
ENDMDL
MODEL 3
REMARK VINA RESULT:      -8.1      1.579      1.860
REMARK  Name = 
REMARK  8 active torsions:
REMARK  status: ('A' for Active; 'I' for Inactive)
REMARK    1  A    between atoms: C_1  and  C_2
REMARK    2  A    between atoms: C_4  and  O_5
REMARK    3  A    between atoms: O_5  and  C_6
REMARK    4  A    between atoms: C_8  and  N_9
REMARK    5  A    between atoms: C_10  and  C_12
REMARK    6  A    between atoms: C_20  and  N_21
REMARK    7  A    between atoms: N_24  and  C_25
REMARK    8  A    between atoms: C_28  and  C_29
REMARK                            x       y       z     vdW  Elec       q    Type
REMARK                         _______ _______ _______ _____ _____    ______ ____
ROOT
ATOM      1  C   UNL     1       2.398   8.989  17.541  0.00  0.00    +0.000 C 
ATOM      2  C   UNL     1       2.173   8.087  18.725  0.00  0.00    +0.000 A 
ATOM      3  C   UNL     1       2.904   6.870  18.749  0.00  0.00    +0.000 A 
ATOM      4  C   UNL     1       2.784   5.963  19.803  0.00  0.00    +0.000 A 
ATOM      5  C   UNL     1       1.955   6.283  20.865  0.00  0.00    +0.000 A 
ATOM      6  C   UNL     1       1.222   7.472  20.851  0.00  0.00    +0.000 A 
ATOM      7  C   UNL     1       1.302   8.393  19.797  0.00  0.00    +0.000 A 
ENDROOT
BRANCH   7   8
ATOM      8  N   UNL     1       0.535   9.599  19.819  0.00  0.00    +0.000 N 
ATOM      9  C   UNL     1       0.262  10.361  20.957  0.00  0.00    +0.000 C 
ATOM     10  O   UNL     1       0.628  10.098  22.098  0.00  0.00    +0.000 OA
ATOM     11  N   UNL     1      -0.551  11.460  20.693  0.00  0.00    +0.000 N 
ATOM     12  H   UNL     1       0.153   9.915  18.943  0.00  0.00    +0.000 HD
ATOM     13  H   UNL     1      -1.240  11.301  19.974  0.00  0.00    +0.000 HD
BRANCH  11  14
ATOM     14  C   UNL     1      -0.949  12.318  21.758  0.00  0.00    +0.000 A 
ATOM     15  C   UNL     1      -0.176  13.442  22.046  0.00  0.00    +0.000 A 
ATOM     16  C   UNL     1      -0.586  14.349  23.035  0.00  0.00    +0.000 A 
ATOM     17  C   UNL     1      -1.746  14.113  23.790  0.00  0.00    +0.000 A 
ATOM     18  C   UNL     1      -2.499  12.965  23.526  0.00  0.00    +0.000 A 
ATOM     19 CL   UNL     1      -3.921  12.585  24.436  0.00  0.00    +0.000 Cl
ATOM     20  C   UNL     1      -2.109  12.079  22.508  0.00  0.00    +0.000 A 
BRANCH  17  21
ATOM     21  C   UNL     1      -2.117  15.062  24.808  0.00  0.00    +0.000 C 
ATOM     22  N   UNL     1      -2.377  15.815  25.653  0.00  0.00    +0.000 NA
ENDBRANCH  17  21
ENDBRANCH  11  14
ENDBRANCH   7   8
BRANCH   4  23
ATOM     23  O   UNL     1       3.590   4.845  19.772  0.00  0.00    +0.000 OA
BRANCH  23  24
ATOM     24  C   UNL     1       4.754   4.881  19.007  0.00  0.00    +0.000 A 
ATOM     25  C   UNL     1       4.695   4.296  17.756  0.00  0.00    +0.000 A 
ATOM     26  C   UNL     1       5.874   4.292  17.039  0.00  0.00    +0.000 A 
ATOM     27  N   UNL     1       6.993   4.854  17.523  0.00  0.00    +0.000 NA
ATOM     28  C   UNL     1       6.944   5.386  18.744  0.00  0.00    +0.000 A 
ATOM     29  N   UNL     1       5.873   5.405  19.536  0.00  0.00    +0.000 NA
BRANCH  26  30
ATOM     30  N   UNL     1       5.907   3.660  15.776  0.00  0.00    +0.000 N 
ATOM     31  C   UNL     1       6.433   4.255  14.646  0.00  0.00    +0.000 C 
ATOM     32  O   UNL     1       6.903   5.378  14.550  0.00  0.00    +0.000 OA
ATOM     33  H   UNL     1       5.561   2.713  15.691  0.00  0.00    +0.000 HD
BRANCH  31  34
ATOM     34  C   UNL     1       6.406   3.386  13.427  0.00  0.00    +0.000 C 
ATOM     35  C   UNL     1       5.308   3.597  12.403  0.00  0.00    +0.000 C 
ATOM     36  C   UNL     1       6.716   4.005  12.080  0.00  0.00    +0.000 C 
ENDBRANCH  31  34
ENDBRANCH  26  30
ENDBRANCH  23  24
ENDBRANCH   4  23
TORSDOF 7
ENDMDL
MODEL 4
REMARK VINA RESULT:      -7.8      5.744      9.940
REMARK  Name = 
REMARK  8 active torsions:
REMARK  status: ('A' for Active; 'I' for Inactive)
REMARK    1  A    between atoms: C_1  and  C_2
REMARK    2  A    between atoms: C_4  and  O_5
REMARK    3  A    between atoms: O_5  and  C_6
REMARK    4  A    between atoms: C_8  and  N_9
REMARK    5  A    between atoms: C_10  and  C_12
REMARK    6  A    between atoms: C_20  and  N_21
REMARK    7  A    between atoms: N_24  and  C_25
REMARK    8  A    between atoms: C_28  and  C_29
REMARK                            x       y       z     vdW  Elec       q    Type
REMARK                         _______ _______ _______ _____ _____    ______ ____
ROOT
ATOM      1  C   UNL     1       8.378   5.495  20.170  0.00  0.00    +0.000 C 
ATOM      2  C   UNL     1       7.526   5.928  19.007  0.00  0.00    +0.000 A 
ATOM      3  C   UNL     1       6.542   5.009  18.558  0.00  0.00    +0.000 A 
ATOM      4  C   UNL     1       5.688   5.309  17.496  0.00  0.00    +0.000 A 
ATOM      5  C   UNL     1       5.786   6.553  16.894  0.00  0.00    +0.000 A 
ATOM      6  C   UNL     1       6.756   7.464  17.318  0.00  0.00    +0.000 A 
ATOM      7  C   UNL     1       7.645   7.184  18.366  0.00  0.00    +0.000 A 
ENDROOT
BRANCH   7   8
ATOM      8  N   UNL     1       8.624   8.143  18.771  0.00  0.00    +0.000 N 
ATOM      9  C   UNL     1       8.649   9.484  18.383  0.00  0.00    +0.000 C 
ATOM     10  O   UNL     1       7.845  10.026  17.632  0.00  0.00    +0.000 OA
ATOM     11  N   UNL     1       9.747  10.176  18.889  0.00  0.00    +0.000 N 
ATOM     12  H   UNL     1       9.362   7.817  19.375  0.00  0.00    +0.000 HD
ATOM     13  H   UNL     1      10.586   9.622  18.962  0.00  0.00    +0.000 HD
BRANCH  11  14
ATOM     14  C   UNL     1       9.934  11.548  18.555  0.00  0.00    +0.000 A 
ATOM     15  C   UNL     1      10.820  11.881  17.532  0.00  0.00    +0.000 A 
ATOM     16  C   UNL     1      10.965  13.217  17.128  0.00  0.00    +0.000 A 
ATOM     17  C   UNL     1      10.267  14.245  17.780  0.00  0.00    +0.000 A 
ATOM     18  C   UNL     1       9.408  13.913  18.832  0.00  0.00    +0.000 A 
ATOM     19 CL   UNL     1       8.539  15.125  19.710  0.00  0.00    +0.000 Cl
ATOM     20  C   UNL     1       9.233  12.572  19.210  0.00  0.00    +0.000 A 
BRANCH  17  21
ATOM     21  C   UNL     1      10.462  15.603  17.342  0.00  0.00    +0.000 C 
ATOM     22  N   UNL     1      10.666  16.694  16.997  0.00  0.00    +0.000 NA
ENDBRANCH  17  21
ENDBRANCH  11  14
ENDBRANCH   7   8
BRANCH   4  23
ATOM     23  O   UNL     1       4.717   4.383  17.182  0.00  0.00    +0.000 OA
BRANCH  23  24
ATOM     24  C   UNL     1       3.641   4.220  18.052  0.00  0.00    +0.000 A 
ATOM     25  C   UNL     1       3.283   5.318  18.812  0.00  0.00    +0.000 A 
ATOM     26  C   UNL     1       2.253   5.118  19.708  0.00  0.00    +0.000 A 
ATOM     27  N   UNL     1       1.624   3.936  19.802  0.00  0.00    +0.000 NA
ATOM     28  C   UNL     1       2.051   2.939  19.028  0.00  0.00    +0.000 A 
ATOM     29  N   UNL     1       3.061   3.012  18.164  0.00  0.00    +0.000 NA
BRANCH  26  30
ATOM     30  N   UNL     1       1.870   6.177  20.560  0.00  0.00    +0.000 N 
ATOM     31  C   UNL     1       1.917   7.505  20.186  0.00  0.00    +0.000 C 
ATOM     32  O   UNL     1       2.307   7.962  19.122  0.00  0.00    +0.000 OA
ATOM     33  H   UNL     1       1.511   5.961  21.482  0.00  0.00    +0.000 HD
BRANCH  31  34
ATOM     34  C   UNL     1       1.420   8.455  21.232  0.00  0.00    +0.000 C 
ATOM     35  C   UNL     1       0.383   9.490  20.846  0.00  0.00    +0.000 C 
ATOM     36  C   UNL     1      -0.011   8.330  21.713  0.00  0.00    +0.000 C 
ENDBRANCH  31  34
ENDBRANCH  26  30
ENDBRANCH  23  24
ENDBRANCH   4  23
TORSDOF 7
ENDMDL
MODEL 5
REMARK VINA RESULT:      -7.7      1.921      2.504
REMARK  Name = 
REMARK  8 active torsions:
REMARK  status: ('A' for Active; 'I' for Inactive)
REMARK    1  A    between atoms: C_1  and  C_2
REMARK    2  A    between atoms: C_4  and  O_5
REMARK    3  A    between atoms: O_5  and  C_6
REMARK    4  A    between atoms: C_8  and  N_9
REMARK    5  A    between atoms: C_10  and  C_12
REMARK    6  A    between atoms: C_20  and  N_21
REMARK    7  A    between atoms: N_24  and  C_25
REMARK    8  A    between atoms: C_28  and  C_29
REMARK                            x       y       z     vdW  Elec       q    Type
REMARK                         _______ _______ _______ _____ _____    ______ ____
ROOT
ATOM      1  C   UNL     1       0.977   8.269  21.282  0.00  0.00    +0.000 C 
ATOM      2  C   UNL     1       1.726   7.999  20.004  0.00  0.00    +0.000 A 
ATOM      3  C   UNL     1       2.445   6.778  19.930  0.00  0.00    +0.000 A 
ATOM      4  C   UNL     1       3.165   6.418  18.790  0.00  0.00    +0.000 A 
ATOM      5  C   UNL     1       3.141   7.263  17.693  0.00  0.00    +0.000 A 
ATOM      6  C   UNL     1       2.445   8.473  17.754  0.00  0.00    +0.000 A 
ATOM      7  C   UNL     1       1.733   8.875  18.892  0.00  0.00    +0.000 A 
ENDROOT
BRANCH   7   8
ATOM      8  N   UNL     1       1.033  10.121  18.916  0.00  0.00    +0.000 N 
ATOM      9  C   UNL     1      -0.341  10.272  19.118  0.00  0.00    +0.000 C 
ATOM     10  O   UNL     1      -1.142   9.359  19.290  0.00  0.00    +0.000 OA
ATOM     11  N   UNL     1      -0.759  11.598  19.040  0.00  0.00    +0.000 N 
ATOM     12  H   UNL     1       1.576  10.955  18.761  0.00  0.00    +0.000 HD
ATOM     13  H   UNL     1      -0.250  12.153  18.370  0.00  0.00    +0.000 HD
BRANCH  11  14
ATOM     14  C   UNL     1      -2.140  11.914  19.190  0.00  0.00    +0.000 A 
ATOM     15  C   UNL     1      -2.577  12.485  20.385  0.00  0.00    +0.000 A 
ATOM     16  C   UNL     1      -3.916  12.881  20.531  0.00  0.00    +0.000 A 
ATOM     17  C   UNL     1      -4.848  12.659  19.506  0.00  0.00    +0.000 A 
ATOM     18  C   UNL     1      -4.416  12.050  18.323  0.00  0.00    +0.000 A 
ATOM     19 CL   UNL     1      -5.509  11.710  17.026  0.00  0.00    +0.000 Cl
ATOM     20  C   UNL     1      -3.067  11.691  18.162  0.00  0.00    +0.000 A 
BRANCH  17  21
ATOM     21  C   UNL     1      -6.215  13.065  19.709  0.00  0.00    +0.000 C 
ATOM     22  N   UNL     1      -7.302  13.425  19.905  0.00  0.00    +0.000 NA
ENDBRANCH  17  21
ENDBRANCH  11  14
ENDBRANCH   7   8
BRANCH   4  23
ATOM     23  O   UNL     1       3.770   5.180  18.787  0.00  0.00    +0.000 OA
BRANCH  23  24
ATOM     24  C   UNL     1       4.950   5.014  18.065  0.00  0.00    +0.000 A 
ATOM     25  C   UNL     1       4.822   4.762  16.712  0.00  0.00    +0.000 A 
ATOM     26  C   UNL     1       6.001   4.544  16.028  0.00  0.00    +0.000 A 
ATOM     27  N   UNL     1       7.192   4.609  16.642  0.00  0.00    +0.000 NA
ATOM     28  C   UNL     1       7.204   4.853  17.952  0.00  0.00    +0.000 A 
ATOM     29  N   UNL     1       6.128   5.034  18.714  0.00  0.00    +0.000 NA
BRANCH  26  30
ATOM     30  N   UNL     1       5.947   4.222  14.654  0.00  0.00    +0.000 N 
ATOM     31  C   UNL     1       6.842   4.717  13.725  0.00  0.00    +0.000 C 
ATOM     32  O   UNL     1       7.760   5.497  13.922  0.00  0.00    +0.000 OA
ATOM     33  H   UNL     1       5.242   3.573  14.327  0.00  0.00    +0.000 HD
BRANCH  31  34
ATOM     34  C   UNL     1       6.624   4.207  12.333  0.00  0.00    +0.000 C 
ATOM     35  C   UNL     1       6.979   2.767  12.018  0.00  0.00    +0.000 C 
ATOM     36  C   UNL     1       5.538   3.180  12.092  0.00  0.00    +0.000 C 
ENDBRANCH  31  34
ENDBRANCH  26  30
ENDBRANCH  23  24
ENDBRANCH   4  23
TORSDOF 7
ENDMDL
MODEL 6
REMARK VINA RESULT:      -7.6      5.620      9.757
REMARK  Name = 
REMARK  8 active torsions:
REMARK  status: ('A' for Active; 'I' for Inactive)
REMARK    1  A    between atoms: C_1  and  C_2
REMARK    2  A    between atoms: C_4  and  O_5
REMARK    3  A    between atoms: O_5  and  C_6
REMARK    4  A    between atoms: C_8  and  N_9
REMARK    5  A    between atoms: C_10  and  C_12
REMARK    6  A    between atoms: C_20  and  N_21
REMARK    7  A    between atoms: N_24  and  C_25
REMARK    8  A    between atoms: C_28  and  C_29
REMARK                            x       y       z     vdW  Elec       q    Type
REMARK                         _______ _______ _______ _____ _____    ______ ____
ROOT
ATOM      1  C   UNL     1       8.356   5.397  20.300  0.00  0.00    +0.000 C 
ATOM      2  C   UNL     1       7.719   5.750  18.983  0.00  0.00    +0.000 A 
ATOM      3  C   UNL     1       6.915   4.752  18.374  0.00  0.00    +0.000 A 
ATOM      4  C   UNL     1       6.266   4.972  17.158  0.00  0.00    +0.000 A 
ATOM      5  C   UNL     1       6.386   6.214  16.556  0.00  0.00    +0.000 A 
ATOM      6  C   UNL     1       7.181   7.204  17.138  0.00  0.00    +0.000 A 
ATOM      7  C   UNL     1       7.865   7.005  18.346  0.00  0.00    +0.000 A 
ENDROOT
BRANCH   7   8
ATOM      8  N   UNL     1       8.669   8.044  18.910  0.00  0.00    +0.000 N 
ATOM      9  C   UNL     1       8.682   9.374  18.489  0.00  0.00    +0.000 C 
ATOM     10  O   UNL     1       8.016   9.839  17.569  0.00  0.00    +0.000 OA
ATOM     11  N   UNL     1       9.599  10.157  19.186  0.00  0.00    +0.000 N 
ATOM     12  H   UNL     1       9.285   7.787  19.665  0.00  0.00    +0.000 HD
ATOM     13  H   UNL     1      10.441   9.669  19.451  0.00  0.00    +0.000 HD
BRANCH  11  14
ATOM     14  C   UNL     1       9.756  11.532  18.850  0.00  0.00    +0.000 A 
ATOM     15  C   UNL     1      10.605  11.879  17.800  0.00  0.00    +0.000 A 
ATOM     16  C   UNL     1      10.718  13.218  17.394  0.00  0.00    +0.000 A 
ATOM     17  C   UNL     1      10.026  14.235  18.070  0.00  0.00    +0.000 A 
ATOM     18  C   UNL     1       9.205  13.889  19.147  0.00  0.00    +0.000 A 
ATOM     19 CL   UNL     1       8.347  15.088  20.055  0.00  0.00    +0.000 Cl
ATOM     20  C   UNL     1       9.062  12.545  19.527  0.00  0.00    +0.000 A 
BRANCH  17  21
ATOM     21  C   UNL     1      10.188  15.597  17.629  0.00  0.00    +0.000 C 
ATOM     22  N   UNL     1      10.324  16.708  17.319  0.00  0.00    +0.000 NA
ENDBRANCH  17  21
ENDBRANCH  11  14
ENDBRANCH   7   8
BRANCH   4  23
ATOM     23  O   UNL     1       5.450   3.969  16.683  0.00  0.00    +0.000 OA
BRANCH  23  24
ATOM     24  C   UNL     1       4.219   3.759  17.302  0.00  0.00    +0.000 A 
ATOM     25  C   UNL     1       3.576   4.875  17.803  0.00  0.00    +0.000 A 
ATOM     26  C   UNL     1       2.387   4.637  18.462  0.00  0.00    +0.000 A 
ATOM     27  N   UNL     1       1.880   3.400  18.573  0.00  0.00    +0.000 NA
ATOM     28  C   UNL     1       2.584   2.391  18.059  0.00  0.00    +0.000 A 
ATOM     29  N   UNL     1       3.759   2.504  17.444  0.00  0.00    +0.000 NA
BRANCH  26  30
ATOM     30  N   UNL     1       1.701   5.722  19.052  0.00  0.00    +0.000 N 
ATOM     31  C   UNL     1       1.704   5.970  20.411  0.00  0.00    +0.000 C 
ATOM     32  O   UNL     1       2.246   5.311  21.284  0.00  0.00    +0.000 OA
ATOM     33  H   UNL     1       1.206   6.374  18.457  0.00  0.00    +0.000 HD
BRANCH  31  34
ATOM     34  C   UNL     1       0.948   7.200  20.810  0.00  0.00    +0.000 C 
ATOM     35  C   UNL     1       1.670   8.279  21.593  0.00  0.00    +0.000 C 
ATOM     36  C   UNL     1       1.302   8.520  20.157  0.00  0.00    +0.000 C 
ENDBRANCH  31  34
ENDBRANCH  26  30
ENDBRANCH  23  24
ENDBRANCH   4  23
TORSDOF 7
ENDMDL
MODEL 7
REMARK VINA RESULT:      -7.5      4.157     11.725
REMARK  Name = 
REMARK  8 active torsions:
REMARK  status: ('A' for Active; 'I' for Inactive)
REMARK    1  A    between atoms: C_1  and  C_2
REMARK    2  A    between atoms: C_4  and  O_5
REMARK    3  A    between atoms: O_5  and  C_6
REMARK    4  A    between atoms: C_8  and  N_9
REMARK    5  A    between atoms: C_10  and  C_12
REMARK    6  A    between atoms: C_20  and  N_21
REMARK    7  A    between atoms: N_24  and  C_25
REMARK    8  A    between atoms: C_28  and  C_29
REMARK                            x       y       z     vdW  Elec       q    Type
REMARK                         _______ _______ _______ _____ _____    ______ ____
ROOT
ATOM      1  C   UNL     1      -1.365  10.058  17.648  0.00  0.00    +0.000 C 
ATOM      2  C   UNL     1      -0.441  11.019  18.347  0.00  0.00    +0.000 A 
ATOM      3  C   UNL     1      -1.043  12.138  18.979  0.00  0.00    +0.000 A 
ATOM      4  C   UNL     1      -0.285  13.088  19.667  0.00  0.00    +0.000 A 
ATOM      5  C   UNL     1       1.085  12.905  19.761  0.00  0.00    +0.000 A 
ATOM      6  C   UNL     1       1.692  11.813  19.136  0.00  0.00    +0.000 A 
ATOM      7  C   UNL     1       0.963  10.855  18.417  0.00  0.00    +0.000 A 
ENDROOT
BRANCH   7   8
ATOM      8  N   UNL     1       1.621   9.752  17.792  0.00  0.00    +0.000 N 
ATOM      9  C   UNL     1       1.950   8.548  18.418  0.00  0.00    +0.000 C 
ATOM     10  O   UNL     1       1.734   8.271  19.593  0.00  0.00    +0.000 OA
ATOM     11  N   UNL     1       2.633   7.669  17.581  0.00  0.00    +0.000 N 
ATOM     12  H   UNL     1       1.878   9.861  16.824  0.00  0.00    +0.000 HD
ATOM     13  H   UNL     1       3.251   8.120  16.924  0.00  0.00    +0.000 HD
BRANCH  11  14
ATOM     14  C   UNL     1       3.069   6.409  18.082  0.00  0.00    +0.000 A 
ATOM     15  C   UNL     1       4.345   6.306  18.636  0.00  0.00    +0.000 A 
ATOM     16  C   UNL     1       4.772   5.099  19.210  0.00  0.00    +0.000 A 
ATOM     17  C   UNL     1       3.950   3.962  19.187  0.00  0.00    +0.000 A 
ATOM     18  C   UNL     1       2.686   4.056  18.597  0.00  0.00    +0.000 A 
ATOM     19 CL   UNL     1       1.627   2.691  18.498  0.00  0.00    +0.000 Cl
ATOM     20  C   UNL     1       2.244   5.276  18.059  0.00  0.00    +0.000 A 
BRANCH  17  21
ATOM     21  C   UNL     1       4.439   2.740  19.772  0.00  0.00    +0.000 C 
ATOM     22  N   UNL     1       4.876   1.774  20.247  0.00  0.00    +0.000 NA
ENDBRANCH  17  21
ENDBRANCH  11  14
ENDBRANCH   7   8
BRANCH   4  23
ATOM     23  O   UNL     1      -0.967  14.098  20.309  0.00  0.00    +0.000 OA
BRANCH  23  24
ATOM     24  C   UNL     1      -1.783  13.772  21.391  0.00  0.00    +0.000 A 
ATOM     25  C   UNL     1      -3.010  13.208  21.098  0.00  0.00    +0.000 A 
ATOM     26  C   UNL     1      -3.824  12.947  22.181  0.00  0.00    +0.000 A 
ATOM     27  N   UNL     1      -3.425  13.198  23.437  0.00  0.00    +0.000 NA
ATOM     28  C   UNL     1      -2.224  13.750  23.610  0.00  0.00    +0.000 A 
ATOM     29  N   UNL     1      -1.379  14.081  22.636  0.00  0.00    +0.000 NA
BRANCH  26  30
ATOM     30  N   UNL     1      -5.117  12.424  21.956  0.00  0.00    +0.000 N 
ATOM     31  C   UNL     1      -6.191  13.201  21.569  0.00  0.00    +0.000 C 
ATOM     32  O   UNL     1      -6.208  14.410  21.396  0.00  0.00    +0.000 OA
ATOM     33  H   UNL     1      -5.267  11.427  22.049  0.00  0.00    +0.000 HD
BRANCH  31  34
ATOM     34  C   UNL     1      -7.456  12.430  21.344  0.00  0.00    +0.000 C 
ATOM     35  C   UNL     1      -7.845  12.063  19.926  0.00  0.00    +0.000 C 
ATOM     36  C   UNL     1      -7.362  10.996  20.865  0.00  0.00    +0.000 C 
ENDBRANCH  31  34
ENDBRANCH  26  30
ENDBRANCH  23  24
ENDBRANCH   4  23
TORSDOF 7
ENDMDL
MODEL 8
REMARK VINA RESULT:      -7.5      2.300      3.612
REMARK  Name = 
REMARK  8 active torsions:
REMARK  status: ('A' for Active; 'I' for Inactive)
REMARK    1  A    between atoms: C_1  and  C_2
REMARK    2  A    between atoms: C_4  and  O_5
REMARK    3  A    between atoms: O_5  and  C_6
REMARK    4  A    between atoms: C_8  and  N_9
REMARK    5  A    between atoms: C_10  and  C_12
REMARK    6  A    between atoms: C_20  and  N_21
REMARK    7  A    between atoms: N_24  and  C_25
REMARK    8  A    between atoms: C_28  and  C_29
REMARK                            x       y       z     vdW  Elec       q    Type
REMARK                         _______ _______ _______ _____ _____    ______ ____
ROOT
ATOM      1  C   UNL     1       1.376   8.025  21.548  0.00  0.00    +0.000 C 
ATOM      2  C   UNL     1       1.743   8.148  20.093  0.00  0.00    +0.000 A 
ATOM      3  C   UNL     1       2.314   7.003  19.479  0.00  0.00    +0.000 A 
ATOM      4  C   UNL     1       2.681   6.999  18.132  0.00  0.00    +0.000 A 
ATOM      5  C   UNL     1       2.445   8.134  17.375  0.00  0.00    +0.000 A 
ATOM      6  C   UNL     1       1.893   9.272  17.967  0.00  0.00    +0.000 A 
ATOM      7  C   UNL     1       1.536   9.317  19.323  0.00  0.00    +0.000 A 
ENDROOT
BRANCH   7   8
ATOM      8  N   UNL     1       0.973  10.500  19.893  0.00  0.00    +0.000 N 
ATOM      9  C   UNL     1      -0.366  10.666  20.251  0.00  0.00    +0.000 C 
ATOM     10  O   UNL     1      -1.252   9.827  20.116  0.00  0.00    +0.000 OA
ATOM     11  N   UNL     1      -0.646  11.940  20.737  0.00  0.00    +0.000 N 
ATOM     12  H   UNL     1       1.594  11.281  20.034  0.00  0.00    +0.000 HD
ATOM     13  H   UNL     1      -0.112  12.676  20.300  0.00  0.00    +0.000 HD
BRANCH  11  14
ATOM     14  C   UNL     1      -1.977  12.278  21.114  0.00  0.00    +0.000 A 
ATOM     15  C   UNL     1      -2.887  12.651  20.125  0.00  0.00    +0.000 A 
ATOM     16  C   UNL     1      -4.225  12.911  20.456  0.00  0.00    +0.000 A 
ATOM     17  C   UNL     1      -4.659  12.858  21.789  0.00  0.00    +0.000 A 
ATOM     18  C   UNL     1      -3.737  12.522  22.785  0.00  0.00    +0.000 A 
ATOM     19 CL   UNL     1      -4.185  12.469  24.456  0.00  0.00    +0.000 Cl
ATOM     20  C   UNL     1      -2.407  12.222  22.448  0.00  0.00    +0.000 A 
BRANCH  17  21
ATOM     21  C   UNL     1      -6.039  13.152  22.083  0.00  0.00    +0.000 C 
ATOM     22  N   UNL     1      -7.137  13.426  22.345  0.00  0.00    +0.000 NA
ENDBRANCH  17  21
ENDBRANCH  11  14
ENDBRANCH   7   8
BRANCH   4  23
ATOM     23  O   UNL     1       3.158   5.817  17.609  0.00  0.00    +0.000 OA
BRANCH  23  24
ATOM     24  C   UNL     1       4.469   5.775  17.138  0.00  0.00    +0.000 A 
ATOM     25  C   UNL     1       5.255   6.885  17.386  0.00  0.00    +0.000 A 
ATOM     26  C   UNL     1       6.531   6.845  16.862  0.00  0.00    +0.000 A 
ATOM     27  N   UNL     1       6.980   5.778  16.184  0.00  0.00    +0.000 NA
ATOM     28  C   UNL     1       6.138   4.762  15.994  0.00  0.00    +0.000 A 
ATOM     29  N   UNL     1       4.877   4.715  16.419  0.00  0.00    +0.000 NA
BRANCH  26  30
ATOM     30  N   UNL     1       7.375   7.967  17.024  0.00  0.00    +0.000 N 
ATOM     31  C   UNL     1       8.252   8.107  18.082  0.00  0.00    +0.000 C 
ATOM     32  O   UNL     1       8.413   7.340  19.018  0.00  0.00    +0.000 OA
ATOM     33  H   UNL     1       7.367   8.694  16.320  0.00  0.00    +0.000 HD
BRANCH  31  34
ATOM     34  C   UNL     1       9.081   9.354  18.029  0.00  0.00    +0.000 C 
ATOM     35  C   UNL     1       8.395  10.695  18.196  0.00  0.00    +0.000 C 
ATOM     36  C   UNL     1       9.266  10.162  19.296  0.00  0.00    +0.000 C 
ENDBRANCH  31  34
ENDBRANCH  26  30
ENDBRANCH  23  24
ENDBRANCH   4  23
TORSDOF 7
ENDMDL
MODEL 9
REMARK VINA RESULT:      -7.4      4.161     10.556
REMARK  Name = 
REMARK  8 active torsions:
REMARK  status: ('A' for Active; 'I' for Inactive)
REMARK    1  A    between atoms: C_1  and  C_2
REMARK    2  A    between atoms: C_4  and  O_5
REMARK    3  A    between atoms: O_5  and  C_6
REMARK    4  A    between atoms: C_8  and  N_9
REMARK    5  A    between atoms: C_10  and  C_12
REMARK    6  A    between atoms: C_20  and  N_21
REMARK    7  A    between atoms: N_24  and  C_25
REMARK    8  A    between atoms: C_28  and  C_29
REMARK                            x       y       z     vdW  Elec       q    Type
REMARK                         _______ _______ _______ _____ _____    ______ ____
ROOT
ATOM      1  C   UNL     1       0.547  12.170  19.903  0.00  0.00    +0.000 C 
ATOM      2  C   UNL     1      -0.301  11.941  21.125  0.00  0.00    +0.000 A 
ATOM      3  C   UNL     1      -1.337  12.881  21.369  0.00  0.00    +0.000 A 
ATOM      4  C   UNL     1      -2.193  12.762  22.465  0.00  0.00    +0.000 A 
ATOM      5  C   UNL     1      -2.043  11.675  23.311  0.00  0.00    +0.000 A 
ATOM      6  C   UNL     1      -1.023  10.747  23.090  0.00  0.00    +0.000 A 
ATOM      7  C   UNL     1      -0.132  10.852  22.012  0.00  0.00    +0.000 A 
ENDROOT
BRANCH   7   8
ATOM      8  N   UNL     1       0.900   9.881  21.819  0.00  0.00    +0.000 N 
ATOM      9  C   UNL     1       0.809   8.761  20.992  0.00  0.00    +0.000 C 
ATOM     10  O   UNL     1      -0.170   8.442  20.324  0.00  0.00    +0.000 OA
ATOM     11  N   UNL     1       1.947   7.960  21.034  0.00  0.00    +0.000 N 
ATOM     12  H   UNL     1       1.756  10.014  22.334  0.00  0.00    +0.000 HD
ATOM     13  H   UNL     1       2.395   7.926  21.937  0.00  0.00    +0.000 HD
BRANCH  11  14
ATOM     14  C   UNL     1       1.997   6.759  20.270  0.00  0.00    +0.000 A 
ATOM     15  C   UNL     1       2.501   6.804  18.971  0.00  0.00    +0.000 A 
ATOM     16  C   UNL     1       2.636   5.624  18.223  0.00  0.00    +0.000 A 
ATOM     17  C   UNL     1       2.217   4.390  18.744  0.00  0.00    +0.000 A 
ATOM     18  C   UNL     1       1.675   4.353  20.032  0.00  0.00    +0.000 A 
ATOM     19 CL   UNL     1       1.102   2.878  20.733  0.00  0.00    +0.000 Cl
ATOM     20  C   UNL     1       1.577   5.528  20.795  0.00  0.00    +0.000 A 
BRANCH  17  21
ATOM     21  C   UNL     1       2.358   3.209  17.932  0.00  0.00    +0.000 C 
ATOM     22  N   UNL     1       2.453   2.280  17.241  0.00  0.00    +0.000 NA
ENDBRANCH  17  21
ENDBRANCH  11  14
ENDBRANCH   7   8
BRANCH   4  23
ATOM     23  O   UNL     1      -3.213  13.682  22.576  0.00  0.00    +0.000 OA
BRANCH  23  24
ATOM     24  C   UNL     1      -4.171  13.743  21.566  0.00  0.00    +0.000 A 
ATOM     25  C   UNL     1      -4.100  12.776  20.581  0.00  0.00    +0.000 A 
ATOM     26  C   UNL     1      -5.023  12.889  19.561  0.00  0.00    +0.000 A 
ATOM     27  N   UNL     1      -5.947  13.861  19.555  0.00  0.00    +0.000 NA
ATOM     28  C   UNL     1      -5.925  14.748  20.549  0.00  0.00    +0.000 A 
ATOM     29  N   UNL     1      -5.054  14.757  21.557  0.00  0.00    +0.000 NA
BRANCH  26  30
ATOM     30  N   UNL     1      -4.975  11.971  18.489  0.00  0.00    +0.000 N 
ATOM     31  C   UNL     1      -3.797  11.541  17.912  0.00  0.00    +0.000 C 
ATOM     32  O   UNL     1      -2.661  11.888  18.197  0.00  0.00    +0.000 OA
ATOM     33  H   UNL     1      -5.840  11.579  18.139  0.00  0.00    +0.000 HD
BRANCH  31  34
ATOM     34  C   UNL     1      -3.981  10.533  16.819  0.00  0.00    +0.000 C 
ATOM     35  C   UNL     1      -3.454  10.851  15.434  0.00  0.00    +0.000 C 
ATOM     36  C   UNL     1      -2.764   9.816  16.274  0.00  0.00    +0.000 C 
ENDBRANCH  31  34
ENDBRANCH  26  30
ENDBRANCH  23  24
ENDBRANCH   4  23
TORSDOF 7
ENDMDL
