MODEL 1
REMARK VINA RESULT:      -7.3      0.000      0.000
REMARK  Name = 
REMARK  11 active torsions:
REMARK  status: ('A' for Active; 'I' for Inactive)
REMARK    1  A    between atoms: C_1  and  C_2
REMARK    2  A    between atoms: C_2  and  C_4
REMARK    3  A    between atoms: C_5  and  C_6
REMARK    4  A    between atoms: C_8  and  C_9
REMARK    5  A    between atoms: C_9  and  C_11
REMARK    6  A    between atoms: C_11  and  O_12
REMARK    7  A    between atoms: O_12  and  C_13
REMARK    8  A    between atoms: C_13  and  C_15
REMARK    9  A    between atoms: C_16  and  C_17
REMARK   10  A    between atoms: C_20  and  C_21
REMARK   11  A    between atoms: C_22  and  C_23
REMARK                            x       y       z     vdW  Elec       q    Type
REMARK                         _______ _______ _______ _____ _____    ______ ____
ROOT
ATOM      1  C   UNL     1       4.533   2.343  19.003  0.00  0.00    +0.000 C 
ATOM      2  O   UNL     1       4.985   2.250  20.147  0.00  0.00    +0.000 OA
ENDROOT
BRANCH   1   7
ATOM      3  C   UNL     1       5.841   5.196  16.952  0.00  0.00    +0.000 A 
ATOM      4  C   UNL     1       5.678   4.185  16.013  0.00  0.00    +0.000 A 
ATOM      5  C   UNL     1       5.950   4.088  14.552  0.00  0.00    +0.000 C 
ATOM      6  N   UNL     1       5.201   3.074  16.674  0.00  0.00    +0.000 N 
ATOM      7  C   UNL     1       5.042   3.313  18.022  0.00  0.00    +0.000 A 
ATOM      8  C   UNL     1       5.452   4.631  18.227  0.00  0.00    +0.000 A 
ATOM      9  C   UNL     1       5.485   5.383  19.523  0.00  0.00    +0.000 C 
ATOM     10  H   UNL     1       5.009   2.196  16.211  0.00  0.00    +0.000 HD
BRANCH   3  12
ATOM     11  C   UNL     1       7.590   7.047  17.438  0.00  0.00    +0.000 C 
ATOM     12  C   UNL     1       6.333   6.577  16.756  0.00  0.00    +0.000 C 
ATOM     13  O   UNL     1       5.743   7.355  16.002  0.00  0.00    +0.000 OA
ENDBRANCH   3  12
ENDBRANCH   1   7
BRANCH   1  14
ATOM     14  C   UNL     1       3.356   1.446  18.591  0.00  0.00    +0.000 C 
BRANCH  14  15
ATOM     15  O   UNL     1       2.360   2.145  17.831  0.00  0.00    +0.000 OA
BRANCH  15  16
ATOM     16  C   UNL     1       1.285   2.567  18.564  0.00  0.00    +0.000 C 
ATOM     17  O   UNL     1       0.161   2.090  18.427  0.00  0.00    +0.000 OA
BRANCH  16  18
ATOM     18  C   UNL     1       1.583   3.651  19.480  0.00  0.00    +0.000 A 
ATOM     19  C   UNL     1       1.889   5.014  19.177  0.00  0.00    +0.000 A 
ATOM     20  C   UNL     1       1.986   5.705  17.871  0.00  0.00    +0.000 C 
ATOM     21  N   UNL     1       2.117   5.723  20.290  0.00  0.00    +0.000 NA
ATOM     22  O   UNL     1       1.956   4.846  21.338  0.00  0.00    +0.000 OA
ATOM     23  C   UNL     1       1.638   3.613  20.861  0.00  0.00    +0.000 A 
ATOM     24  C   UNL     1       1.440   2.576  21.891  0.00  0.00    +0.000 C 
ENDBRANCH  16  18
ENDBRANCH  15  16
ENDBRANCH  14  15
ENDBRANCH   1  14
TORSDOF 6
ENDMDL
MODEL 2
REMARK VINA RESULT:      -7.1      0.702      1.798
REMARK  Name = 
REMARK  11 active torsions:
REMARK  status: ('A' for Active; 'I' for Inactive)
REMARK    1  A    between atoms: C_1  and  C_2
REMARK    2  A    between atoms: C_2  and  C_4
REMARK    3  A    between atoms: C_5  and  C_6
REMARK    4  A    between atoms: C_8  and  C_9
REMARK    5  A    between atoms: C_9  and  C_11
REMARK    6  A    between atoms: C_11  and  O_12
REMARK    7  A    between atoms: O_12  and  C_13
REMARK    8  A    between atoms: C_13  and  C_15
REMARK    9  A    between atoms: C_16  and  C_17
REMARK   10  A    between atoms: C_20  and  C_21
REMARK   11  A    between atoms: C_22  and  C_23
REMARK                            x       y       z     vdW  Elec       q    Type
REMARK                         _______ _______ _______ _____ _____    ______ ____
ROOT
ATOM      1  C   UNL     1       4.519   2.300  18.998  0.00  0.00    +0.000 C 
ATOM      2  O   UNL     1       4.938   2.229  20.156  0.00  0.00    +0.000 OA
ENDROOT
BRANCH   1   7
ATOM      3  C   UNL     1       6.028   5.032  16.921  0.00  0.00    +0.000 A 
ATOM      4  C   UNL     1       5.678   4.078  15.974  0.00  0.00    +0.000 A 
ATOM      5  C   UNL     1       5.836   3.992  14.496  0.00  0.00    +0.000 C 
ATOM      6  N   UNL     1       5.113   3.014  16.643  0.00  0.00    +0.000 N 
ATOM      7  C   UNL     1       5.077   3.230  18.004  0.00  0.00    +0.000 A 
ATOM      8  C   UNL     1       5.660   4.481  18.208  0.00  0.00    +0.000 A 
ATOM      9  C   UNL     1       5.874   5.184  19.514  0.00  0.00    +0.000 C 
ATOM     10  H   UNL     1       4.782   2.180  16.177  0.00  0.00    +0.000 HD
BRANCH   3  12
ATOM     11  C   UNL     1       6.038   7.603  17.253  0.00  0.00    +0.000 C 
ATOM     12  C   UNL     1       6.674   6.347  16.720  0.00  0.00    +0.000 C 
ATOM     13  O   UNL     1       7.761   6.434  16.144  0.00  0.00    +0.000 OA
ENDBRANCH   3  12
ENDBRANCH   1   7
BRANCH   1  14
ATOM     14  C   UNL     1       3.332   1.419  18.580  0.00  0.00    +0.000 C 
BRANCH  14  15
ATOM     15  O   UNL     1       2.354   2.129  17.806  0.00  0.00    +0.000 OA
BRANCH  15  16
ATOM     16  C   UNL     1       1.307   2.621  18.537  0.00  0.00    +0.000 C 
ATOM     17  O   UNL     1       0.159   2.200  18.416  0.00  0.00    +0.000 OA
BRANCH  16  18
ATOM     18  C   UNL     1       1.666   3.706  19.429  0.00  0.00    +0.000 A 
ATOM     19  C   UNL     1       1.704   3.709  20.857  0.00  0.00    +0.000 A 
ATOM     20  C   UNL     1       1.399   2.630  21.825  0.00  0.00    +0.000 C 
ATOM     21  N   UNL     1       2.077   4.904  21.336  0.00  0.00    +0.000 NA
ATOM     22  O   UNL     1       2.299   5.699  20.235  0.00  0.00    +0.000 OA
ATOM     23  C   UNL     1       2.057   4.992  19.099  0.00  0.00    +0.000 A 
ATOM     24  C   UNL     1       2.258   5.737  17.843  0.00  0.00    +0.000 C 
ENDBRANCH  16  18
ENDBRANCH  15  16
ENDBRANCH  14  15
ENDBRANCH   1  14
TORSDOF 6
ENDMDL
MODEL 3
REMARK VINA RESULT:      -7.0      2.160      6.129
REMARK  Name = 
REMARK  11 active torsions:
REMARK  status: ('A' for Active; 'I' for Inactive)
REMARK    1  A    between atoms: C_1  and  C_2
REMARK    2  A    between atoms: C_2  and  C_4
REMARK    3  A    between atoms: C_5  and  C_6
REMARK    4  A    between atoms: C_8  and  C_9
REMARK    5  A    between atoms: C_9  and  C_11
REMARK    6  A    between atoms: C_11  and  O_12
REMARK    7  A    between atoms: O_12  and  C_13
REMARK    8  A    between atoms: C_13  and  C_15
REMARK    9  A    between atoms: C_16  and  C_17
REMARK   10  A    between atoms: C_20  and  C_21
REMARK   11  A    between atoms: C_22  and  C_23
REMARK                            x       y       z     vdW  Elec       q    Type
REMARK                         _______ _______ _______ _____ _____    ______ ____
ROOT
ATOM      1  C   UNL     1       6.638   5.104  19.012  0.00  0.00    +0.000 C 
ATOM      2  O   UNL     1       7.261   5.407  20.033  0.00  0.00    +0.000 OA
ENDROOT
BRANCH   1   7
ATOM      3  C   UNL     1       2.904   4.783  18.896  0.00  0.00    +0.000 A 
ATOM      4  C   UNL     1       3.116   6.103  18.515  0.00  0.00    +0.000 A 
ATOM      5  C   UNL     1       2.206   7.229  18.166  0.00  0.00    +0.000 C 
ATOM      6  N   UNL     1       4.475   6.329  18.531  0.00  0.00    +0.000 N 
ATOM      7  C   UNL     1       5.174   5.203  18.913  0.00  0.00    +0.000 A 
ATOM      8  C   UNL     1       4.212   4.224  19.164  0.00  0.00    +0.000 A 
ATOM      9  C   UNL     1       4.445   2.815  19.616  0.00  0.00    +0.000 C 
ATOM     10  H   UNL     1       4.890   7.222  18.302  0.00  0.00    +0.000 HD
BRANCH   3  12
ATOM     11  C   UNL     1       0.947   3.962  20.385  0.00  0.00    +0.000 C 
ATOM     12  C   UNL     1       1.627   4.053  19.044  0.00  0.00    +0.000 C 
ATOM     13  O   UNL     1       1.079   3.536  18.068  0.00  0.00    +0.000 OA
ENDBRANCH   3  12
ENDBRANCH   1   7
BRANCH   1  14
ATOM     14  C   UNL     1       7.410   4.553  17.804  0.00  0.00    +0.000 C 
BRANCH  14  15
ATOM     15  O   UNL     1       7.819   5.578  16.887  0.00  0.00    +0.000 OA
BRANCH  15  16
ATOM     16  C   UNL     1       6.836   5.992  16.030  0.00  0.00    +0.000 C 
ATOM     17  O   UNL     1       6.218   7.042  16.189  0.00  0.00    +0.000 OA
BRANCH  16  18
ATOM     18  C   UNL     1       6.564   5.064  14.949  0.00  0.00    +0.000 A 
ATOM     19  C   UNL     1       7.225   4.947  13.688  0.00  0.00    +0.000 A 
ATOM     20  C   UNL     1       8.359   5.717  13.127  0.00  0.00    +0.000 C 
ATOM     21  N   UNL     1       6.687   3.974  12.941  0.00  0.00    +0.000 NA
ATOM     22  O   UNL     1       5.675   3.431  13.698  0.00  0.00    +0.000 OA
ATOM     23  C   UNL     1       5.598   4.075  14.893  0.00  0.00    +0.000 A 
ATOM     24  C   UNL     1       4.544   3.587  15.801  0.00  0.00    +0.000 C 
ENDBRANCH  16  18
ENDBRANCH  15  16
ENDBRANCH  14  15
ENDBRANCH   1  14
TORSDOF 6
ENDMDL
MODEL 4
REMARK VINA RESULT:      -6.9      3.200      6.422
REMARK  Name = 
REMARK  11 active torsions:
REMARK  status: ('A' for Active; 'I' for Inactive)
REMARK    1  A    between atoms: C_1  and  C_2
REMARK    2  A    between atoms: C_2  and  C_4
REMARK    3  A    between atoms: C_5  and  C_6
REMARK    4  A    between atoms: C_8  and  C_9
REMARK    5  A    between atoms: C_9  and  C_11
REMARK    6  A    between atoms: C_11  and  O_12
REMARK    7  A    between atoms: O_12  and  C_13
REMARK    8  A    between atoms: C_13  and  C_15
REMARK    9  A    between atoms: C_16  and  C_17
REMARK   10  A    between atoms: C_20  and  C_21
REMARK   11  A    between atoms: C_22  and  C_23
REMARK                            x       y       z     vdW  Elec       q    Type
REMARK                         _______ _______ _______ _____ _____    ______ ____
ROOT
ATOM      1  C   UNL     1       3.165   5.820  19.364  0.00  0.00    +0.000 C 
ATOM      2  O   UNL     1       4.175   5.498  19.994  0.00  0.00    +0.000 OA
ENDROOT
BRANCH   1   7
ATOM      3  C   UNL     1       1.235   9.014  19.722  0.00  0.00    +0.000 A 
ATOM      4  C   UNL     1       1.041   8.393  20.950  0.00  0.00    +0.000 A 
ATOM      5  C   UNL     1       0.264   8.749  22.170  0.00  0.00    +0.000 C 
ATOM      6  N   UNL     1       1.714   7.191  20.920  0.00  0.00    +0.000 N 
ATOM      7  C   UNL     1       2.347   6.991  19.712  0.00  0.00    +0.000 A 
ATOM      8  C   UNL     1       2.049   8.112  18.935  0.00  0.00    +0.000 A 
ATOM      9  C   UNL     1       2.488   8.388  17.530  0.00  0.00    +0.000 C 
ATOM     10  H   UNL     1       1.721   6.541  21.695  0.00  0.00    +0.000 HD
BRANCH   3  12
ATOM     11  C   UNL     1      -0.638  10.409  18.595  0.00  0.00    +0.000 C 
ATOM     12  C   UNL     1       0.716  10.315  19.247  0.00  0.00    +0.000 C 
ATOM     13  O   UNL     1       1.367  11.350  19.409  0.00  0.00    +0.000 OA
ENDBRANCH   3  12
ENDBRANCH   1   7
BRANCH   1  14
ATOM     14  C   UNL     1       2.706   4.939  18.191  0.00  0.00    +0.000 C 
BRANCH  14  15
ATOM     15  O   UNL     1       3.521   5.096  17.021  0.00  0.00    +0.000 OA
BRANCH  15  16
ATOM     16  C   UNL     1       4.624   4.287  16.990  0.00  0.00    +0.000 C 
ATOM     17  O   UNL     1       4.651   3.183  17.528  0.00  0.00    +0.000 OA
BRANCH  16  18
ATOM     18  C   UNL     1       5.763   4.867  16.304  0.00  0.00    +0.000 A 
ATOM     19  C   UNL     1       6.754   5.757  16.820  0.00  0.00    +0.000 A 
ATOM     20  C   UNL     1       6.909   6.334  18.175  0.00  0.00    +0.000 C 
ATOM     21  N   UNL     1       7.651   6.088  15.882  0.00  0.00    +0.000 NA
ATOM     22  O   UNL     1       7.273   5.415  14.742  0.00  0.00    +0.000 OA
ATOM     23  C   UNL     1       6.151   4.688  14.988  0.00  0.00    +0.000 A 
ATOM     24  C   UNL     1       5.639   3.919  13.839  0.00  0.00    +0.000 C 
ENDBRANCH  16  18
ENDBRANCH  15  16
ENDBRANCH  14  15
ENDBRANCH   1  14
TORSDOF 6
ENDMDL
MODEL 5
REMARK VINA RESULT:      -6.8      2.628      4.399
REMARK  Name = 
REMARK  11 active torsions:
REMARK  status: ('A' for Active; 'I' for Inactive)
REMARK    1  A    between atoms: C_1  and  C_2
REMARK    2  A    between atoms: C_2  and  C_4
REMARK    3  A    between atoms: C_5  and  C_6
REMARK    4  A    between atoms: C_8  and  C_9
REMARK    5  A    between atoms: C_9  and  C_11
REMARK    6  A    between atoms: C_11  and  O_12
REMARK    7  A    between atoms: O_12  and  C_13
REMARK    8  A    between atoms: C_13  and  C_15
REMARK    9  A    between atoms: C_16  and  C_17
REMARK   10  A    between atoms: C_20  and  C_21
REMARK   11  A    between atoms: C_22  and  C_23
REMARK                            x       y       z     vdW  Elec       q    Type
REMARK                         _______ _______ _______ _____ _____    ______ ____
ROOT
ATOM      1  C   UNL     1       7.322   5.027  16.735  0.00  0.00    +0.000 C 
ATOM      2  O   UNL     1       8.120   4.373  17.410  0.00  0.00    +0.000 OA
ENDROOT
BRANCH   1   7
ATOM      3  C   UNL     1       6.437   4.006  13.238  0.00  0.00    +0.000 A 
ATOM      4  C   UNL     1       7.375   5.012  13.041  0.00  0.00    +0.000 A 
ATOM      5  C   UNL     1       7.947   5.659  11.828  0.00  0.00    +0.000 C 
ATOM      6  N   UNL     1       7.765   5.467  14.282  0.00  0.00    +0.000 N 
ATOM      7  C   UNL     1       7.117   4.797  15.297  0.00  0.00    +0.000 A 
ATOM      8  C   UNL     1       6.265   3.886  14.671  0.00  0.00    +0.000 A 
ATOM      9  C   UNL     1       5.328   2.918  15.325  0.00  0.00    +0.000 C 
ATOM     10  H   UNL     1       8.438   6.211  14.411  0.00  0.00    +0.000 HD
BRANCH   3  12
ATOM     11  C   UNL     1       4.336   3.621  11.769  0.00  0.00    +0.000 C 
ATOM     12  C   UNL     1       5.707   3.205  12.231  0.00  0.00    +0.000 C 
ATOM     13  O   UNL     1       6.223   2.205  11.727  0.00  0.00    +0.000 OA
ENDBRANCH   3  12
ENDBRANCH   1   7
BRANCH   1  14
ATOM     14  C   UNL     1       6.539   6.168  17.404  0.00  0.00    +0.000 C 
BRANCH  14  15
ATOM     15  O   UNL     1       5.230   5.770  17.834  0.00  0.00    +0.000 OA
BRANCH  15  16
ATOM     16  C   UNL     1       5.179   5.289  19.114  0.00  0.00    +0.000 C 
ATOM     17  O   UNL     1       6.165   5.245  19.846  0.00  0.00    +0.000 OA
BRANCH  16  18
ATOM     18  C   UNL     1       3.872   4.800  19.510  0.00  0.00    +0.000 A 
ATOM     19  C   UNL     1       2.670   5.543  19.722  0.00  0.00    +0.000 A 
ATOM     20  C   UNL     1       2.408   6.996  19.598  0.00  0.00    +0.000 C 
ATOM     21  N   UNL     1       1.659   4.745  20.092  0.00  0.00    +0.000 NA
ATOM     22  O   UNL     1       2.175   3.470  20.119  0.00  0.00    +0.000 OA
ATOM     23  C   UNL     1       3.490   3.497  19.774  0.00  0.00    +0.000 A 
ATOM     24  C   UNL     1       4.163   2.186  19.768  0.00  0.00    +0.000 C 
ENDBRANCH  16  18
ENDBRANCH  15  16
ENDBRANCH  14  15
ENDBRANCH   1  14
TORSDOF 6
ENDMDL
MODEL 6
REMARK VINA RESULT:      -6.7      2.373      4.253
REMARK  Name = 
REMARK  11 active torsions:
REMARK  status: ('A' for Active; 'I' for Inactive)
REMARK    1  A    between atoms: C_1  and  C_2
REMARK    2  A    between atoms: C_2  and  C_4
REMARK    3  A    between atoms: C_5  and  C_6
REMARK    4  A    between atoms: C_8  and  C_9
REMARK    5  A    between atoms: C_9  and  C_11
REMARK    6  A    between atoms: C_11  and  O_12
REMARK    7  A    between atoms: O_12  and  C_13
REMARK    8  A    between atoms: C_13  and  C_15
REMARK    9  A    between atoms: C_16  and  C_17
REMARK   10  A    between atoms: C_20  and  C_21
REMARK   11  A    between atoms: C_22  and  C_23
REMARK                            x       y       z     vdW  Elec       q    Type
REMARK                         _______ _______ _______ _____ _____    ______ ____
ROOT
ATOM      1  C   UNL     1       6.701   4.911  17.498  0.00  0.00    +0.000 C 
ATOM      2  O   UNL     1       7.578   4.464  18.241  0.00  0.00    +0.000 OA
ENDROOT
BRANCH   1   7
ATOM      3  C   UNL     1       6.371   4.136  13.845  0.00  0.00    +0.000 A 
ATOM      4  C   UNL     1       7.433   5.031  13.879  0.00  0.00    +0.000 A 
ATOM      5  C   UNL     1       8.287   5.652  12.829  0.00  0.00    +0.000 C 
ATOM      6  N   UNL     1       7.635   5.388  15.195  0.00  0.00    +0.000 N 
ATOM      7  C   UNL     1       6.741   4.761  16.036  0.00  0.00    +0.000 A 
ATOM      8  C   UNL     1       5.925   3.983  15.214  0.00  0.00    +0.000 A 
ATOM      9  C   UNL     1       4.783   3.108  15.631  0.00  0.00    +0.000 C 
ATOM     10  H   UNL     1       8.349   6.042  15.487  0.00  0.00    +0.000 HD
BRANCH   3  12
ATOM     11  C   UNL     1       6.555   2.506  11.837  0.00  0.00    +0.000 C 
ATOM     12  C   UNL     1       5.757   3.467  12.678  0.00  0.00    +0.000 C 
ATOM     13  O   UNL     1       4.572   3.657  12.394  0.00  0.00    +0.000 OA
ENDBRANCH   3  12
ENDBRANCH   1   7
BRANCH   1  14
ATOM     14  C   UNL     1       5.536   5.702  18.114  0.00  0.00    +0.000 C 
BRANCH  14  15
ATOM     15  O   UNL     1       5.200   5.263  19.437  0.00  0.00    +0.000 OA
BRANCH  15  16
ATOM     16  C   UNL     1       3.863   5.057  19.641  0.00  0.00    +0.000 C 
ATOM     17  O   UNL     1       3.157   5.848  20.262  0.00  0.00    +0.000 OA
BRANCH  16  18
ATOM     18  C   UNL     1       3.367   3.807  19.096  0.00  0.00    +0.000 A 
ATOM     19  C   UNL     1       3.789   2.476  19.398  0.00  0.00    +0.000 A 
ATOM     20  C   UNL     1       4.828   1.990  20.335  0.00  0.00    +0.000 C 
ATOM     21  N   UNL     1       3.103   1.572  18.686  0.00  0.00    +0.000 NA
ATOM     22  O   UNL     1       2.216   2.290  17.917  0.00  0.00    +0.000 OA
ATOM     23  C   UNL     1       2.369   3.619  18.157  0.00  0.00    +0.000 A 
ATOM     24  C   UNL     1       1.474   4.502  17.387  0.00  0.00    +0.000 C 
ENDBRANCH  16  18
ENDBRANCH  15  16
ENDBRANCH  14  15
ENDBRANCH   1  14
TORSDOF 6
ENDMDL
MODEL 7
REMARK VINA RESULT:      -6.7      3.488      6.714
REMARK  Name = 
REMARK  11 active torsions:
REMARK  status: ('A' for Active; 'I' for Inactive)
REMARK    1  A    between atoms: C_1  and  C_2
REMARK    2  A    between atoms: C_2  and  C_4
REMARK    3  A    between atoms: C_5  and  C_6
REMARK    4  A    between atoms: C_8  and  C_9
REMARK    5  A    between atoms: C_9  and  C_11
REMARK    6  A    between atoms: C_11  and  O_12
REMARK    7  A    between atoms: O_12  and  C_13
REMARK    8  A    between atoms: C_13  and  C_15
REMARK    9  A    between atoms: C_16  and  C_17
REMARK   10  A    between atoms: C_20  and  C_21
REMARK   11  A    between atoms: C_22  and  C_23
REMARK                            x       y       z     vdW  Elec       q    Type
REMARK                         _______ _______ _______ _____ _____    ______ ____
ROOT
ATOM      1  C   UNL     1       2.667   6.184  19.690  0.00  0.00    +0.000 C 
ATOM      2  O   UNL     1       2.453   5.109  20.255  0.00  0.00    +0.000 OA
ENDROOT
BRANCH   1   7
ATOM      3  C   UNL     1       0.997   9.520  20.068  0.00  0.00    +0.000 A 
ATOM      4  C   UNL     1       0.959   9.003  21.358  0.00  0.00    +0.000 A 
ATOM      5  C   UNL     1       0.397   9.498  22.645  0.00  0.00    +0.000 C 
ATOM      6  N   UNL     1       1.550   7.759  21.327  0.00  0.00    +0.000 N 
ATOM      7  C   UNL     1       1.979   7.430  20.059  0.00  0.00    +0.000 A 
ATOM      8  C   UNL     1       1.630   8.510  19.246  0.00  0.00    +0.000 A 
ATOM      9  C   UNL     1       1.865   8.653  17.773  0.00  0.00    +0.000 C 
ATOM     10  H   UNL     1       1.637   7.168  22.143  0.00  0.00    +0.000 HD
BRANCH   3  12
ATOM     11  C   UNL     1       1.367  12.037  19.570  0.00  0.00    +0.000 C 
ATOM     12  C   UNL     1       0.487  10.815  19.570  0.00  0.00    +0.000 C 
ATOM     13  O   UNL     1      -0.655  10.909  19.114  0.00  0.00    +0.000 OA
ENDBRANCH   3  12
ENDBRANCH   1   7
BRANCH   1  14
ATOM     14  C   UNL     1       3.658   6.224  18.517  0.00  0.00    +0.000 C 
BRANCH  14  15
ATOM     15  O   UNL     1       3.982   4.921  18.014  0.00  0.00    +0.000 OA
BRANCH  15  16
ATOM     16  C   UNL     1       5.299   4.575  18.151  0.00  0.00    +0.000 C 
ATOM     17  O   UNL     1       5.701   3.838  19.048  0.00  0.00    +0.000 OA
BRANCH  16  18
ATOM     18  C   UNL     1       6.176   5.188  17.172  0.00  0.00    +0.000 A 
ATOM     19  C   UNL     1       7.252   6.103  17.390  0.00  0.00    +0.000 A 
ATOM     20  C   UNL     1       7.778   6.678  18.649  0.00  0.00    +0.000 C 
ATOM     21  N   UNL     1       7.832   6.462  16.237  0.00  0.00    +0.000 NA
ATOM     22  O   UNL     1       7.157   5.784  15.247  0.00  0.00    +0.000 OA
ATOM     23  C   UNL     1       6.172   5.025  15.798  0.00  0.00    +0.000 A 
ATOM     24  C   UNL     1       5.369   4.247  14.837  0.00  0.00    +0.000 C 
ENDBRANCH  16  18
ENDBRANCH  15  16
ENDBRANCH  14  15
ENDBRANCH   1  14
TORSDOF 6
ENDMDL
MODEL 8
REMARK VINA RESULT:      -6.7      2.826      6.365
REMARK  Name = 
REMARK  11 active torsions:
REMARK  status: ('A' for Active; 'I' for Inactive)
REMARK    1  A    between atoms: C_1  and  C_2
REMARK    2  A    between atoms: C_2  and  C_4
REMARK    3  A    between atoms: C_5  and  C_6
REMARK    4  A    between atoms: C_8  and  C_9
REMARK    5  A    between atoms: C_9  and  C_11
REMARK    6  A    between atoms: C_11  and  O_12
REMARK    7  A    between atoms: O_12  and  C_13
REMARK    8  A    between atoms: C_13  and  C_15
REMARK    9  A    between atoms: C_16  and  C_17
REMARK   10  A    between atoms: C_20  and  C_21
REMARK   11  A    between atoms: C_22  and  C_23
REMARK                            x       y       z     vdW  Elec       q    Type
REMARK                         _______ _______ _______ _____ _____    ______ ____
ROOT
ATOM      1  C   UNL     1       2.727   5.040  20.043  0.00  0.00    +0.000 C 
ATOM      2  O   UNL     1       2.074   4.113  20.529  0.00  0.00    +0.000 OA
ENDROOT
BRANCH   1   7
ATOM      3  C   UNL     1       1.615   8.564  19.410  0.00  0.00    +0.000 A 
ATOM      4  C   UNL     1       1.474   8.435  20.787  0.00  0.00    +0.000 A 
ATOM      5  C   UNL     1       0.982   9.345  21.858  0.00  0.00    +0.000 C 
ATOM      6  N   UNL     1       1.856   7.156  21.127  0.00  0.00    +0.000 N 
ATOM      7  C   UNL     1       2.245   6.429  20.022  0.00  0.00    +0.000 A 
ATOM      8  C   UNL     1       2.088   7.283  18.929  0.00  0.00    +0.000 A 
ATOM      9  C   UNL     1       2.365   6.979  17.489  0.00  0.00    +0.000 C 
ATOM     10  H   UNL     1       1.834   6.806  22.075  0.00  0.00    +0.000 HD
BRANCH   3  12
ATOM     11  C   UNL     1      -0.070  10.010  18.073  0.00  0.00    +0.000 C 
ATOM     12  C   UNL     1       1.330   9.735  18.553  0.00  0.00    +0.000 C 
ATOM     13  O   UNL     1       2.226  10.525  18.245  0.00  0.00    +0.000 OA
ENDBRANCH   3  12
ENDBRANCH   1   7
BRANCH   1  14
ATOM     14  C   UNL     1       4.082   4.734  19.387  0.00  0.00    +0.000 C 
BRANCH  14  15
ATOM     15  O   UNL     1       4.978   5.853  19.404  0.00  0.00    +0.000 OA
BRANCH  15  16
ATOM     16  C   UNL     1       6.291   5.527  19.204  0.00  0.00    +0.000 C 
ATOM     17  O   UNL     1       6.990   5.023  20.080  0.00  0.00    +0.000 OA
BRANCH  16  18
ATOM     18  C   UNL     1       6.791   5.869  17.886  0.00  0.00    +0.000 A 
ATOM     19  C   UNL     1       6.612   5.165  16.656  0.00  0.00    +0.000 A 
ATOM     20  C   UNL     1       5.877   3.911  16.369  0.00  0.00    +0.000 C 
ATOM     21  N   UNL     1       7.232   5.783  15.642  0.00  0.00    +0.000 NA
ATOM     22  O   UNL     1       7.818   6.904  16.185  0.00  0.00    +0.000 OA
ATOM     23  C   UNL     1       7.558   6.960  17.518  0.00  0.00    +0.000 A 
ATOM     24  C   UNL     1       8.137   8.119  18.221  0.00  0.00    +0.000 C 
ENDBRANCH  16  18
ENDBRANCH  15  16
ENDBRANCH  14  15
ENDBRANCH   1  14
TORSDOF 6
ENDMDL
MODEL 9
REMARK VINA RESULT:      -6.7      2.060      6.167
REMARK  Name = 
REMARK  11 active torsions:
REMARK  status: ('A' for Active; 'I' for Inactive)
REMARK    1  A    between atoms: C_1  and  C_2
REMARK    2  A    between atoms: C_2  and  C_4
REMARK    3  A    between atoms: C_5  and  C_6
REMARK    4  A    between atoms: C_8  and  C_9
REMARK    5  A    between atoms: C_9  and  C_11
REMARK    6  A    between atoms: C_11  and  O_12
REMARK    7  A    between atoms: O_12  and  C_13
REMARK    8  A    between atoms: C_13  and  C_15
REMARK    9  A    between atoms: C_16  and  C_17
REMARK   10  A    between atoms: C_20  and  C_21
REMARK   11  A    between atoms: C_22  and  C_23
REMARK                            x       y       z     vdW  Elec       q    Type
REMARK                         _______ _______ _______ _____ _____    ______ ____
ROOT
ATOM      1  C   UNL     1       2.371   7.040  17.901  0.00  0.00    +0.000 C 
ATOM      2  O   UNL     1       1.284   7.614  17.802  0.00  0.00    +0.000 OA
ENDROOT
BRANCH   1   7
ATOM      3  C   UNL     1       2.603   3.796  19.767  0.00  0.00    +0.000 A 
ATOM      4  C   UNL     1       2.919   3.430  18.464  0.00  0.00    +0.000 A 
ATOM      5  C   UNL     1       3.241   2.130  17.813  0.00  0.00    +0.000 C 
ATOM      6  N   UNL     1       2.855   4.564  17.685  0.00  0.00    +0.000 N 
ATOM      7  C   UNL     1       2.506   5.673  18.426  0.00  0.00    +0.000 A 
ATOM      8  C   UNL     1       2.326   5.217  19.733  0.00  0.00    +0.000 A 
ATOM      9  C   UNL     1       1.931   6.023  20.932  0.00  0.00    +0.000 C 
ATOM     10  H   UNL     1       3.032   4.562  16.689  0.00  0.00    +0.000 HD
BRANCH   3  12
ATOM     11  C   UNL     1       1.200   2.699  21.650  0.00  0.00    +0.000 C 
ATOM     12  C   UNL     1       2.523   2.949  20.977  0.00  0.00    +0.000 C 
ATOM     13  O   UNL     1       3.531   2.406  21.434  0.00  0.00    +0.000 OA
ENDBRANCH   3  12
ENDBRANCH   1   7
BRANCH   1  14
ATOM     14  C   UNL     1       3.650   7.794  17.507  0.00  0.00    +0.000 C 
BRANCH  14  15
ATOM     15  O   UNL     1       4.832   6.988  17.621  0.00  0.00    +0.000 OA
BRANCH  15  16
ATOM     16  C   UNL     1       5.397   6.645  16.423  0.00  0.00    +0.000 C 
ATOM     17  O   UNL     1       5.052   7.150  15.358  0.00  0.00    +0.000 OA
BRANCH  16  18
ATOM     18  C   UNL     1       6.405   5.606  16.521  0.00  0.00    +0.000 A 
ATOM     19  C   UNL     1       7.390   5.415  17.538  0.00  0.00    +0.000 A 
ATOM     20  C   UNL     1       7.664   6.199  18.765  0.00  0.00    +0.000 C 
ATOM     21  N   UNL     1       8.157   4.347  17.283  0.00  0.00    +0.000 NA
ATOM     22  O   UNL     1       7.684   3.815  16.105  0.00  0.00    +0.000 OA
ATOM     23  C   UNL     1       6.643   4.560  15.649  0.00  0.00    +0.000 A 
ATOM     24  C   UNL     1       6.046   4.093  14.384  0.00  0.00    +0.000 C 
ENDBRANCH  16  18
ENDBRANCH  15  16
ENDBRANCH  14  15
ENDBRANCH   1  14
TORSDOF 6
ENDMDL
