MODEL 1
REMARK VINA RESULT:      -7.4      0.000      0.000
REMARK  Name = 
REMARK  2 active torsions:
REMARK  status: ('A' for Active; 'I' for Inactive)
REMARK    1  A    between atoms: C_2  and  CA_4
REMARK    2  A    between atoms: N_11  and  C_12
REMARK                            x       y       z     vdW  Elec       q    Type
REMARK                         _______ _______ _______ _____ _____    ______ ____
ROOT
ATOM      1  CA  UNL     1      -3.359  11.016  16.110  0.00  0.00    +0.000 C 
ATOM      2  C   UNL     1      -2.576  10.364  17.247  0.00  0.00    +0.000 C 
ATOM      3  C   UNL     1      -2.442  11.334  18.414  0.00  0.00    +0.000 C 
ATOM      4  C   UNL     1      -1.248  11.635  18.996  0.00  0.00    +0.000 C 
ATOM      5  C   UNL     1      -0.928  12.663  20.049  0.00  0.00    +0.000 C 
ATOM      6  C   UNL     1      -0.479  11.946  21.314  0.00  0.00    +0.000 C 
ATOM      7  C   UNL     1       0.785  11.146  21.009  0.00  0.00    +0.000 C 
ATOM      8  N   UNL     1       0.591  10.297  19.841  0.00  0.00    +0.000 N 
ATOM      9  C   UNL     1      -0.043  10.770  18.691  0.00  0.00    +0.000 C 
ATOM     10  O   UNL     1       0.290  10.455  17.553  0.00  0.00    +0.000 OA
ATOM     11  C   UNL     1      -3.796  11.894  18.765  0.00  0.00    +0.000 A 
ATOM     12  C   UNL     1      -4.106  12.320  20.067  0.00  0.00    +0.000 A 
ATOM     13  C   UNL     1      -5.365  12.832  20.391  0.00  0.00    +0.000 A 
ATOM     14  C   UNL     1      -6.364  12.868  19.429  0.00  0.00    +0.000 A 
ATOM     15 CL   UNL     1      -7.917  13.488  19.832  0.00  0.00    +0.000 Cl
ATOM     16  C   UNL     1      -6.122  12.365  18.156  0.00  0.00    +0.000 A 
ATOM     17  C   UNL     1      -4.850  11.886  17.803  0.00  0.00    +0.000 A 
ATOM     18  N   UNL     1      -4.737  11.234  16.556  0.00  0.00    +0.000 N 
ATOM     19  H   UNL     1      -5.333  11.608  15.820  0.00  0.00    +0.000 HD
ENDROOT
BRANCH   8  20
ATOM     20  C   UNL     1       1.170   9.007  19.808  0.00  0.00    +0.000 A 
ATOM     21  C   UNL     1       1.949   8.557  18.745  0.00  0.00    +0.000 A 
ATOM     22  C   UNL     1       2.481   7.264  18.776  0.00  0.00    +0.000 A 
ATOM     23  C   UNL     1       2.282   6.443  19.889  0.00  0.00    +0.000 A 
ATOM     24  C   UNL     1       1.537   6.904  20.971  0.00  0.00    +0.000 A 
ATOM     25  C   UNL     1       0.966   8.173  20.922  0.00  0.00    +0.000 A 
ENDBRANCH   8  20
BRANCH   1  27
ATOM     26  O   UNL     1      -4.193  10.161  14.010  0.00  0.00    +0.000 OA
ATOM     27  C   UNL     1      -3.230  10.125  14.848  0.00  0.00    +0.000 C 
ATOM     28  OXT UNL     1      -2.273   9.308  14.825  0.00  0.00    +0.000 OA
ENDBRANCH   1  27
TORSDOF 2
ENDMDL
MODEL 2
REMARK VINA RESULT:      -7.1      3.661      4.144
REMARK  Name = 
REMARK  2 active torsions:
REMARK  status: ('A' for Active; 'I' for Inactive)
REMARK    1  A    between atoms: C_2  and  CA_4
REMARK    2  A    between atoms: N_11  and  C_12
REMARK                            x       y       z     vdW  Elec       q    Type
REMARK                         _______ _______ _______ _____ _____    ______ ____
ROOT
ATOM      1  CA  UNL     1      -0.893  15.081  19.981  0.00  0.00    +0.000 C 
ATOM      2  C   UNL     1      -0.785  13.564  19.848  0.00  0.00    +0.000 C 
ATOM      3  C   UNL     1      -1.293  12.889  21.115  0.00  0.00    +0.000 C 
ATOM      4  C   UNL     1      -0.574  11.957  21.799  0.00  0.00    +0.000 C 
ATOM      5  C   UNL     1      -0.865  11.306  23.126  0.00  0.00    +0.000 C 
ATOM      6  C   UNL     1      -1.108   9.821  22.902  0.00  0.00    +0.000 C 
ATOM      7  C   UNL     1       0.154   9.194  22.315  0.00  0.00    +0.000 C 
ATOM      8  N   UNL     1       0.608   9.941  21.148  0.00  0.00    +0.000 N 
ATOM      9  C   UNL     1       0.640  11.335  21.141  0.00  0.00    +0.000 C 
ATOM     10  O   UNL     1       1.516  11.992  20.588  0.00  0.00    +0.000 OA
ATOM     11  C   UNL     1      -2.651  13.438  21.472  0.00  0.00    +0.000 A 
ATOM     12  C   UNL     1      -3.594  12.675  22.179  0.00  0.00    +0.000 A 
ATOM     13  C   UNL     1      -4.855  13.185  22.502  0.00  0.00    +0.000 A 
ATOM     14  C   UNL     1      -5.221  14.450  22.064  0.00  0.00    +0.000 A 
ATOM     15 CL   UNL     1      -6.777  15.070  22.453  0.00  0.00    +0.000 Cl
ATOM     16  C   UNL     1      -4.348  15.194  21.279  0.00  0.00    +0.000 A 
ATOM     17  C   UNL     1      -3.062  14.713  20.982  0.00  0.00    +0.000 A 
ATOM     18  N   UNL     1      -2.310  15.446  20.039  0.00  0.00    +0.000 N 
ATOM     19  H   UNL     1      -2.455  16.453  20.063  0.00  0.00    +0.000 HD
ENDROOT
BRANCH   8  20
ATOM     20  C   UNL     1       1.156   9.248  20.044  0.00  0.00    +0.000 A 
ATOM     21  C   UNL     1       1.112   9.746  18.744  0.00  0.00    +0.000 A 
ATOM     22  C   UNL     1       1.665   9.001  17.698  0.00  0.00    +0.000 A 
ATOM     23  C   UNL     1       2.309   7.788  17.957  0.00  0.00    +0.000 A 
ATOM     24  C   UNL     1       2.390   7.307  19.260  0.00  0.00    +0.000 A 
ATOM     25  C   UNL     1       1.798   8.023  20.297  0.00  0.00    +0.000 A 
ENDBRANCH   8  20
BRANCH   1  27
ATOM     26  O   UNL     1       1.105  15.381  18.655  0.00  0.00    +0.000 OA
ATOM     27  C   UNL     1      -0.112  15.736  18.813  0.00  0.00    +0.000 C 
ATOM     28  OXT UNL     1      -0.678  16.690  18.217  0.00  0.00    +0.000 OA
ENDBRANCH   1  27
TORSDOF 2
ENDMDL
MODEL 3
REMARK VINA RESULT:      -7.0      2.271      3.097
REMARK  Name = 
REMARK  2 active torsions:
REMARK  status: ('A' for Active; 'I' for Inactive)
REMARK    1  A    between atoms: C_2  and  CA_4
REMARK    2  A    between atoms: N_11  and  C_12
REMARK                            x       y       z     vdW  Elec       q    Type
REMARK                         _______ _______ _______ _____ _____    ______ ____
ROOT
ATOM      1  CA  UNL     1      -5.267  12.638  18.778  0.00  0.00    +0.000 C 
ATOM      2  C   UNL     1      -3.982  11.993  19.291  0.00  0.00    +0.000 C 
ATOM      3  C   UNL     1      -3.425  12.795  20.459  0.00  0.00    +0.000 C 
ATOM      4  C   UNL     1      -2.136  13.232  20.512  0.00  0.00    +0.000 C 
ATOM      5  C   UNL     1      -1.473  14.143  21.513  0.00  0.00    +0.000 C 
ATOM      6  C   UNL     1      -0.416  13.353  22.270  0.00  0.00    +0.000 C 
ATOM      7  C   UNL     1       0.638  12.860  21.281  0.00  0.00    +0.000 C 
ATOM      8  N   UNL     1       0.014  12.164  20.163  0.00  0.00    +0.000 N 
ATOM      9  C   UNL     1      -1.126  12.667  19.535  0.00  0.00    +0.000 C 
ATOM     10  O   UNL     1      -1.329  12.586  18.328  0.00  0.00    +0.000 OA
ATOM     11  C   UNL     1      -4.511  13.030  21.477  0.00  0.00    +0.000 A 
ATOM     12  C   UNL     1      -4.224  13.199  22.841  0.00  0.00    +0.000 A 
ATOM     13  C   UNL     1      -5.234  13.411  23.783  0.00  0.00    +0.000 A 
ATOM     14  C   UNL     1      -6.563  13.391  23.385  0.00  0.00    +0.000 A 
ATOM     15 CL   UNL     1      -7.806  13.639  24.547  0.00  0.00    +0.000 Cl
ATOM     16  C   UNL     1      -6.889  13.129  22.059  0.00  0.00    +0.000 A 
ATOM     17  C   UNL     1      -5.883  12.958  21.094  0.00  0.00    +0.000 A 
ATOM     18  N   UNL     1      -6.295  12.523  19.815  0.00  0.00    +0.000 N 
ATOM     19  H   UNL     1      -7.200  12.877  19.512  0.00  0.00    +0.000 HD
ENDROOT
BRANCH   8  20
ATOM     20  C   UNL     1       0.644  11.028  19.606  0.00  0.00    +0.000 A 
ATOM     21  C   UNL     1       1.384  11.076  18.428  0.00  0.00    +0.000 A 
ATOM     22  C   UNL     1       1.970   9.909  17.930  0.00  0.00    +0.000 A 
ATOM     23  C   UNL     1       1.864   8.707  18.634  0.00  0.00    +0.000 A 
ATOM     24  C   UNL     1       1.159   8.663  19.833  0.00  0.00    +0.000 A 
ATOM     25  C   UNL     1       0.534   9.813  20.307  0.00  0.00    +0.000 A 
ENDBRANCH   8  20
BRANCH   1  27
ATOM     26  O   UNL     1      -6.780  12.287  16.926  0.00  0.00    +0.000 OA
ATOM     27  C   UNL     1      -5.646  11.977  17.427  0.00  0.00    +0.000 C 
ATOM     28  OXT UNL     1      -4.891  11.059  17.013  0.00  0.00    +0.000 OA
ENDBRANCH   1  27
TORSDOF 2
ENDMDL
MODEL 4
REMARK VINA RESULT:      -7.0      4.496      7.604
REMARK  Name = 
REMARK  2 active torsions:
REMARK  status: ('A' for Active; 'I' for Inactive)
REMARK    1  A    between atoms: C_2  and  CA_4
REMARK    2  A    between atoms: N_11  and  C_12
REMARK                            x       y       z     vdW  Elec       q    Type
REMARK                         _______ _______ _______ _____ _____    ______ ____
ROOT
ATOM      1  CA  UNL     1       0.185  10.773  21.527  0.00  0.00    +0.000 C 
ATOM      2  C   UNL     1      -1.190  11.409  21.347  0.00  0.00    +0.000 C 
ATOM      3  C   UNL     1      -1.091  12.922  21.491  0.00  0.00    +0.000 C 
ATOM      4  C   UNL     1      -1.887  13.641  22.329  0.00  0.00    +0.000 C 
ATOM      5  C   UNL     1      -1.825  15.103  22.690  0.00  0.00    +0.000 C 
ATOM      6  C   UNL     1      -3.079  15.790  22.171  0.00  0.00    +0.000 C 
ATOM      7  C   UNL     1      -4.301  15.170  22.844  0.00  0.00    +0.000 C 
ATOM      8  N   UNL     1      -4.281  13.718  22.716  0.00  0.00    +0.000 N 
ATOM      9  C   UNL     1      -3.114  12.983  22.925  0.00  0.00    +0.000 C 
ATOM     10  O   UNL     1      -3.092  11.880  23.462  0.00  0.00    +0.000 OA
ATOM     11  C   UNL     1       0.012  13.444  20.606  0.00  0.00    +0.000 A 
ATOM     12  C   UNL     1      -0.016  14.745  20.079  0.00  0.00    +0.000 A 
ATOM     13  C   UNL     1       1.006  15.224  19.254  0.00  0.00    +0.000 A 
ATOM     14  C   UNL     1       2.046  14.383  18.885  0.00  0.00    +0.000 A 
ATOM     15 CL   UNL     1       3.296  14.970  17.860  0.00  0.00    +0.000 Cl
ATOM     16  C   UNL     1       2.055  13.059  19.310  0.00  0.00    +0.000 A 
ATOM     17  C   UNL     1       1.058  12.576  20.174  0.00  0.00    +0.000 A 
ATOM     18  N   UNL     1       1.041  11.185  20.412  0.00  0.00    +0.000 N 
ATOM     19  H   UNL     1       1.958  10.742  20.437  0.00  0.00    +0.000 HD
ENDROOT
BRANCH   8  20
ATOM     20  C   UNL     1      -5.491  13.017  22.509  0.00  0.00    +0.000 A 
ATOM     21  C   UNL     1      -6.450  12.856  23.507  0.00  0.00    +0.000 A 
ATOM     22  C   UNL     1      -7.619  12.140  23.234  0.00  0.00    +0.000 A 
ATOM     23  C   UNL     1      -7.856  11.634  21.953  0.00  0.00    +0.000 A 
ATOM     24  C   UNL     1      -6.919  11.827  20.943  0.00  0.00    +0.000 A 
ATOM     25  C   UNL     1      -5.732  12.498  21.225  0.00  0.00    +0.000 A 
ENDBRANCH   8  20
BRANCH   1  27
ATOM     26  O   UNL     1      -0.773   8.823  22.585  0.00  0.00    +0.000 OA
ATOM     27  C   UNL     1       0.007   9.239  21.662  0.00  0.00    +0.000 C 
ATOM     28  OXT UNL     1       0.770   8.516  20.970  0.00  0.00    +0.000 OA
ENDBRANCH   1  27
TORSDOF 2
ENDMDL
MODEL 5
REMARK VINA RESULT:      -7.0      4.303      7.510
REMARK  Name = 
REMARK  2 active torsions:
REMARK  status: ('A' for Active; 'I' for Inactive)
REMARK    1  A    between atoms: C_2  and  CA_4
REMARK    2  A    between atoms: N_11  and  C_12
REMARK                            x       y       z     vdW  Elec       q    Type
REMARK                         _______ _______ _______ _____ _____    ______ ____
ROOT
ATOM      1  CA  UNL     1       0.199  11.434  21.591  0.00  0.00    +0.000 C 
ATOM      2  C   UNL     1      -1.204  11.765  21.089  0.00  0.00    +0.000 C 
ATOM      3  C   UNL     1      -1.381  13.274  20.985  0.00  0.00    +0.000 C 
ATOM      4  C   UNL     1      -2.425  13.940  21.551  0.00  0.00    +0.000 C 
ATOM      5  C   UNL     1      -2.669  15.423  21.661  0.00  0.00    +0.000 C 
ATOM      6  C   UNL     1      -3.900  15.779  20.840  0.00  0.00    +0.000 C 
ATOM      7  C   UNL     1      -5.108  15.039  21.409  0.00  0.00    +0.000 C 
ATOM      8  N   UNL     1      -4.829  13.614  21.538  0.00  0.00    +0.000 N 
ATOM      9  C   UNL     1      -3.617  13.151  22.051  0.00  0.00    +0.000 C 
ATOM     10  O   UNL     1      -3.516  12.160  22.766  0.00  0.00    +0.000 OA
ATOM     11  C   UNL     1      -0.233  13.866  20.208  0.00  0.00    +0.000 A 
ATOM     12  C   UNL     1      -0.373  15.051  19.467  0.00  0.00    +0.000 A 
ATOM     13  C   UNL     1       0.692  15.593  18.744  0.00  0.00    +0.000 A 
ATOM     14  C   UNL     1       1.905  14.922  18.693  0.00  0.00    +0.000 A 
ATOM     15 CL   UNL     1       3.211  15.585  17.792  0.00  0.00    +0.000 Cl
ATOM     16  C   UNL     1       2.050  13.697  19.335  0.00  0.00    +0.000 A 
ATOM     17  C   UNL     1       1.003  13.161  20.101  0.00  0.00    +0.000 A 
ATOM     18  N   UNL     1       1.168  11.840  20.570  0.00  0.00    +0.000 N 
ATOM     19  H   UNL     1       2.124  11.587  20.814  0.00  0.00    +0.000 HD
ENDROOT
BRANCH   8  20
ATOM     20  C   UNL     1      -5.849  12.674  21.267  0.00  0.00    +0.000 A 
ATOM     21  C   UNL     1      -5.853  11.872  20.128  0.00  0.00    +0.000 A 
ATOM     22  C   UNL     1      -6.901  10.971  19.919  0.00  0.00    +0.000 A 
ATOM     23  C   UNL     1      -7.914  10.831  20.871  0.00  0.00    +0.000 A 
ATOM     24  C   UNL     1      -7.893  11.601  22.030  0.00  0.00    +0.000 A 
ATOM     25  C   UNL     1      -6.876  12.534  22.218  0.00  0.00    +0.000 A 
ENDBRANCH   8  20
BRANCH   1  27
ATOM     26  O   UNL     1       1.032   9.588  22.909  0.00  0.00    +0.000 OA
ATOM     27  C   UNL     1       0.250   9.929  21.958  0.00  0.00    +0.000 C 
ATOM     28  OXT UNL     1      -0.347   9.135  21.184  0.00  0.00    +0.000 OA
ENDBRANCH   1  27
TORSDOF 2
ENDMDL
MODEL 6
REMARK VINA RESULT:      -7.0      4.442      7.749
REMARK  Name = 
REMARK  2 active torsions:
REMARK  status: ('A' for Active; 'I' for Inactive)
REMARK    1  A    between atoms: C_2  and  CA_4
REMARK    2  A    between atoms: N_11  and  C_12
REMARK                            x       y       z     vdW  Elec       q    Type
REMARK                         _______ _______ _______ _____ _____    ______ ____
ROOT
ATOM      1  CA  UNL     1       0.398  11.070  21.362  0.00  0.00    +0.000 C 
ATOM      2  C   UNL     1      -0.931  11.816  21.438  0.00  0.00    +0.000 C 
ATOM      3  C   UNL     1      -0.754  13.127  22.192  0.00  0.00    +0.000 C 
ATOM      4  C   UNL     1      -1.542  13.493  23.240  0.00  0.00    +0.000 C 
ATOM      5  C   UNL     1      -1.413  14.671  24.171  0.00  0.00    +0.000 C 
ATOM      6  C   UNL     1      -2.604  15.595  23.961  0.00  0.00    +0.000 C 
ATOM      7  C   UNL     1      -3.886  14.838  24.301  0.00  0.00    +0.000 C 
ATOM      8  N   UNL     1      -3.942  13.568  23.589  0.00  0.00    +0.000 N 
ATOM      9  C   UNL     1      -2.828  12.734  23.495  0.00  0.00    +0.000 C 
ATOM     10  O   UNL     1      -2.890  11.509  23.532  0.00  0.00    +0.000 OA
ATOM     11  C   UNL     1       0.413  13.888  21.617  0.00  0.00    +0.000 A 
ATOM     12  C   UNL     1       0.480  15.290  21.671  0.00  0.00    +0.000 A 
ATOM     13  C   UNL     1       1.560  15.993  21.131  0.00  0.00    +0.000 A 
ATOM     14  C   UNL     1       2.566  15.308  20.465  0.00  0.00    +0.000 A 
ATOM     15 CL   UNL     1       3.889  16.176  19.790  0.00  0.00    +0.000 Cl
ATOM     16  C   UNL     1       2.483  13.930  20.308  0.00  0.00    +0.000 A 
ATOM     17  C   UNL     1       1.426  13.204  20.882  0.00  0.00    +0.000 A 
ATOM     18  N   UNL     1       1.321  11.842  20.528  0.00  0.00    +0.000 N 
ATOM     19  H   UNL     1       2.210  11.366  20.382  0.00  0.00    +0.000 HD
ENDROOT
BRANCH   8  20
ATOM     20  C   UNL     1      -5.180  13.097  23.094  0.00  0.00    +0.000 A 
ATOM     21  C   UNL     1      -5.404  12.842  21.743  0.00  0.00    +0.000 A 
ATOM     22  C   UNL     1      -6.658  12.388  21.323  0.00  0.00    +0.000 A 
ATOM     23  C   UNL     1      -7.668  12.136  22.255  0.00  0.00    +0.000 A 
ATOM     24  C   UNL     1      -7.435  12.351  23.610  0.00  0.00    +0.000 A 
ATOM     25  C   UNL     1      -6.203  12.849  24.026  0.00  0.00    +0.000 A 
ENDBRANCH   8  20
BRANCH   1  27
ATOM     26  O   UNL     1      -0.435   8.822  21.665  0.00  0.00    +0.000 OA
ATOM     27  C   UNL     1       0.128   9.630  20.852  0.00  0.00    +0.000 C 
ATOM     28  OXT UNL     1       0.635   9.317  19.744  0.00  0.00    +0.000 OA
ENDBRANCH   1  27
TORSDOF 2
ENDMDL
MODEL 7
REMARK VINA RESULT:      -6.8      4.096      5.156
REMARK  Name = 
REMARK  2 active torsions:
REMARK  status: ('A' for Active; 'I' for Inactive)
REMARK    1  A    between atoms: C_2  and  CA_4
REMARK    2  A    between atoms: N_11  and  C_12
REMARK                            x       y       z     vdW  Elec       q    Type
REMARK                         _______ _______ _______ _____ _____    ______ ____
ROOT
ATOM      1  CA  UNL     1      -5.530  13.412  21.549  0.00  0.00    +0.000 C 
ATOM      2  C   UNL     1      -4.146  12.851  21.862  0.00  0.00    +0.000 C 
ATOM      3  C   UNL     1      -3.133  13.984  21.965  0.00  0.00    +0.000 C 
ATOM      4  C   UNL     1      -1.961  13.997  21.274  0.00  0.00    +0.000 C 
ATOM      5  C   UNL     1      -0.930  15.090  21.156  0.00  0.00    +0.000 C 
ATOM      6  C   UNL     1       0.362  14.619  21.808  0.00  0.00    +0.000 C 
ATOM      7  C   UNL     1       0.870  13.383  21.069  0.00  0.00    +0.000 C 
ATOM      8  N   UNL     1      -0.181  12.379  20.956  0.00  0.00    +0.000 N 
ATOM      9  C   UNL     1      -1.486  12.724  20.605  0.00  0.00    +0.000 C 
ATOM     10  O   UNL     1      -2.205  12.029  19.894  0.00  0.00    +0.000 OA
ATOM     11  C   UNL     1      -3.655  15.046  22.899  0.00  0.00    +0.000 A 
ATOM     12  C   UNL     1      -2.791  15.876  23.633  0.00  0.00    +0.000 A 
ATOM     13  C   UNL     1      -3.279  16.855  24.502  0.00  0.00    +0.000 A 
ATOM     14  C   UNL     1      -4.646  16.979  24.706  0.00  0.00    +0.000 A 
ATOM     15 CL   UNL     1      -5.243  18.177  25.786  0.00  0.00    +0.000 Cl
ATOM     16  C   UNL     1      -5.525  16.110  24.070  0.00  0.00    +0.000 A 
ATOM     17  C   UNL     1      -5.053  15.150  23.161  0.00  0.00    +0.000 A 
ATOM     18  N   UNL     1      -5.987  14.198  22.698  0.00  0.00    +0.000 N 
ATOM     19  H   UNL     1      -6.936  14.548  22.581  0.00  0.00    +0.000 HD
ENDROOT
BRANCH   8  20
ATOM     20  C   UNL     1       0.145  11.009  21.072  0.00  0.00    +0.000 A 
ATOM     21  C   UNL     1       0.819  10.307  20.076  0.00  0.00    +0.000 A 
ATOM     22  C   UNL     1       1.099   8.949  20.254  0.00  0.00    +0.000 A 
ATOM     23  C   UNL     1       0.757   8.306  21.446  0.00  0.00    +0.000 A 
ATOM     24  C   UNL     1       0.119   9.013  22.461  0.00  0.00    +0.000 A 
ATOM     25  C   UNL     1      -0.204  10.354  22.267  0.00  0.00    +0.000 A 
ENDBRANCH   8  20
BRANCH   1  27
ATOM     26  O   UNL     1      -7.205  11.757  22.094  0.00  0.00    +0.000 OA
ATOM     27  C   UNL     1      -6.465  12.235  21.169  0.00  0.00    +0.000 C 
ATOM     28  OXT UNL     1      -6.303  11.727  20.028  0.00  0.00    +0.000 OA
ENDBRANCH   1  27
TORSDOF 2
ENDMDL
MODEL 8
REMARK VINA RESULT:      -6.7      4.325      6.142
REMARK  Name = 
REMARK  2 active torsions:
REMARK  status: ('A' for Active; 'I' for Inactive)
REMARK    1  A    between atoms: C_2  and  CA_4
REMARK    2  A    between atoms: N_11  and  C_12
REMARK                            x       y       z     vdW  Elec       q    Type
REMARK                         _______ _______ _______ _____ _____    ______ ____
ROOT
ATOM      1  CA  UNL     1       0.188  10.409  20.763  0.00  0.00    +0.000 C 
ATOM      2  C   UNL     1       1.100  11.631  20.724  0.00  0.00    +0.000 C 
ATOM      3  C   UNL     1       0.272  12.897  20.547  0.00  0.00    +0.000 C 
ATOM      4  C   UNL     1       0.525  13.822  19.581  0.00  0.00    +0.000 C 
ATOM      5  C   UNL     1      -0.270  15.039  19.186  0.00  0.00    +0.000 C 
ATOM      6  C   UNL     1       0.549  16.283  19.498  0.00  0.00    +0.000 C 
ATOM      7  C   UNL     1       1.835  16.250  18.676  0.00  0.00    +0.000 C 
ATOM      8  N   UNL     1       2.529  14.980  18.851  0.00  0.00    +0.000 N 
ATOM      9  C   UNL     1       1.843  13.765  18.836  0.00  0.00    +0.000 C 
ATOM     10  O   UNL     1       2.293  12.736  18.343  0.00  0.00    +0.000 OA
ATOM     11  C   UNL     1      -0.841  12.921  21.564  0.00  0.00    +0.000 A 
ATOM     12  C   UNL     1      -1.383  14.126  22.040  0.00  0.00    +0.000 A 
ATOM     13  C   UNL     1      -2.409  14.144  22.988  0.00  0.00    +0.000 A 
ATOM     14  C   UNL     1      -2.870  12.952  23.529  0.00  0.00    +0.000 A 
ATOM     15 CL   UNL     1      -4.126  12.977  24.705  0.00  0.00    +0.000 Cl
ATOM     16  C   UNL     1      -2.290  11.746  23.153  0.00  0.00    +0.000 A 
ATOM     17  C   UNL     1      -1.287  11.709  22.170  0.00  0.00    +0.000 A 
ATOM     18  N   UNL     1      -0.631  10.474  21.976  0.00  0.00    +0.000 N 
ATOM     19  H   UNL     1      -1.219   9.651  22.098  0.00  0.00    +0.000 HD
ENDROOT
BRANCH   8  20
ATOM     20  C   UNL     1       3.941  14.955  18.904  0.00  0.00    +0.000 A 
ATOM     21  C   UNL     1       4.738  14.924  17.762  0.00  0.00    +0.000 A 
ATOM     22  C   UNL     1       6.130  14.889  17.891  0.00  0.00    +0.000 A 
ATOM     23  C   UNL     1       6.726  14.942  19.153  0.00  0.00    +0.000 A 
ATOM     24  C   UNL     1       5.933  15.015  20.295  0.00  0.00    +0.000 A 
ATOM     25  C   UNL     1       4.547  15.001  20.172  0.00  0.00    +0.000 A 
ENDBRANCH   8  20
BRANCH   1  27
ATOM     26  O   UNL     1       1.433   8.586  21.746  0.00  0.00    +0.000 OA
ATOM     27  C   UNL     1       1.065   9.135  20.653  0.00  0.00    +0.000 C 
ATOM     28  OXT UNL     1       1.490   8.836  19.506  0.00  0.00    +0.000 OA
ENDBRANCH   1  27
TORSDOF 2
ENDMDL
MODEL 9
REMARK VINA RESULT:      -6.7      2.276      2.914
REMARK  Name = 
REMARK  2 active torsions:
REMARK  status: ('A' for Active; 'I' for Inactive)
REMARK    1  A    between atoms: C_2  and  CA_4
REMARK    2  A    between atoms: N_11  and  C_12
REMARK                            x       y       z     vdW  Elec       q    Type
REMARK                         _______ _______ _______ _____ _____    ______ ____
ROOT
ATOM      1  CA  UNL     1      -4.805  12.289  18.794  0.00  0.00    +0.000 C 
ATOM      2  C   UNL     1      -3.486  11.741  19.332  0.00  0.00    +0.000 C 
ATOM      3  C   UNL     1      -2.705  12.846  20.030  0.00  0.00    +0.000 C 
ATOM      4  C   UNL     1      -1.406  13.133  19.741  0.00  0.00    +0.000 C 
ATOM      5  C   UNL     1      -0.543  14.268  20.231  0.00  0.00    +0.000 C 
ATOM      6  C   UNL     1       0.584  13.696  21.078  0.00  0.00    +0.000 C 
ATOM      7  C   UNL     1       1.436  12.771  20.213  0.00  0.00    +0.000 C 
ATOM      8  N   UNL     1       0.603  11.788  19.530  0.00  0.00    +0.000 N 
ATOM      9  C   UNL     1      -0.600  12.149  18.920  0.00  0.00    +0.000 C 
ATOM     10  O   UNL     1      -1.002  11.659  17.870  0.00  0.00    +0.000 OA
ATOM     11  C   UNL     1      -3.596  13.547  21.023  0.00  0.00    +0.000 A 
ATOM     12  C   UNL     1      -3.080  14.166  22.173  0.00  0.00    +0.000 A 
ATOM     13  C   UNL     1      -3.911  14.810  23.094  0.00  0.00    +0.000 A 
ATOM     14  C   UNL     1      -5.286  14.789  22.916  0.00  0.00    +0.000 A 
ATOM     15 CL   UNL     1      -6.308  15.571  24.058  0.00  0.00    +0.000 Cl
ATOM     16  C   UNL     1      -5.838  14.103  21.841  0.00  0.00    +0.000 A 
ATOM     17  C   UNL     1      -5.015  13.488  20.883  0.00  0.00    +0.000 A 
ATOM     18  N   UNL     1      -5.652  12.667  19.927  0.00  0.00    +0.000 N 
ATOM     19  H   UNL     1      -6.577  12.982  19.639  0.00  0.00    +0.000 HD
ENDROOT
BRANCH   8  20
ATOM     20  C   UNL     1       1.075  10.467  19.359  0.00  0.00    +0.000 A 
ATOM     21  C   UNL     1       1.690  10.032  18.188  0.00  0.00    +0.000 A 
ATOM     22  C   UNL     1       2.123   8.706  18.085  0.00  0.00    +0.000 A 
ATOM     23  C   UNL     1       1.994   7.833  19.168  0.00  0.00    +0.000 A 
ATOM     24  C   UNL     1       1.417   8.276  20.355  0.00  0.00    +0.000 A 
ATOM     25  C   UNL     1       0.941   9.582  20.443  0.00  0.00    +0.000 A 
ENDBRANCH   8  20
BRANCH   1  27
ATOM     26  O   UNL     1      -4.874  11.056  16.717  0.00  0.00    +0.000 OA
ATOM     27  C   UNL     1      -5.433  11.230  17.852  0.00  0.00    +0.000 C 
ATOM     28  OXT UNL     1      -6.541  10.745  18.203  0.00  0.00    +0.000 OA
ENDBRANCH   1  27
TORSDOF 2
ENDMDL
