MODEL 1
REMARK VINA RESULT:      -7.5      0.000      0.000
REMARK  Name = 
REMARK  3 active torsions:
REMARK  status: ('A' for Active; 'I' for Inactive)
REMARK    1  A    between atoms: C_1  and  C_2
REMARK    2  A    between atoms: C_5  and  C_6
REMARK    3  A    between atoms: C_18  and  C_19
REMARK                            x       y       z     vdW  Elec       q    Type
REMARK                         _______ _______ _______ _____ _____    ______ ____
ROOT
ATOM      1  C   UNL     1       5.934   3.701  18.179  0.00  0.00    +0.000 C 
ATOM      2  C   UNL     1       4.804   3.962  18.852  0.00  0.00    +0.000 C 
ATOM      3  C   UNL     1       4.287   2.950  19.840  0.00  0.00    +0.000 C 
ATOM      4  O   UNL     1       4.740   1.848  20.082  0.00  0.00    +0.000 OA
ATOM      5  N   UNL     1       3.186   3.553  20.426  0.00  0.00    +0.000 N 
ATOM      6  C   UNL     1       2.956   4.818  19.891  0.00  0.00    +0.000 A 
ATOM      7  C   UNL     1       1.943   5.684  20.246  0.00  0.00    +0.000 A 
ATOM      8  C   UNL     1       1.881   6.906  19.573  0.00  0.00    +0.000 A 
ATOM      9  C   UNL     1       2.819   7.215  18.571  0.00  0.00    +0.000 A 
ATOM     10 CL   UNL     1       2.705   8.728  17.753  0.00  0.00    +0.000 Cl
ATOM     11  C   UNL     1       3.840   6.325  18.227  0.00  0.00    +0.000 A 
ATOM     12  C   UNL     1       3.907   5.122  18.906  0.00  0.00    +0.000 A 
ATOM     13  H   UNL     1       2.641   3.105  21.145  0.00  0.00    +0.000 HD
ENDROOT
BRANCH   1  18
ATOM     14  C   UNL     1       5.662   3.108  12.759  0.00  0.00    +0.000 C 
ATOM     15  C   UNL     1       6.114   3.879  13.953  0.00  0.00    +0.000 A 
ATOM     16  N   UNL     1       5.865   3.520  15.182  0.00  0.00    +0.000 NA
ATOM     17  N   UNL     1       6.445   4.472  15.958  0.00  0.00    +0.000 N 
ATOM     18  C   UNL     1       6.549   4.629  17.315  0.00  0.00    +0.000 A 
ATOM     19  C   UNL     1       7.292   5.800  17.468  0.00  0.00    +0.000 A 
ATOM     20  C   UNL     1       7.722   6.473  18.715  0.00  0.00    +0.000 C 
ATOM     21  N   UNL     1       7.646   6.335  16.236  0.00  0.00    +0.000 NA
ATOM     22  C   UNL     1       7.109   5.508  15.385  0.00  0.00    +0.000 A 
ATOM     23  S   UNL     1       7.045   5.369  13.679  0.00  0.00    +0.000 S 
ENDBRANCH   1  18
TORSDOF 1
ENDMDL
MODEL 2
REMARK VINA RESULT:      -6.5      2.598      3.232
REMARK  Name = 
REMARK  3 active torsions:
REMARK  status: ('A' for Active; 'I' for Inactive)
REMARK    1  A    between atoms: C_1  and  C_2
REMARK    2  A    between atoms: C_5  and  C_6
REMARK    3  A    between atoms: C_18  and  C_19
REMARK                            x       y       z     vdW  Elec       q    Type
REMARK                         _______ _______ _______ _____ _____    ______ ____
ROOT
ATOM      1  C   UNL     1       4.783   6.685  17.448  0.00  0.00    +0.000 C 
ATOM      2  C   UNL     1       3.864   6.257  18.325  0.00  0.00    +0.000 C 
ATOM      3  C   UNL     1       2.657   7.114  18.602  0.00  0.00    +0.000 C 
ATOM      4  O   UNL     1       2.417   8.222  18.165  0.00  0.00    +0.000 OA
ATOM      5  N   UNL     1       1.871   6.358  19.456  0.00  0.00    +0.000 N 
ATOM      6  C   UNL     1       2.472   5.138  19.752  0.00  0.00    +0.000 A 
ATOM      7  C   UNL     1       1.961   4.152  20.571  0.00  0.00    +0.000 A 
ATOM      8  C   UNL     1       2.735   3.003  20.748  0.00  0.00    +0.000 A 
ATOM      9  C   UNL     1       3.984   2.881  20.114  0.00  0.00    +0.000 A 
ATOM     10 CL   UNL     1       4.917   1.454  20.363  0.00  0.00    +0.000 Cl
ATOM     11  C   UNL     1       4.484   3.891  19.285  0.00  0.00    +0.000 A 
ATOM     12  C   UNL     1       3.708   5.021  19.100  0.00  0.00    +0.000 A 
ATOM     13  H   UNL     1       0.981   6.682  19.802  0.00  0.00    +0.000 HD
ENDROOT
BRANCH   1  18
ATOM     14  C   UNL     1       4.775   4.031  12.677  0.00  0.00    +0.000 C 
ATOM     15  C   UNL     1       5.466   4.410  13.944  0.00  0.00    +0.000 A 
ATOM     16  N   UNL     1       4.936   5.177  14.854  0.00  0.00    +0.000 NA
ATOM     17  N   UNL     1       5.872   5.271  15.834  0.00  0.00    +0.000 N 
ATOM     18  C   UNL     1       5.888   5.907  17.047  0.00  0.00    +0.000 A 
ATOM     19  C   UNL     1       7.135   5.587  17.584  0.00  0.00    +0.000 A 
ATOM     20  C   UNL     1       7.722   5.994  18.883  0.00  0.00    +0.000 C 
ATOM     21  N   UNL     1       7.856   4.765  16.728  0.00  0.00    +0.000 NA
ATOM     22  C   UNL     1       7.057   4.621  15.709  0.00  0.00    +0.000 A 
ATOM     23  S   UNL     1       7.105   3.777  14.220  0.00  0.00    +0.000 S 
ENDBRANCH   1  18
TORSDOF 1
ENDMDL
MODEL 3
REMARK VINA RESULT:      -6.4      8.658     10.293
REMARK  Name = 
REMARK  3 active torsions:
REMARK  status: ('A' for Active; 'I' for Inactive)
REMARK    1  A    between atoms: C_1  and  C_2
REMARK    2  A    between atoms: C_5  and  C_6
REMARK    3  A    between atoms: C_18  and  C_19
REMARK                            x       y       z     vdW  Elec       q    Type
REMARK                         _______ _______ _______ _____ _____    ______ ____
ROOT
ATOM      1  C   UNL     1      -0.749  10.538  18.288  0.00  0.00    +0.000 C 
ATOM      2  C   UNL     1      -2.027  10.901  18.113  0.00  0.00    +0.000 C 
ATOM      3  C   UNL     1      -2.786  10.373  16.925  0.00  0.00    +0.000 C 
ATOM      4  O   UNL     1      -2.362   9.676  16.023  0.00  0.00    +0.000 OA
ATOM      5  N   UNL     1      -4.078  10.844  17.087  0.00  0.00    +0.000 N 
ATOM      6  C   UNL     1      -4.194  11.623  18.235  0.00  0.00    +0.000 A 
ATOM      7  C   UNL     1      -5.338  12.245  18.689  0.00  0.00    +0.000 A 
ATOM      8  C   UNL     1      -5.235  12.997  19.862  0.00  0.00    +0.000 A 
ATOM      9  C   UNL     1      -4.002  13.107  20.531  0.00  0.00    +0.000 A 
ATOM     10 CL   UNL     1      -3.909  14.050  21.969  0.00  0.00    +0.000 Cl
ATOM     11  C   UNL     1      -2.854  12.466  20.056  0.00  0.00    +0.000 A 
ATOM     12  C   UNL     1      -2.963  11.711  18.902  0.00  0.00    +0.000 A 
ATOM     13  H   UNL     1      -4.818  10.632  16.436  0.00  0.00    +0.000 HD
ENDROOT
BRANCH   1  18
ATOM     14  C   UNL     1       2.174  15.148  18.381  0.00  0.00    +0.000 C 
ATOM     15  C   UNL     1       1.696  13.907  19.058  0.00  0.00    +0.000 A 
ATOM     16  N   UNL     1       0.899  13.041  18.498  0.00  0.00    +0.000 NA
ATOM     17  N   UNL     1       0.712  12.071  19.431  0.00  0.00    +0.000 N 
ATOM     18  C   UNL     1       0.007  10.897  19.423  0.00  0.00    +0.000 A 
ATOM     19  C   UNL     1       0.245  10.346  20.682  0.00  0.00    +0.000 A 
ATOM     20  C   UNL     1      -0.259   9.075  21.253  0.00  0.00    +0.000 C 
ATOM     21  N   UNL     1       1.086  11.156  21.434  0.00  0.00    +0.000 NA
ATOM     22  C   UNL     1       1.320  12.162  20.640  0.00  0.00    +0.000 A 
ATOM     23  S   UNL     1       2.246  13.600  20.721  0.00  0.00    +0.000 S 
ENDBRANCH   1  18
TORSDOF 1
ENDMDL
MODEL 4
REMARK VINA RESULT:      -6.4     10.592     13.435
REMARK  Name = 
REMARK  3 active torsions:
REMARK  status: ('A' for Active; 'I' for Inactive)
REMARK    1  A    between atoms: C_1  and  C_2
REMARK    2  A    between atoms: C_5  and  C_6
REMARK    3  A    between atoms: C_18  and  C_19
REMARK                            x       y       z     vdW  Elec       q    Type
REMARK                         _______ _______ _______ _____ _____    ______ ____
ROOT
ATOM      1  C   UNL     1      -5.439  11.097  17.425  0.00  0.00    +0.000 C 
ATOM      2  C   UNL     1      -4.113  11.294  17.450  0.00  0.00    +0.000 C 
ATOM      3  C   UNL     1      -3.310  11.053  16.199  0.00  0.00    +0.000 C 
ATOM      4  O   UNL     1      -3.707  10.626  15.132  0.00  0.00    +0.000 OA
ATOM      5  N   UNL     1      -2.019  11.436  16.523  0.00  0.00    +0.000 N 
ATOM      6  C   UNL     1      -1.935  11.868  17.844  0.00  0.00    +0.000 A 
ATOM      7  C   UNL     1      -0.799  12.314  18.488  0.00  0.00    +0.000 A 
ATOM      8  C   UNL     1      -0.929  12.688  19.827  0.00  0.00    +0.000 A 
ATOM      9  C   UNL     1      -2.174  12.598  20.475  0.00  0.00    +0.000 A 
ATOM     10 CL   UNL     1      -2.295  13.058  22.131  0.00  0.00    +0.000 Cl
ATOM     11  C   UNL     1      -3.314  12.145  19.804  0.00  0.00    +0.000 A 
ATOM     12  C   UNL     1      -3.186  11.789  18.474  0.00  0.00    +0.000 A 
ATOM     13  H   UNL     1      -1.259  11.395  15.863  0.00  0.00    +0.000 HD
ENDROOT
BRANCH   1  18
ATOM     14  C   UNL     1      -6.800  16.253  18.595  0.00  0.00    +0.000 C 
ATOM     15  C   UNL     1      -6.900  14.793  18.884  0.00  0.00    +0.000 A 
ATOM     16  N   UNL     1      -6.287  13.875  18.190  0.00  0.00    +0.000 NA
ATOM     17  N   UNL     1      -6.631  12.697  18.770  0.00  0.00    +0.000 N 
ATOM     18  C   UNL     1      -6.284  11.397  18.513  0.00  0.00    +0.000 A 
ATOM     19  C   UNL     1      -6.957  10.663  19.490  0.00  0.00    +0.000 A 
ATOM     20  C   UNL     1      -6.965   9.199  19.714  0.00  0.00    +0.000 C 
ATOM     21  N   UNL     1      -7.683  11.495  20.332  0.00  0.00    +0.000 NA
ATOM     22  C   UNL     1      -7.454  12.683  19.849  0.00  0.00    +0.000 A 
ATOM     23  S   UNL     1      -7.916  14.282  20.251  0.00  0.00    +0.000 S 
ENDBRANCH   1  18
TORSDOF 1
ENDMDL
MODEL 5
REMARK VINA RESULT:      -6.4      5.772      7.974
REMARK  Name = 
REMARK  3 active torsions:
REMARK  status: ('A' for Active; 'I' for Inactive)
REMARK    1  A    between atoms: C_1  and  C_2
REMARK    2  A    between atoms: C_5  and  C_6
REMARK    3  A    between atoms: C_18  and  C_19
REMARK                            x       y       z     vdW  Elec       q    Type
REMARK                         _______ _______ _______ _____ _____    ______ ____
ROOT
ATOM      1  C   UNL     1       0.910  10.304  20.600  0.00  0.00    +0.000 C 
ATOM      2  C   UNL     1      -0.308  10.856  20.499  0.00  0.00    +0.000 C 
ATOM      3  C   UNL     1      -0.858  11.642  21.660  0.00  0.00    +0.000 C 
ATOM      4  O   UNL     1      -0.352  11.805  22.753  0.00  0.00    +0.000 OA
ATOM      5  N   UNL     1      -2.063  12.152  21.207  0.00  0.00    +0.000 N 
ATOM      6  C   UNL     1      -2.326  11.748  19.901  0.00  0.00    +0.000 A 
ATOM      7  C   UNL     1      -3.438  12.075  19.152  0.00  0.00    +0.000 A 
ATOM      8  C   UNL     1      -3.516  11.550  17.861  0.00  0.00    +0.000 A 
ATOM      9  C   UNL     1      -2.494  10.719  17.367  0.00  0.00    +0.000 A 
ATOM     10 CL   UNL     1      -2.627  10.082  15.772  0.00  0.00    +0.000 Cl
ATOM     11  C   UNL     1      -1.373  10.402  18.140  0.00  0.00    +0.000 A 
ATOM     12  C   UNL     1      -1.293  10.935  19.414  0.00  0.00    +0.000 A 
ATOM     13  H   UNL     1      -2.652  12.738  21.778  0.00  0.00    +0.000 HD
ENDROOT
BRANCH   1  18
ATOM     14  C   UNL     1       1.894   4.938  20.799  0.00  0.00    +0.000 C 
ATOM     15  C   UNL     1       1.959   6.238  20.069  0.00  0.00    +0.000 A 
ATOM     16  N   UNL     1       1.510   7.362  20.553  0.00  0.00    +0.000 NA
ATOM     17  N   UNL     1       1.761   8.291  19.595  0.00  0.00    +0.000 N 
ATOM     18  C   UNL     1       1.548   9.643  19.532  0.00  0.00    +0.000 A 
ATOM     19  C   UNL     1       2.056  10.011  18.286  0.00  0.00    +0.000 A 
ATOM     20  C   UNL     1       2.103  11.353  17.659  0.00  0.00    +0.000 C 
ATOM     21  N   UNL     1       2.580   8.916  17.613  0.00  0.00    +0.000 NA
ATOM     22  C   UNL     1       2.368   7.929  18.437  0.00  0.00    +0.000 A 
ATOM     23  S   UNL     1       2.692   6.247  18.448  0.00  0.00    +0.000 S 
ENDBRANCH   1  18
TORSDOF 1
ENDMDL
MODEL 6
REMARK VINA RESULT:      -6.3      1.845      3.188
REMARK  Name = 
REMARK  3 active torsions:
REMARK  status: ('A' for Active; 'I' for Inactive)
REMARK    1  A    between atoms: C_1  and  C_2
REMARK    2  A    between atoms: C_5  and  C_6
REMARK    3  A    between atoms: C_18  and  C_19
REMARK                            x       y       z     vdW  Elec       q    Type
REMARK                         _______ _______ _______ _____ _____    ______ ____
ROOT
ATOM      1  C   UNL     1       4.904   3.071  17.183  0.00  0.00    +0.000 C 
ATOM      2  C   UNL     1       3.891   3.070  18.060  0.00  0.00    +0.000 C 
ATOM      3  C   UNL     1       3.374   1.756  18.585  0.00  0.00    +0.000 C 
ATOM      4  O   UNL     1       3.726   0.638  18.263  0.00  0.00    +0.000 OA
ATOM      5  N   UNL     1       2.418   2.099  19.526  0.00  0.00    +0.000 N 
ATOM      6  C   UNL     1       2.274   3.480  19.624  0.00  0.00    +0.000 A 
ATOM      7  C   UNL     1       1.408   4.155  20.459  0.00  0.00    +0.000 A 
ATOM      8  C   UNL     1       1.409   5.550  20.390  0.00  0.00    +0.000 A 
ATOM      9  C   UNL     1       2.261   6.217  19.491  0.00  0.00    +0.000 A 
ATOM     10 CL   UNL     1       2.229   7.939  19.425  0.00  0.00    +0.000 Cl
ATOM     11  C   UNL     1       3.133   5.515  18.654  0.00  0.00    +0.000 A 
ATOM     12  C   UNL     1       3.140   4.134  18.736  0.00  0.00    +0.000 A 
ATOM     13  H   UNL     1       1.908   1.409  20.056  0.00  0.00    +0.000 HD
ENDROOT
BRANCH   1  18
ATOM     14  C   UNL     1       8.192   5.989  20.420  0.00  0.00    +0.000 C 
ATOM     15  C   UNL     1       7.537   5.778  19.097  0.00  0.00    +0.000 A 
ATOM     16  N   UNL     1       6.744   4.777  18.834  0.00  0.00    +0.000 NA
ATOM     17  N   UNL     1       6.362   4.952  17.542  0.00  0.00    +0.000 N 
ATOM     18  C   UNL     1       5.521   4.251  16.719  0.00  0.00    +0.000 A 
ATOM     19  C   UNL     1       5.538   4.968  15.523  0.00  0.00    +0.000 A 
ATOM     20  C   UNL     1       4.817   4.689  14.259  0.00  0.00    +0.000 C 
ATOM     21  N   UNL     1       6.354   6.087  15.619  0.00  0.00    +0.000 NA
ATOM     22  C   UNL     1       6.817   6.016  16.834  0.00  0.00    +0.000 A 
ATOM     23  S   UNL     1       7.862   6.961  17.809  0.00  0.00    +0.000 S 
ENDBRANCH   1  18
TORSDOF 1
ENDMDL
MODEL 7
REMARK VINA RESULT:      -6.3      9.990     11.860
REMARK  Name = 
REMARK  3 active torsions:
REMARK  status: ('A' for Active; 'I' for Inactive)
REMARK    1  A    between atoms: C_1  and  C_2
REMARK    2  A    between atoms: C_5  and  C_6
REMARK    3  A    between atoms: C_18  and  C_19
REMARK                            x       y       z     vdW  Elec       q    Type
REMARK                         _______ _______ _______ _____ _____    ______ ____
ROOT
ATOM      1  C   UNL     1       8.694  16.289  18.781  0.00  0.00    +0.000 C 
ATOM      2  C   UNL     1       9.586  15.531  18.127  0.00  0.00    +0.000 C 
ATOM      3  C   UNL     1      10.582  16.193  17.212  0.00  0.00    +0.000 C 
ATOM      4  O   UNL     1      10.656  17.371  16.922  0.00  0.00    +0.000 OA
ATOM      5  N   UNL     1      11.406  15.167  16.779  0.00  0.00    +0.000 N 
ATOM      6  C   UNL     1      11.013  13.942  17.312  0.00  0.00    +0.000 A 
ATOM      7  C   UNL     1      11.614  12.721  17.084  0.00  0.00    +0.000 A 
ATOM      8  C   UNL     1      11.050  11.605  17.706  0.00  0.00    +0.000 A 
ATOM      9  C   UNL     1       9.912  11.744  18.522  0.00  0.00    +0.000 A 
ATOM     10 CL   UNL     1       9.237  10.344  19.266  0.00  0.00    +0.000 Cl
ATOM     11  C   UNL     1       9.320  12.991  18.742  0.00  0.00    +0.000 A 
ATOM     12  C   UNL     1       9.889  14.096  18.136  0.00  0.00    +0.000 A 
ATOM     13  H   UNL     1      12.183  15.322  16.157  0.00  0.00    +0.000 HD
ENDROOT
BRANCH   1  18
ATOM     14  C   UNL     1       3.431  15.510  17.557  0.00  0.00    +0.000 C 
ATOM     15  C   UNL     1       4.557  15.425  18.531  0.00  0.00    +0.000 A 
ATOM     16  N   UNL     1       5.778  15.794  18.259  0.00  0.00    +0.000 NA
ATOM     17  N   UNL     1       6.484  15.562  19.396  0.00  0.00    +0.000 N 
ATOM     18  C   UNL     1       7.795  15.772  19.735  0.00  0.00    +0.000 A 
ATOM     19  C   UNL     1       7.877  15.346  21.061  0.00  0.00    +0.000 A 
ATOM     20  C   UNL     1       9.052  15.332  21.963  0.00  0.00    +0.000 C 
ATOM     21  N   UNL     1       6.645  14.902  21.524  0.00  0.00    +0.000 NA
ATOM     22  C   UNL     1       5.867  15.050  20.490  0.00  0.00    +0.000 A 
ATOM     23  S   UNL     1       4.209  14.780  20.152  0.00  0.00    +0.000 S 
ENDBRANCH   1  18
TORSDOF 1
ENDMDL
MODEL 8
REMARK VINA RESULT:      -6.3      7.979     10.520
REMARK  Name = 
REMARK  3 active torsions:
REMARK  status: ('A' for Active; 'I' for Inactive)
REMARK    1  A    between atoms: C_1  and  C_2
REMARK    2  A    between atoms: C_5  and  C_6
REMARK    3  A    between atoms: C_18  and  C_19
REMARK                            x       y       z     vdW  Elec       q    Type
REMARK                         _______ _______ _______ _____ _____    ______ ____
ROOT
ATOM      1  C   UNL     1       0.694  11.011  20.234  0.00  0.00    +0.000 C 
ATOM      2  C   UNL     1       0.001  10.646  19.146  0.00  0.00    +0.000 C 
ATOM      3  C   UNL     1       0.657   9.762  18.119  0.00  0.00    +0.000 C 
ATOM      4  O   UNL     1       1.805   9.362  18.108  0.00  0.00    +0.000 OA
ATOM      5  N   UNL     1      -0.336   9.492  17.193  0.00  0.00    +0.000 N 
ATOM      6  C   UNL     1      -1.528  10.130  17.526  0.00  0.00    +0.000 A 
ATOM      7  C   UNL     1      -2.711  10.075  16.818  0.00  0.00    +0.000 A 
ATOM      8  C   UNL     1      -3.790  10.805  17.320  0.00  0.00    +0.000 A 
ATOM      9  C   UNL     1      -3.652  11.564  18.496  0.00  0.00    +0.000 A 
ATOM     10 CL   UNL     1      -5.002  12.461  19.080  0.00  0.00    +0.000 Cl
ATOM     11  C   UNL     1      -2.445  11.605  19.200  0.00  0.00    +0.000 A 
ATOM     12  C   UNL     1      -1.382  10.869  18.709  0.00  0.00    +0.000 A 
ATOM     13  H   UNL     1      -0.182   8.903  16.389  0.00  0.00    +0.000 HD
ENDROOT
BRANCH   1  18
ATOM     14  C   UNL     1       0.689  16.470  20.184  0.00  0.00    +0.000 C 
ATOM     15  C   UNL     1       0.328  15.184  20.848  0.00  0.00    +0.000 A 
ATOM     16  N   UNL     1       0.603  14.011  20.349  0.00  0.00    +0.000 NA
ATOM     17  N   UNL     1       0.119  13.116  21.248  0.00  0.00    +0.000 N 
ATOM     18  C   UNL     1       0.131  11.747  21.296  0.00  0.00    +0.000 A 
ATOM     19  C   UNL     1      -0.507  11.442  22.498  0.00  0.00    +0.000 A 
ATOM     20  C   UNL     1      -0.791  10.114  23.091  0.00  0.00    +0.000 C 
ATOM     21  N   UNL     1      -0.885  12.595  23.175  0.00  0.00    +0.000 NA
ATOM     22  C   UNL     1      -0.492  13.549  22.380  0.00  0.00    +0.000 A 
ATOM     23  S   UNL     1      -0.525  15.261  22.406  0.00  0.00    +0.000 S 
ENDBRANCH   1  18
TORSDOF 1
ENDMDL
MODEL 9
REMARK VINA RESULT:      -6.2      4.873      6.978
REMARK  Name = 
REMARK  3 active torsions:
REMARK  status: ('A' for Active; 'I' for Inactive)
REMARK    1  A    between atoms: C_1  and  C_2
REMARK    2  A    between atoms: C_5  and  C_6
REMARK    3  A    between atoms: C_18  and  C_19
REMARK                            x       y       z     vdW  Elec       q    Type
REMARK                         _______ _______ _______ _____ _____    ______ ____
ROOT
ATOM      1  C   UNL     1       1.483   8.402  21.095  0.00  0.00    +0.000 C 
ATOM      2  C   UNL     1       0.534   9.346  21.162  0.00  0.00    +0.000 C 
ATOM      3  C   UNL     1       0.304  10.067  22.463  0.00  0.00    +0.000 C 
ATOM      4  O   UNL     1       0.844   9.861  23.533  0.00  0.00    +0.000 OA
ATOM      5  N   UNL     1      -0.652  11.027  22.176  0.00  0.00    +0.000 N 
ATOM      6  C   UNL     1      -1.051  10.964  20.844  0.00  0.00    +0.000 A 
ATOM      7  C   UNL     1      -1.986  11.772  20.231  0.00  0.00    +0.000 A 
ATOM      8  C   UNL     1      -2.253  11.530  18.882  0.00  0.00    +0.000 A 
ATOM      9  C   UNL     1      -1.590  10.494  18.198  0.00  0.00    +0.000 A 
ATOM     10 CL   UNL     1      -1.952  10.218  16.537  0.00  0.00    +0.000 Cl
ATOM     11  C   UNL     1      -0.644   9.687  18.837  0.00  0.00    +0.000 A 
ATOM     12  C   UNL     1      -0.371   9.939  20.170  0.00  0.00    +0.000 A 
ATOM     13  H   UNL     1      -0.994  11.675  22.868  0.00  0.00    +0.000 HD
ENDROOT
BRANCH   1  18
ATOM     14  C   UNL     1       1.421   2.956  20.727  0.00  0.00    +0.000 C 
ATOM     15  C   UNL     1       1.646   4.290  20.100  0.00  0.00    +0.000 A 
ATOM     16  N   UNL     1       1.489   5.421  20.731  0.00  0.00    +0.000 NA
ATOM     17  N   UNL     1       1.792   6.383  19.822  0.00  0.00    +0.000 N 
ATOM     18  C   UNL     1       1.840   7.751  19.897  0.00  0.00    +0.000 A 
ATOM     19  C   UNL     1       2.249   8.148  18.624  0.00  0.00    +0.000 A 
ATOM     20  C   UNL     1       2.477   9.517  18.105  0.00  0.00    +0.000 C 
ATOM     21  N   UNL     1       2.461   7.052  17.799  0.00  0.00    +0.000 NA
ATOM     22  C   UNL     1       2.167   6.040  18.564  0.00  0.00    +0.000 A 
ATOM     23  S   UNL     1       2.155   4.336  18.397  0.00  0.00    +0.000 S 
ENDBRANCH   1  18
TORSDOF 1
ENDMDL
