MODEL 1
REMARK VINA RESULT:      -5.1      0.000      0.000
REMARK  Name = 
REMARK  2 active torsions:
REMARK  status: ('A' for Active; 'I' for Inactive)
REMARK    1  A    between atoms: N_3  and  C_4
REMARK    2  A    between atoms: N_9  and  O_10
REMARK                            x       y       z     vdW  Elec       q    Type
REMARK                         _______ _______ _______ _____ _____    ______ ____
ROOT
ATOM      1  N   UNL     1       7.854   5.716  19.836  0.00  0.00    +0.000 N 
ATOM      2  C   UNL     1       6.782   5.112  19.132  0.00  0.00    +0.000 C 
ATOM      3  N   UNL     1       5.575   5.315  19.563  0.00  0.00    +0.000 NA
ATOM      4  N   UNL     1       7.061   4.340  17.964  0.00  0.00    +0.000 N 
ATOM      5  H   UNL     1       7.672   6.287  20.676  0.00  0.00    +0.000 HD
ATOM      6  H   UNL     1       8.827   5.602  19.521  0.00  0.00    +0.000 HD
ATOM      7  H   UNL     1       6.326   4.095  17.292  0.00  0.00    +0.000 HD
ENDROOT
BRANCH   3   8
ATOM      8  C   UNL     1       4.355   4.733  19.107  0.00  0.00    +0.000 A 
ATOM      9  C   UNL     1       3.843   3.477  19.492  0.00  0.00    +0.000 A 
ATOM     10  C   UNL     1       2.618   3.180  18.913  0.00  0.00    +0.000 A 
ATOM     11  S   UNL     1       2.155   4.478  17.954  0.00  0.00    +0.000 S 
ATOM     12  C   UNL     1       3.505   5.432  18.260  0.00  0.00    +0.000 A 
ENDBRANCH   3   8
BRANCH   4  13
ATOM     13  O   UNL     1       8.324   4.005  17.662  0.00  0.00    +0.000 OA
ATOM     14  H   UNL     1       8.298   3.019  17.546  0.00  0.00    +0.000 HD
ENDBRANCH   4  13
TORSDOF 2
ENDMDL
MODEL 2
REMARK VINA RESULT:      -5.0      1.032      1.463
REMARK  Name = 
REMARK  2 active torsions:
REMARK  status: ('A' for Active; 'I' for Inactive)
REMARK    1  A    between atoms: N_3  and  C_4
REMARK    2  A    between atoms: N_9  and  O_10
REMARK                            x       y       z     vdW  Elec       q    Type
REMARK                         _______ _______ _______ _____ _____    ______ ____
ROOT
ATOM      1  N   UNL     1       7.440   5.580  19.670  0.00  0.00    +0.000 N 
ATOM      2  C   UNL     1       6.483   4.865  18.906  0.00  0.00    +0.000 C 
ATOM      3  N   UNL     1       5.252   4.862  19.314  0.00  0.00    +0.000 NA
ATOM      4  N   UNL     1       6.896   4.212  17.705  0.00  0.00    +0.000 N 
ATOM      5  H   UNL     1       7.158   6.068  20.535  0.00  0.00    +0.000 HD
ATOM      6  H   UNL     1       8.424   5.629  19.376  0.00  0.00    +0.000 HD
ATOM      7  H   UNL     1       6.219   3.900  17.002  0.00  0.00    +0.000 HD
ENDROOT
BRANCH   3   8
ATOM      8  C   UNL     1       4.141   4.133  18.794  0.00  0.00    +0.000 A 
ATOM      9  C   UNL     1       3.237   4.589  17.814  0.00  0.00    +0.000 A 
ATOM     10  C   UNL     1       2.270   3.654  17.478  0.00  0.00    +0.000 A 
ATOM     11  S   UNL     1       2.550   2.257  18.365  0.00  0.00    +0.000 S 
ATOM     12  C   UNL     1       3.901   2.823  19.190  0.00  0.00    +0.000 A 
ENDBRANCH   3   8
BRANCH   4  13
ATOM     13  O   UNL     1       8.200   4.086  17.420  0.00  0.00    +0.000 OA
ATOM     14  H   UNL     1       8.413   4.887  16.872  0.00  0.00    +0.000 HD
ENDBRANCH   4  13
TORSDOF 2
ENDMDL
MODEL 3
REMARK VINA RESULT:      -5.0      1.788      2.188
REMARK  Name = 
REMARK  2 active torsions:
REMARK  status: ('A' for Active; 'I' for Inactive)
REMARK    1  A    between atoms: N_3  and  C_4
REMARK    2  A    between atoms: N_9  and  O_10
REMARK                            x       y       z     vdW  Elec       q    Type
REMARK                         _______ _______ _______ _____ _____    ______ ____
ROOT
ATOM      1  N   UNL     1       7.337   5.474  15.543  0.00  0.00    +0.000 N 
ATOM      2  C   UNL     1       6.462   5.007  16.555  0.00  0.00    +0.000 C 
ATOM      3  N   UNL     1       5.205   5.316  16.469  0.00  0.00    +0.000 NA
ATOM      4  N   UNL     1       6.981   4.189  17.603  0.00  0.00    +0.000 N 
ATOM      5  H   UNL     1       6.978   6.057  14.770  0.00  0.00    +0.000 HD
ATOM      6  H   UNL     1       8.338   5.238  15.556  0.00  0.00    +0.000 HD
ATOM      7  H   UNL     1       6.367   3.632  18.207  0.00  0.00    +0.000 HD
ENDROOT
BRANCH   3   8
ATOM      8  C   UNL     1       4.158   5.071  17.408  0.00  0.00    +0.000 A 
ATOM      9  C   UNL     1       3.279   3.969  17.398  0.00  0.00    +0.000 A 
ATOM     10  C   UNL     1       2.378   3.974  18.452  0.00  0.00    +0.000 A 
ATOM     11  S   UNL     1       2.688   5.317  19.410  0.00  0.00    +0.000 S 
ATOM     12  C   UNL     1       3.967   5.912  18.497  0.00  0.00    +0.000 A 
ENDBRANCH   3   8
BRANCH   4  13
ATOM     13  O   UNL     1       8.306   4.047  17.755  0.00  0.00    +0.000 OA
ATOM     14  H   UNL     1       8.670   4.962  17.624  0.00  0.00    +0.000 HD
ENDBRANCH   4  13
TORSDOF 2
ENDMDL
MODEL 4
REMARK VINA RESULT:      -5.0      3.343      4.192
REMARK  Name = 
REMARK  2 active torsions:
REMARK  status: ('A' for Active; 'I' for Inactive)
REMARK    1  A    between atoms: N_3  and  C_4
REMARK    2  A    between atoms: N_9  and  O_10
REMARK                            x       y       z     vdW  Elec       q    Type
REMARK                         _______ _______ _______ _____ _____    ______ ____
ROOT
ATOM      1  N   UNL     1       2.819   1.361  18.637  0.00  0.00    +0.000 N 
ATOM      2  C   UNL     1       3.717   2.432  18.405  0.00  0.00    +0.000 C 
ATOM      3  N   UNL     1       3.462   3.246  17.427  0.00  0.00    +0.000 NA
ATOM      4  N   UNL     1       4.841   2.601  19.270  0.00  0.00    +0.000 N 
ATOM      5  H   UNL     1       1.995   1.229  18.030  0.00  0.00    +0.000 HD
ATOM      6  H   UNL     1       2.968   0.702  19.414  0.00  0.00    +0.000 HD
ATOM      7  H   UNL     1       5.370   3.479  19.301  0.00  0.00    +0.000 HD
ENDROOT
BRANCH   3   8
ATOM      8  C   UNL     1       4.260   4.315  16.923  0.00  0.00    +0.000 A 
ATOM      9  C   UNL     1       4.171   5.668  17.310  0.00  0.00    +0.000 A 
ATOM     10  C   UNL     1       5.094   6.485  16.676  0.00  0.00    +0.000 A 
ATOM     11  S   UNL     1       6.038   5.534  15.664  0.00  0.00    +0.000 S 
ATOM     12  C   UNL     1       5.283   4.074  16.016  0.00  0.00    +0.000 A 
ENDBRANCH   3   8
BRANCH   4  13
ATOM     13  O   UNL     1       5.168   1.640  20.147  0.00  0.00    +0.000 OA
ATOM     14  H   UNL     1       5.047   0.793  19.643  0.00  0.00    +0.000 HD
ENDBRANCH   4  13
TORSDOF 2
ENDMDL
MODEL 5
REMARK VINA RESULT:      -5.0      1.485      2.214
REMARK  Name = 
REMARK  2 active torsions:
REMARK  status: ('A' for Active; 'I' for Inactive)
REMARK    1  A    between atoms: N_3  and  C_4
REMARK    2  A    between atoms: N_9  and  O_10
REMARK                            x       y       z     vdW  Elec       q    Type
REMARK                         _______ _______ _______ _____ _____    ______ ____
ROOT
ATOM      1  N   UNL     1       8.070   4.303  17.654  0.00  0.00    +0.000 N 
ATOM      2  C   UNL     1       6.802   4.627  18.197  0.00  0.00    +0.000 C 
ATOM      3  N   UNL     1       5.752   4.436  17.459  0.00  0.00    +0.000 NA
ATOM      4  N   UNL     1       6.720   5.111  19.538  0.00  0.00    +0.000 N 
ATOM      5  H   UNL     1       8.149   3.941  16.691  0.00  0.00    +0.000 HD
ATOM      6  H   UNL     1       8.930   4.417  18.208  0.00  0.00    +0.000 HD
ATOM      7  H   UNL     1       5.833   5.125  20.053  0.00  0.00    +0.000 HD
ENDROOT
BRANCH   3   8
ATOM      8  C   UNL     1       4.395   4.788  17.728  0.00  0.00    +0.000 A 
ATOM      9  C   UNL     1       3.884   6.097  17.830  0.00  0.00    +0.000 A 
ATOM     10  C   UNL     1       2.519   6.140  18.068  0.00  0.00    +0.000 A 
ATOM     11  S   UNL     1       1.940   4.565  18.120  0.00  0.00    +0.000 S 
ATOM     12  C   UNL     1       3.416   3.810  17.845  0.00  0.00    +0.000 A 
ENDBRANCH   3   8
BRANCH   4  13
ATOM     13  O   UNL     1       7.833   5.465  20.197  0.00  0.00    +0.000 OA
ATOM     14  H   UNL     1       7.818   4.914  21.023  0.00  0.00    +0.000 HD
ENDBRANCH   4  13
TORSDOF 2
ENDMDL
MODEL 6
REMARK VINA RESULT:      -4.9      1.735      2.264
REMARK  Name = 
REMARK  2 active torsions:
REMARK  status: ('A' for Active; 'I' for Inactive)
REMARK    1  A    between atoms: N_3  and  C_4
REMARK    2  A    between atoms: N_9  and  O_10
REMARK                            x       y       z     vdW  Elec       q    Type
REMARK                         _______ _______ _______ _____ _____    ______ ____
ROOT
ATOM      1  N   UNL     1       7.596   4.933  17.192  0.00  0.00    +0.000 N 
ATOM      2  C   UNL     1       6.385   4.612  17.854  0.00  0.00    +0.000 C 
ATOM      3  N   UNL     1       5.397   4.164  17.142  0.00  0.00    +0.000 NA
ATOM      4  N   UNL     1       6.306   4.754  19.273  0.00  0.00    +0.000 N 
ATOM      5  H   UNL     1       7.677   4.825  16.169  0.00  0.00    +0.000 HD
ATOM      6  H   UNL     1       8.414   5.271  17.717  0.00  0.00    +0.000 HD
ATOM      7  H   UNL     1       5.558   4.313  19.818  0.00  0.00    +0.000 HD
ENDROOT
BRANCH   3   8
ATOM      8  C   UNL     1       4.058   3.885  17.548  0.00  0.00    +0.000 A 
ATOM      9  C   UNL     1       3.011   4.823  17.645  0.00  0.00    +0.000 A 
ATOM     10  C   UNL     1       1.804   4.264  18.036  0.00  0.00    +0.000 A 
ATOM     11  S   UNL     1       2.022   2.610  18.230  0.00  0.00    +0.000 S 
ATOM     12  C   UNL     1       3.653   2.585  17.823  0.00  0.00    +0.000 A 
ENDBRANCH   3   8
BRANCH   4  13
ATOM     13  O   UNL     1       7.279   5.389  19.943  0.00  0.00    +0.000 OA
ATOM     14  H   UNL     1       8.018   4.727  19.994  0.00  0.00    +0.000 HD
ENDBRANCH   4  13
TORSDOF 2
ENDMDL
MODEL 7
REMARK VINA RESULT:      -4.9      3.334      4.148
REMARK  Name = 
REMARK  2 active torsions:
REMARK  status: ('A' for Active; 'I' for Inactive)
REMARK    1  A    between atoms: N_3  and  C_4
REMARK    2  A    between atoms: N_9  and  O_10
REMARK                            x       y       z     vdW  Elec       q    Type
REMARK                         _______ _______ _______ _____ _____    ______ ____
ROOT
ATOM      1  N   UNL     1       6.423   3.501  13.331  0.00  0.00    +0.000 N 
ATOM      2  C   UNL     1       6.478   4.240  14.539  0.00  0.00    +0.000 C 
ATOM      3  N   UNL     1       5.660   3.919  15.492  0.00  0.00    +0.000 NA
ATOM      4  N   UNL     1       7.449   5.278  14.677  0.00  0.00    +0.000 N 
ATOM      5  H   UNL     1       5.736   2.739  13.215  0.00  0.00    +0.000 HD
ATOM      6  H   UNL     1       7.066   3.705  12.553  0.00  0.00    +0.000 HD
ATOM      7  H   UNL     1       7.694   5.668  15.594  0.00  0.00    +0.000 HD
ENDROOT
BRANCH   3   8
ATOM      8  C   UNL     1       5.441   4.574  16.741  0.00  0.00    +0.000 A 
ATOM      9  C   UNL     1       4.331   5.378  17.070  0.00  0.00    +0.000 A 
ATOM     10  C   UNL     1       4.367   5.863  18.368  0.00  0.00    +0.000 A 
ATOM     11  S   UNL     1       5.749   5.274  19.117  0.00  0.00    +0.000 S 
ATOM     12  C   UNL     1       6.321   4.399  17.801  0.00  0.00    +0.000 A 
ENDBRANCH   3   8
BRANCH   4  13
ATOM     13  O   UNL     1       8.146   5.698  13.611  0.00  0.00    +0.000 OA
ATOM     14  H   UNL     1       8.355   6.648  13.810  0.00  0.00    +0.000 HD
ENDBRANCH   4  13
TORSDOF 2
ENDMDL
MODEL 8
REMARK VINA RESULT:      -4.9      1.820      2.293
REMARK  Name = 
REMARK  2 active torsions:
REMARK  status: ('A' for Active; 'I' for Inactive)
REMARK    1  A    between atoms: N_3  and  C_4
REMARK    2  A    between atoms: N_9  and  O_10
REMARK                            x       y       z     vdW  Elec       q    Type
REMARK                         _______ _______ _______ _____ _____    ______ ____
ROOT
ATOM      1  N   UNL     1       7.347   5.522  15.606  0.00  0.00    +0.000 N 
ATOM      2  C   UNL     1       6.472   5.047  16.614  0.00  0.00    +0.000 C 
ATOM      3  N   UNL     1       5.216   5.363  16.535  0.00  0.00    +0.000 NA
ATOM      4  N   UNL     1       6.989   4.213  17.652  0.00  0.00    +0.000 N 
ATOM      5  H   UNL     1       6.990   6.116  14.841  0.00  0.00    +0.000 HD
ATOM      6  H   UNL     1       8.347   5.280  15.614  0.00  0.00    +0.000 HD
ATOM      7  H   UNL     1       6.373   3.652  18.250  0.00  0.00    +0.000 HD
ENDROOT
BRANCH   3   8
ATOM      8  C   UNL     1       4.170   5.112  17.473  0.00  0.00    +0.000 A 
ATOM      9  C   UNL     1       3.825   5.931  18.566  0.00  0.00    +0.000 A 
ATOM     10  C   UNL     1       2.745   5.454  19.293  0.00  0.00    +0.000 A 
ATOM     11  S   UNL     1       2.198   4.042  18.568  0.00  0.00    +0.000 S 
ATOM     12  C   UNL     1       3.329   4.017  17.325  0.00  0.00    +0.000 A 
ENDBRANCH   3   8
BRANCH   4  13
ATOM     13  O   UNL     1       8.313   4.063  17.799  0.00  0.00    +0.000 OA
ATOM     14  H   UNL     1       8.683   4.977  17.674  0.00  0.00    +0.000 HD
ENDBRANCH   4  13
TORSDOF 2
ENDMDL
MODEL 9
REMARK VINA RESULT:      -4.9      1.637      1.955
REMARK  Name = 
REMARK  2 active torsions:
REMARK  status: ('A' for Active; 'I' for Inactive)
REMARK    1  A    between atoms: N_3  and  C_4
REMARK    2  A    between atoms: N_9  and  O_10
REMARK                            x       y       z     vdW  Elec       q    Type
REMARK                         _______ _______ _______ _____ _____    ______ ____
ROOT
ATOM      1  N   UNL     1       7.604   4.939  17.217  0.00  0.00    +0.000 N 
ATOM      2  C   UNL     1       6.384   4.573  17.839  0.00  0.00    +0.000 C 
ATOM      3  N   UNL     1       5.428   4.115  17.091  0.00  0.00    +0.000 NA
ATOM      4  N   UNL     1       6.263   4.685  19.257  0.00  0.00    +0.000 N 
ATOM      5  H   UNL     1       7.715   4.855  16.194  0.00  0.00    +0.000 HD
ATOM      6  H   UNL     1       8.398   5.288  17.770  0.00  0.00    +0.000 HD
ATOM      7  H   UNL     1       5.513   4.213  19.773  0.00  0.00    +0.000 HD
ENDROOT
BRANCH   3   8
ATOM      8  C   UNL     1       4.086   3.793  17.454  0.00  0.00    +0.000 A 
ATOM      9  C   UNL     1       3.601   2.510  17.775  0.00  0.00    +0.000 A 
ATOM     10  C   UNL     1       2.258   2.499  18.120  0.00  0.00    +0.000 A 
ATOM     11  S   UNL     1       1.680   4.074  18.060  0.00  0.00    +0.000 S 
ATOM     12  C   UNL     1       3.128   4.789  17.592  0.00  0.00    +0.000 A 
ENDBRANCH   3   8
BRANCH   4  13
ATOM     13  O   UNL     1       7.201   5.331  19.966  0.00  0.00    +0.000 OA
ATOM     14  H   UNL     1       7.145   6.272  19.651  0.00  0.00    +0.000 HD
ENDBRANCH   4  13
TORSDOF 2
ENDMDL
