MODEL 1
REMARK VINA RESULT:      -8.7      0.000      0.000
REMARK  Name = 
REMARK  6 active torsions:
REMARK  status: ('A' for Active; 'I' for Inactive)
REMARK    1  A    between atoms: C_1  and  N_2
REMARK    2  A    between atoms: N_2  and  C_3
REMARK    3  A    between atoms: C_3  and  C_4
REMARK    4  A    between atoms: C_4  and  C_5
REMARK    5  A    between atoms: C_8  and  C_9
REMARK    6  A    between atoms: C_14  and  C_15
REMARK                            x       y       z     vdW  Elec       q    Type
REMARK                         _______ _______ _______ _____ _____    ______ ____
ROOT
ATOM      1  C   UNL     1       6.289   4.423  15.687  0.00  0.00    +0.000 A 
ATOM      2  C   UNL     1       7.412   4.954  16.334  0.00  0.00    +0.000 A 
ATOM      3  C   UNL     1       7.377   5.196  17.702  0.00  0.00    +0.000 A 
ATOM      4  C   UNL     1       6.233   4.898  18.433  0.00  0.00    +0.000 A 
ATOM      5  F   UNL     1       6.251   5.151  19.749  0.00  0.00    +0.000 F 
ATOM      6  C   UNL     1       5.089   4.343  17.834  0.00  0.00    +0.000 A 
ATOM      7  C   UNL     1       5.151   4.114  16.451  0.00  0.00    +0.000 A 
ENDROOT
BRANCH   6   8
ATOM      8  C   UNL     1       3.844   3.998  18.661  0.00  0.00    +0.000 C 
ATOM      9  C   UNL     1       3.457   5.186  19.587  0.00  0.00    +0.000 C 
ATOM     10  C   UNL     1       2.221   4.841  20.438  0.00  0.00    +0.000 C 
ATOM     11  C   UNL     1       1.033   4.538  19.513  0.00  0.00    +0.000 C 
ATOM     12  C   UNL     1       1.365   3.342  18.612  0.00  0.00    +0.000 C 
ATOM     13  C   UNL     1       1.679   2.108  19.468  0.00  0.00    +0.000 C 
ATOM     14  C   UNL     1       2.866   2.403  20.394  0.00  0.00    +0.000 C 
ATOM     15  C   UNL     1       2.524   3.602  21.296  0.00  0.00    +0.000 C 
ATOM     16  C   UNL     1       4.103   2.745  19.547  0.00  0.00    +0.000 C 
ATOM     17  C   UNL     1       2.600   3.684  17.769  0.00  0.00    +0.000 C 
ENDBRANCH   6   8
BRANCH   1  21
ATOM     18  C   UNL     1       5.724   3.431  12.240  0.00  0.00    +0.000 A 
ATOM     19  C   UNL     1       6.875   4.108  11.885  0.00  0.00    +0.000 A 
ATOM     20  S   UNL     1       7.586   4.816  13.260  0.00  0.00    +0.000 S 
ATOM     21  C   UNL     1       6.324   4.163  14.245  0.00  0.00    +0.000 A 
ATOM     22  N   UNL     1       5.438   3.436  13.593  0.00  0.00    +0.000 NA
BRANCH  18  23
ATOM     23  C   UNL     1       4.767   2.760  11.311  0.00  0.00    +0.000 C 
BRANCH  23  24
ATOM     24  C   UNL     1       3.591   3.687  10.986  0.00  0.00    +0.000 C 
BRANCH  24  26
ATOM     25  C   UNL     1       2.479   4.740   9.136  0.00  0.00    +0.000 C 
ATOM     26  N   UNL     1       3.140   3.526   9.599  0.00  0.00    +0.000 NA
ATOM     27  H   UNL     1       3.937   3.325   8.996  0.00  0.00    +0.000 HD
ENDBRANCH  24  26
ENDBRANCH  23  24
ENDBRANCH  18  23
ENDBRANCH   1  21
TORSDOF 5
ENDMDL
MODEL 2
REMARK VINA RESULT:      -8.7      0.224      1.514
REMARK  Name = 
REMARK  6 active torsions:
REMARK  status: ('A' for Active; 'I' for Inactive)
REMARK    1  A    between atoms: C_1  and  N_2
REMARK    2  A    between atoms: N_2  and  C_3
REMARK    3  A    between atoms: C_3  and  C_4
REMARK    4  A    between atoms: C_4  and  C_5
REMARK    5  A    between atoms: C_8  and  C_9
REMARK    6  A    between atoms: C_14  and  C_15
REMARK                            x       y       z     vdW  Elec       q    Type
REMARK                         _______ _______ _______ _____ _____    ______ ____
ROOT
ATOM      1  C   UNL     1       6.176   4.372  15.622  0.00  0.00    +0.000 A 
ATOM      2  C   UNL     1       7.329   4.887  16.231  0.00  0.00    +0.000 A 
ATOM      3  C   UNL     1       7.343   5.134  17.598  0.00  0.00    +0.000 A 
ATOM      4  C   UNL     1       6.218   4.857  18.367  0.00  0.00    +0.000 A 
ATOM      5  F   UNL     1       6.284   5.114  19.682  0.00  0.00    +0.000 F 
ATOM      6  C   UNL     1       5.046   4.319  17.808  0.00  0.00    +0.000 A 
ATOM      7  C   UNL     1       5.059   4.085  16.425  0.00  0.00    +0.000 A 
ENDROOT
BRANCH   6   8
ATOM      8  C   UNL     1       3.824   3.998  18.677  0.00  0.00    +0.000 C 
ATOM      9  C   UNL     1       4.078   2.722  19.528  0.00  0.00    +0.000 C 
ATOM     10  C   UNL     1       2.847   2.379  20.388  0.00  0.00    +0.000 C 
ATOM     11  C   UNL     1       2.547   3.546  21.339  0.00  0.00    +0.000 C 
ATOM     12  C   UNL     1       2.249   4.815  20.529  0.00  0.00    +0.000 C 
ATOM     13  C   UNL     1       1.047   4.581  19.606  0.00  0.00    +0.000 C 
ATOM     14  C   UNL     1       1.340   3.416  18.651  0.00  0.00    +0.000 C 
ATOM     15  C   UNL     1       1.635   2.148  19.470  0.00  0.00    +0.000 C 
ATOM     16  C   UNL     1       2.567   3.758  17.789  0.00  0.00    +0.000 C 
ATOM     17  C   UNL     1       3.473   5.153  19.669  0.00  0.00    +0.000 C 
ENDBRANCH   6   8
BRANCH   1  21
ATOM     18  C   UNL     1       5.436   3.478  12.182  0.00  0.00    +0.000 A 
ATOM     19  C   UNL     1       6.680   3.959  11.818  0.00  0.00    +0.000 A 
ATOM     20  S   UNL     1       7.505   4.545  13.187  0.00  0.00    +0.000 S 
ATOM     21  C   UNL     1       6.160   4.108  14.182  0.00  0.00    +0.000 A 
ATOM     22  N   UNL     1       5.164   3.532  13.537  0.00  0.00    +0.000 NA
BRANCH  18  23
ATOM     23  C   UNL     1       4.378   2.970  11.261  0.00  0.00    +0.000 C 
BRANCH  23  24
ATOM     24  C   UNL     1       3.547   4.130  10.700  0.00  0.00    +0.000 C 
BRANCH  24  26
ATOM     25  C   UNL     1       2.222   4.938   8.868  0.00  0.00    +0.000 C 
ATOM     26  N   UNL     1       3.000   3.815   9.376  0.00  0.00    +0.000 NA
ATOM     27  H   UNL     1       3.758   3.609   8.727  0.00  0.00    +0.000 HD
ENDBRANCH  24  26
ENDBRANCH  23  24
ENDBRANCH  18  23
ENDBRANCH   1  21
TORSDOF 5
ENDMDL
MODEL 3
REMARK VINA RESULT:      -8.6      0.155      1.419
REMARK  Name = 
REMARK  6 active torsions:
REMARK  status: ('A' for Active; 'I' for Inactive)
REMARK    1  A    between atoms: C_1  and  N_2
REMARK    2  A    between atoms: N_2  and  C_3
REMARK    3  A    between atoms: C_3  and  C_4
REMARK    4  A    between atoms: C_4  and  C_5
REMARK    5  A    between atoms: C_8  and  C_9
REMARK    6  A    between atoms: C_14  and  C_15
REMARK                            x       y       z     vdW  Elec       q    Type
REMARK                         _______ _______ _______ _____ _____    ______ ____
ROOT
ATOM      1  C   UNL     1       6.301   4.420  15.667  0.00  0.00    +0.000 A 
ATOM      2  C   UNL     1       7.408   4.970  16.327  0.00  0.00    +0.000 A 
ATOM      3  C   UNL     1       7.354   5.209  17.695  0.00  0.00    +0.000 A 
ATOM      4  C   UNL     1       6.207   4.890  18.413  0.00  0.00    +0.000 A 
ATOM      5  F   UNL     1       6.206   5.141  19.730  0.00  0.00    +0.000 F 
ATOM      6  C   UNL     1       5.079   4.316  17.801  0.00  0.00    +0.000 A 
ATOM      7  C   UNL     1       5.160   4.091  16.418  0.00  0.00    +0.000 A 
ENDROOT
BRANCH   6   8
ATOM      8  C   UNL     1       3.831   3.949  18.614  0.00  0.00    +0.000 C 
ATOM      9  C   UNL     1       2.588   3.832  17.686  0.00  0.00    +0.000 C 
ATOM     10  C   UNL     1       1.326   3.485  18.497  0.00  0.00    +0.000 C 
ATOM     11  C   UNL     1       1.531   2.140  19.208  0.00  0.00    +0.000 C 
ATOM     12  C   UNL     1       2.726   2.232  20.165  0.00  0.00    +0.000 C 
ATOM     13  C   UNL     1       2.484   3.333  21.205  0.00  0.00    +0.000 C 
ATOM     14  C   UNL     1       2.280   4.681  20.502  0.00  0.00    +0.000 C 
ATOM     15  C   UNL     1       1.079   4.581  19.546  0.00  0.00    +0.000 C 
ATOM     16  C   UNL     1       3.542   5.032  19.694  0.00  0.00    +0.000 C 
ATOM     17  C   UNL     1       3.981   2.583  19.358  0.00  0.00    +0.000 C 
ENDBRANCH   6   8
BRANCH   1  21
ATOM     18  C   UNL     1       5.796   3.415  12.215  0.00  0.00    +0.000 A 
ATOM     19  C   UNL     1       6.927   4.129  11.869  0.00  0.00    +0.000 A 
ATOM     20  S   UNL     1       7.604   4.858  13.251  0.00  0.00    +0.000 S 
ATOM     21  C   UNL     1       6.356   4.164  14.226  0.00  0.00    +0.000 A 
ATOM     22  N   UNL     1       5.499   3.409  13.565  0.00  0.00    +0.000 NA
BRANCH  18  23
ATOM     23  C   UNL     1       4.869   2.715  11.278  0.00  0.00    +0.000 C 
BRANCH  23  24
ATOM     24  C   UNL     1       3.597   3.543  11.058  0.00  0.00    +0.000 C 
BRANCH  24  26
ATOM     25  C   UNL     1       2.598   4.654   9.178  0.00  0.00    +0.000 C 
ATOM     26  N   UNL     1       3.070   3.377   9.699  0.00  0.00    +0.000 NA
ATOM     27  H   UNL     1       3.798   3.012   9.086  0.00  0.00    +0.000 HD
ENDBRANCH  24  26
ENDBRANCH  23  24
ENDBRANCH  18  23
ENDBRANCH   1  21
TORSDOF 5
ENDMDL
MODEL 4
REMARK VINA RESULT:      -8.6      5.515      7.485
REMARK  Name = 
REMARK  6 active torsions:
REMARK  status: ('A' for Active; 'I' for Inactive)
REMARK    1  A    between atoms: C_1  and  N_2
REMARK    2  A    between atoms: N_2  and  C_3
REMARK    3  A    between atoms: C_3  and  C_4
REMARK    4  A    between atoms: C_4  and  C_5
REMARK    5  A    between atoms: C_8  and  C_9
REMARK    6  A    between atoms: C_14  and  C_15
REMARK                            x       y       z     vdW  Elec       q    Type
REMARK                         _______ _______ _______ _____ _____    ______ ____
ROOT
ATOM      1  C   UNL     1       1.773   8.601  18.869  0.00  0.00    +0.000 A 
ATOM      2  C   UNL     1       2.698   8.932  17.870  0.00  0.00    +0.000 A 
ATOM      3  C   UNL     1       3.508   7.947  17.317  0.00  0.00    +0.000 A 
ATOM      4  C   UNL     1       3.392   6.630  17.744  0.00  0.00    +0.000 A 
ATOM      5  F   UNL     1       4.197   5.719  17.179  0.00  0.00    +0.000 F 
ATOM      6  C   UNL     1       2.464   6.243  18.727  0.00  0.00    +0.000 A 
ATOM      7  C   UNL     1       1.664   7.259  19.271  0.00  0.00    +0.000 A 
ENDROOT
BRANCH   6   8
ATOM      8  C   UNL     1       2.334   4.780  19.168  0.00  0.00    +0.000 C 
ATOM      9  C   UNL     1       1.272   4.640  20.295  0.00  0.00    +0.000 C 
ATOM     10  C   UNL     1       1.150   3.177  20.760  0.00  0.00    +0.000 C 
ATOM     11  C   UNL     1       0.721   2.300  19.575  0.00  0.00    +0.000 C 
ATOM     12  C   UNL     1       1.770   2.380  18.460  0.00  0.00    +0.000 C 
ATOM     13  C   UNL     1       3.133   1.909  18.982  0.00  0.00    +0.000 C 
ATOM     14  C   UNL     1       3.569   2.783  20.166  0.00  0.00    +0.000 C 
ATOM     15  C   UNL     1       2.513   2.695  21.281  0.00  0.00    +0.000 C 
ATOM     16  C   UNL     1       3.695   4.245  19.703  0.00  0.00    +0.000 C 
ATOM     17  C   UNL     1       1.895   3.838  18.001  0.00  0.00    +0.000 C 
ENDBRANCH   6   8
BRANCH   1  21
ATOM     18  C   UNL     1      -0.499  11.337  19.597  0.00  0.00    +0.000 A 
ATOM     19  C   UNL     1      -0.357  11.061  20.943  0.00  0.00    +0.000 A 
ATOM     20  S   UNL     1       0.701   9.746  21.163  0.00  0.00    +0.000 S 
ATOM     21  C   UNL     1       0.916   9.636  19.451  0.00  0.00    +0.000 A 
ATOM     22  N   UNL     1       0.260  10.544  18.756  0.00  0.00    +0.000 NA
BRANCH  18  23
ATOM     23  C   UNL     1      -1.411  12.352  18.991  0.00  0.00    +0.000 C 
BRANCH  23  24
ATOM     24  C   UNL     1      -2.431  11.677  18.066  0.00  0.00    +0.000 C 
BRANCH  24  26
ATOM     25  C   UNL     1      -2.860  10.854  15.852  0.00  0.00    +0.000 C 
ATOM     26  N   UNL     1      -1.988  11.690  16.668  0.00  0.00    +0.000 NA
ATOM     27  H   UNL     1      -2.003  12.644  16.308  0.00  0.00    +0.000 HD
ENDBRANCH  24  26
ENDBRANCH  23  24
ENDBRANCH  18  23
ENDBRANCH   1  21
TORSDOF 5
ENDMDL
MODEL 5
REMARK VINA RESULT:      -8.5      5.386      7.428
REMARK  Name = 
REMARK  6 active torsions:
REMARK  status: ('A' for Active; 'I' for Inactive)
REMARK    1  A    between atoms: C_1  and  N_2
REMARK    2  A    between atoms: N_2  and  C_3
REMARK    3  A    between atoms: C_3  and  C_4
REMARK    4  A    between atoms: C_4  and  C_5
REMARK    5  A    between atoms: C_8  and  C_9
REMARK    6  A    between atoms: C_14  and  C_15
REMARK                            x       y       z     vdW  Elec       q    Type
REMARK                         _______ _______ _______ _____ _____    ______ ____
ROOT
ATOM      1  C   UNL     1       1.843   8.559  18.692  0.00  0.00    +0.000 A 
ATOM      2  C   UNL     1       2.831   8.884  17.754  0.00  0.00    +0.000 A 
ATOM      3  C   UNL     1       3.686   7.899  17.274  0.00  0.00    +0.000 A 
ATOM      4  C   UNL     1       3.552   6.587  17.713  0.00  0.00    +0.000 A 
ATOM      5  F   UNL     1       4.403   5.675  17.219  0.00  0.00    +0.000 F 
ATOM      6  C   UNL     1       2.562   6.206  18.636  0.00  0.00    +0.000 A 
ATOM      7  C   UNL     1       1.717   7.222  19.107  0.00  0.00    +0.000 A 
ENDROOT
BRANCH   6   8
ATOM      8  C   UNL     1       2.414   4.749  19.090  0.00  0.00    +0.000 C 
ATOM      9  C   UNL     1       1.950   3.852  17.907  0.00  0.00    +0.000 C 
ATOM     10  C   UNL     1       1.777   2.390  18.360  0.00  0.00    +0.000 C 
ATOM     11  C   UNL     1       3.120   1.855  18.878  0.00  0.00    +0.000 C 
ATOM     12  C   UNL     1       3.588   2.692  20.074  0.00  0.00    +0.000 C 
ATOM     13  C   UNL     1       2.544   2.638  21.197  0.00  0.00    +0.000 C 
ATOM     14  C   UNL     1       1.200   3.173  20.686  0.00  0.00    +0.000 C 
ATOM     15  C   UNL     1       0.736   2.327  19.489  0.00  0.00    +0.000 C 
ATOM     16  C   UNL     1       1.368   4.635  20.237  0.00  0.00    +0.000 C 
ATOM     17  C   UNL     1       3.754   4.149  19.625  0.00  0.00    +0.000 C 
ENDBRANCH   6   8
BRANCH   1  21
ATOM     18  C   UNL     1      -0.533  11.254  19.218  0.00  0.00    +0.000 A 
ATOM     19  C   UNL     1      -0.417  11.054  20.580  0.00  0.00    +0.000 A 
ATOM     20  S   UNL     1       0.676   9.788  20.896  0.00  0.00    +0.000 S 
ATOM     21  C   UNL     1       0.938   9.595  19.197  0.00  0.00    +0.000 A 
ATOM     22  N   UNL     1       0.272  10.443  18.439  0.00  0.00    +0.000 NA
BRANCH  18  23
ATOM     23  C   UNL     1      -1.460  12.205  18.537  0.00  0.00    +0.000 C 
BRANCH  23  24
ATOM     24  C   UNL     1      -2.544  11.442  17.765  0.00  0.00    +0.000 C 
BRANCH  24  26
ATOM     25  C   UNL     1      -2.954  10.839  15.477  0.00  0.00    +0.000 C 
ATOM     26  N   UNL     1      -1.998  10.778  16.576  0.00  0.00    +0.000 NA
ATOM     27  H   UNL     1      -1.130  11.232  16.294  0.00  0.00    +0.000 HD
ENDBRANCH  24  26
ENDBRANCH  23  24
ENDBRANCH  18  23
ENDBRANCH   1  21
TORSDOF 5
ENDMDL
MODEL 6
REMARK VINA RESULT:      -8.3      5.610      7.820
REMARK  Name = 
REMARK  6 active torsions:
REMARK  status: ('A' for Active; 'I' for Inactive)
REMARK    1  A    between atoms: C_1  and  N_2
REMARK    2  A    between atoms: N_2  and  C_3
REMARK    3  A    between atoms: C_3  and  C_4
REMARK    4  A    between atoms: C_4  and  C_5
REMARK    5  A    between atoms: C_8  and  C_9
REMARK    6  A    between atoms: C_14  and  C_15
REMARK                            x       y       z     vdW  Elec       q    Type
REMARK                         _______ _______ _______ _____ _____    ______ ____
ROOT
ATOM      1  C   UNL     1       1.748   8.613  19.139  0.00  0.00    +0.000 A 
ATOM      2  C   UNL     1       2.581   9.004  18.082  0.00  0.00    +0.000 A 
ATOM      3  C   UNL     1       3.349   8.057  17.415  0.00  0.00    +0.000 A 
ATOM      4  C   UNL     1       3.281   6.719  17.784  0.00  0.00    +0.000 A 
ATOM      5  F   UNL     1       4.042   5.847  17.108  0.00  0.00    +0.000 F 
ATOM      6  C   UNL     1       2.443   6.274  18.822  0.00  0.00    +0.000 A 
ATOM      7  C   UNL     1       1.684   7.252  19.481  0.00  0.00    +0.000 A 
ENDROOT
BRANCH   6   8
ATOM      8  C   UNL     1       2.363   4.789  19.199  0.00  0.00    +0.000 C 
ATOM      9  C   UNL     1       3.745   4.275  19.694  0.00  0.00    +0.000 C 
ATOM     10  C   UNL     1       3.680   2.780  20.055  0.00  0.00    +0.000 C 
ATOM     11  C   UNL     1       2.653   2.570  21.176  0.00  0.00    +0.000 C 
ATOM     12  C   UNL     1       1.266   3.028  20.706  0.00  0.00    +0.000 C 
ATOM     13  C   UNL     1       0.842   2.234  19.463  0.00  0.00    +0.000 C 
ATOM     14  C   UNL     1       1.864   2.441  18.338  0.00  0.00    +0.000 C 
ATOM     15  C   UNL     1       3.251   1.977  18.816  0.00  0.00    +0.000 C 
ATOM     16  C   UNL     1       1.929   3.934  17.973  0.00  0.00    +0.000 C 
ATOM     17  C   UNL     1       1.333   4.515  20.342  0.00  0.00    +0.000 C 
ENDBRANCH   6   8
BRANCH   1  21
ATOM     18  C   UNL     1      -0.403  11.341  20.194  0.00  0.00    +0.000 A 
ATOM     19  C   UNL     1      -0.279  10.899  21.497  0.00  0.00    +0.000 A 
ATOM     20  S   UNL     1       0.718   9.521  21.556  0.00  0.00    +0.000 S 
ATOM     21  C   UNL     1       0.935   9.608  19.842  0.00  0.00    +0.000 A 
ATOM     22  N   UNL     1       0.323  10.622  19.262  0.00  0.00    +0.000 NA
BRANCH  18  23
ATOM     23  C   UNL     1      -1.266  12.461  19.715  0.00  0.00    +0.000 C 
BRANCH  23  24
ATOM     24  C   UNL     1      -1.022  12.733  18.226  0.00  0.00    +0.000 C 
BRANCH  24  26
ATOM     25  C   UNL     1      -3.039  11.545  17.692  0.00  0.00    +0.000 C 
ATOM     26  N   UNL     1      -1.623  11.696  17.379  0.00  0.00    +0.000 NA
ATOM     27  H   UNL     1      -1.519  11.948  16.397  0.00  0.00    +0.000 HD
ENDBRANCH  24  26
ENDBRANCH  23  24
ENDBRANCH  18  23
ENDBRANCH   1  21
TORSDOF 5
ENDMDL
MODEL 7
REMARK VINA RESULT:      -8.2      5.958      8.819
REMARK  Name = 
REMARK  6 active torsions:
REMARK  status: ('A' for Active; 'I' for Inactive)
REMARK    1  A    between atoms: C_1  and  N_2
REMARK    2  A    between atoms: N_2  and  C_3
REMARK    3  A    between atoms: C_3  and  C_4
REMARK    4  A    between atoms: C_4  and  C_5
REMARK    5  A    between atoms: C_8  and  C_9
REMARK    6  A    between atoms: C_14  and  C_15
REMARK                            x       y       z     vdW  Elec       q    Type
REMARK                         _______ _______ _______ _____ _____    ______ ____
ROOT
ATOM      1  C   UNL     1       1.646   8.702  19.211  0.00  0.00    +0.000 A 
ATOM      2  C   UNL     1       2.466   9.095  18.146  0.00  0.00    +0.000 A 
ATOM      3  C   UNL     1       3.231   8.150  17.472  0.00  0.00    +0.000 A 
ATOM      4  C   UNL     1       3.174   6.813  17.845  0.00  0.00    +0.000 A 
ATOM      5  F   UNL     1       3.932   5.942  17.163  0.00  0.00    +0.000 F 
ATOM      6  C   UNL     1       2.349   6.365  18.892  0.00  0.00    +0.000 A 
ATOM      7  C   UNL     1       1.592   7.341  19.558  0.00  0.00    +0.000 A 
ENDROOT
BRANCH   6   8
ATOM      8  C   UNL     1       2.281   4.881  19.274  0.00  0.00    +0.000 C 
ATOM      9  C   UNL     1       3.678   4.366  19.722  0.00  0.00    +0.000 C 
ATOM     10  C   UNL     1       3.623   2.871  20.086  0.00  0.00    +0.000 C 
ATOM     11  C   UNL     1       2.634   2.663  21.242  0.00  0.00    +0.000 C 
ATOM     12  C   UNL     1       1.233   3.122  20.818  0.00  0.00    +0.000 C 
ATOM     13  C   UNL     1       0.766   2.328  19.592  0.00  0.00    +0.000 C 
ATOM     14  C   UNL     1       1.750   2.532  18.432  0.00  0.00    +0.000 C 
ATOM     15  C   UNL     1       3.151   2.067  18.864  0.00  0.00    +0.000 C 
ATOM     16  C   UNL     1       1.804   4.025  18.064  0.00  0.00    +0.000 C 
ATOM     17  C   UNL     1       1.289   4.610  20.451  0.00  0.00    +0.000 C 
ENDBRANCH   6   8
BRANCH   1  21
ATOM     18  C   UNL     1      -0.339  10.665  21.532  0.00  0.00    +0.000 A 
ATOM     19  C   UNL     1      -0.384  11.679  20.595  0.00  0.00    +0.000 A 
ATOM     20  S   UNL     1       0.471  11.221  19.196  0.00  0.00    +0.000 S 
ATOM     21  C   UNL     1       0.836   9.694  19.921  0.00  0.00    +0.000 A 
ATOM     22  N   UNL     1       0.326   9.523  21.126  0.00  0.00    +0.000 NA
BRANCH  18  23
ATOM     23  C   UNL     1      -0.886  10.716  22.920  0.00  0.00    +0.000 C 
BRANCH  23  24
ATOM     24  C   UNL     1      -1.639  12.031  23.156  0.00  0.00    +0.000 C 
BRANCH  24  26
ATOM     25  C   UNL     1      -3.892  12.805  22.857  0.00  0.00    +0.000 C 
ATOM     26  N   UNL     1      -3.049  11.797  23.487  0.00  0.00    +0.000 NA
ATOM     27  H   UNL     1      -3.332  10.872  23.166  0.00  0.00    +0.000 HD
ENDBRANCH  24  26
ENDBRANCH  23  24
ENDBRANCH  18  23
ENDBRANCH   1  21
TORSDOF 5
ENDMDL
MODEL 8
REMARK VINA RESULT:      -8.2      5.973      8.794
REMARK  Name = 
REMARK  6 active torsions:
REMARK  status: ('A' for Active; 'I' for Inactive)
REMARK    1  A    between atoms: C_1  and  N_2
REMARK    2  A    between atoms: N_2  and  C_3
REMARK    3  A    between atoms: C_3  and  C_4
REMARK    4  A    between atoms: C_4  and  C_5
REMARK    5  A    between atoms: C_8  and  C_9
REMARK    6  A    between atoms: C_14  and  C_15
REMARK                            x       y       z     vdW  Elec       q    Type
REMARK                         _______ _______ _______ _____ _____    ______ ____
ROOT
ATOM      1  C   UNL     1       1.708   8.692  19.227  0.00  0.00    +0.000 A 
ATOM      2  C   UNL     1       2.500   9.072  18.136  0.00  0.00    +0.000 A 
ATOM      3  C   UNL     1       3.228   8.115  17.439  0.00  0.00    +0.000 A 
ATOM      4  C   UNL     1       3.162   6.779  17.815  0.00  0.00    +0.000 A 
ATOM      5  F   UNL     1       3.885   5.897  17.109  0.00  0.00    +0.000 F 
ATOM      6  C   UNL     1       2.365   6.345  18.888  0.00  0.00    +0.000 A 
ATOM      7  C   UNL     1       1.645   7.333  19.576  0.00  0.00    +0.000 A 
ENDROOT
BRANCH   6   8
ATOM      8  C   UNL     1       2.285   4.862  19.273  0.00  0.00    +0.000 C 
ATOM      9  C   UNL     1       1.305   4.658  20.463  0.00  0.00    +0.000 C 
ATOM     10  C   UNL     1       1.236   3.174  20.871  0.00  0.00    +0.000 C 
ATOM     11  C   UNL     1       0.737   2.341  19.682  0.00  0.00    +0.000 C 
ATOM     12  C   UNL     1       1.705   2.486  18.501  0.00  0.00    +0.000 C 
ATOM     13  C   UNL     1       3.107   2.016  18.907  0.00  0.00    +0.000 C 
ATOM     14  C   UNL     1       3.613   2.845  20.095  0.00  0.00    +0.000 C 
ATOM     15  C   UNL     1       2.638   2.692  21.275  0.00  0.00    +0.000 C 
ATOM     16  C   UNL     1       3.687   4.327  19.689  0.00  0.00    +0.000 C 
ATOM     17  C   UNL     1       1.778   3.964  18.099  0.00  0.00    +0.000 C 
ENDBRANCH   6   8
BRANCH   1  21
ATOM     18  C   UNL     1      -0.281  10.640  21.558  0.00  0.00    +0.000 A 
ATOM     19  C   UNL     1      -0.142  11.731  20.723  0.00  0.00    +0.000 A 
ATOM     20  S   UNL     1       0.789  11.312  19.361  0.00  0.00    +0.000 S 
ATOM     21  C   UNL     1       0.936   9.697  19.962  0.00  0.00    +0.000 A 
ATOM     22  N   UNL     1       0.305   9.475  21.098  0.00  0.00    +0.000 NA
BRANCH  18  23
ATOM     23  C   UNL     1      -0.944  10.625  22.896  0.00  0.00    +0.000 C 
BRANCH  23  24
ATOM     24  C   UNL     1      -1.659  11.955  23.159  0.00  0.00    +0.000 C 
BRANCH  24  26
ATOM     25  C   UNL     1      -3.738  13.030  23.694  0.00  0.00    +0.000 C 
ATOM     26  N   UNL     1      -3.049  11.751  23.580  0.00  0.00    +0.000 NA
ATOM     27  H   UNL     1      -3.535  11.166  22.901  0.00  0.00    +0.000 HD
ENDBRANCH  24  26
ENDBRANCH  23  24
ENDBRANCH  18  23
ENDBRANCH   1  21
TORSDOF 5
ENDMDL
MODEL 9
REMARK VINA RESULT:      -8.2      4.878      7.932
REMARK  Name = 
REMARK  6 active torsions:
REMARK  status: ('A' for Active; 'I' for Inactive)
REMARK    1  A    between atoms: C_1  and  N_2
REMARK    2  A    between atoms: N_2  and  C_3
REMARK    3  A    between atoms: C_3  and  C_4
REMARK    4  A    between atoms: C_4  and  C_5
REMARK    5  A    between atoms: C_8  and  C_9
REMARK    6  A    between atoms: C_14  and  C_15
REMARK                            x       y       z     vdW  Elec       q    Type
REMARK                         _______ _______ _______ _____ _____    ______ ____
ROOT
ATOM      1  C   UNL     1       1.839   7.199  20.261  0.00  0.00    +0.000 A 
ATOM      2  C   UNL     1       1.410   6.082  20.989  0.00  0.00    +0.000 A 
ATOM      3  C   UNL     1       1.983   4.837  20.756  0.00  0.00    +0.000 A 
ATOM      4  C   UNL     1       2.993   4.702  19.810  0.00  0.00    +0.000 A 
ATOM      5  F   UNL     1       3.511   3.479  19.623  0.00  0.00    +0.000 F 
ATOM      6  C   UNL     1       3.473   5.796  19.070  0.00  0.00    +0.000 A 
ATOM      7  C   UNL     1       2.873   7.038  19.322  0.00  0.00    +0.000 A 
ENDROOT
BRANCH   6   8
ATOM      8  C   UNL     1       4.605   5.631  18.048  0.00  0.00    +0.000 C 
ATOM      9  C   UNL     1       5.964   5.400  18.768  0.00  0.00    +0.000 C 
ATOM     10  C   UNL     1       7.110   5.255  17.749  0.00  0.00    +0.000 C 
ATOM     11  C   UNL     1       6.832   4.052  16.838  0.00  0.00    +0.000 C 
ATOM     12  C   UNL     1       5.517   4.265  16.078  0.00  0.00    +0.000 C 
ATOM     13  C   UNL     1       5.597   5.544  15.234  0.00  0.00    +0.000 C 
ATOM     14  C   UNL     1       5.873   6.751  16.139  0.00  0.00    +0.000 C 
ATOM     15  C   UNL     1       7.194   6.530  16.895  0.00  0.00    +0.000 C 
ATOM     16  C   UNL     1       4.728   6.900  17.155  0.00  0.00    +0.000 C 
ATOM     17  C   UNL     1       4.377   4.415  17.092  0.00  0.00    +0.000 C 
ENDBRANCH   6   8
BRANCH   1  21
ATOM     18  C   UNL     1       0.294  10.481  20.123  0.00  0.00    +0.000 A 
ATOM     19  C   UNL     1       0.287  10.507  21.504  0.00  0.00    +0.000 A 
ATOM     20  S   UNL     1       0.966   9.072  22.119  0.00  0.00    +0.000 S 
ATOM     21  C   UNL     1       1.240   8.513  20.506  0.00  0.00    +0.000 A 
ATOM     22  N   UNL     1       0.873   9.357  19.562  0.00  0.00    +0.000 NA
BRANCH  18  23
ATOM     23  C   UNL     1      -0.298  11.507  19.214  0.00  0.00    +0.000 C 
BRANCH  23  24
ATOM     24  C   UNL     1      -1.548  10.955  18.519  0.00  0.00    +0.000 C 
BRANCH  24  26
ATOM     25  C   UNL     1      -2.403   9.980  16.498  0.00  0.00    +0.000 C 
ATOM     26  N   UNL     1      -1.209  10.211  17.301  0.00  0.00    +0.000 NA
ATOM     27  H   UNL     1      -0.530  10.737  16.751  0.00  0.00    +0.000 HD
ENDBRANCH  24  26
ENDBRANCH  23  24
ENDBRANCH  18  23
ENDBRANCH   1  21
TORSDOF 5
ENDMDL
