MODEL 1
REMARK VINA RESULT:      -6.3      0.000      0.000
REMARK  Name = 
REMARK  5 active torsions:
REMARK  status: ('A' for Active; 'I' for Inactive)
REMARK    1  A    between atoms: C_2  and  C_3
REMARK    2  A    between atoms: C_3  and  C_4
REMARK    3  A    between atoms: N_6  and  N_7
REMARK    4  A    between atoms: C_8  and  C_9
REMARK    5  A    between atoms: C_15  and  O_16
REMARK                            x       y       z     vdW  Elec       q    Type
REMARK                         _______ _______ _______ _____ _____    ______ ____
ROOT
ATOM      1  N   UNL     1       5.013   3.647  17.313  0.00  0.00    +0.000 NA
ATOM      2  C   UNL     1       3.846   4.181  17.135  0.00  0.00    +0.000 C 
ENDROOT
BRANCH   2   3
ATOM      3  C   UNL     1       2.825   4.095  18.201  0.00  0.00    +0.000 A 
ATOM      4  C   UNL     1       2.548   5.234  18.971  0.00  0.00    +0.000 A 
ATOM      5  C   UNL     1       1.602   5.167  19.988  0.00  0.00    +0.000 A 
ATOM      6 BR   UNL     1       1.244   6.702  21.031  0.00  0.00    +0.000 Br
ATOM      7  C   UNL     1       0.923   3.977  20.244  0.00  0.00    +0.000 A 
ATOM      8  C   UNL     1       1.193   2.841  19.477  0.00  0.00    +0.000 A 
ATOM      9  C   UNL     1       2.144   2.901  18.456  0.00  0.00    +0.000 A 
BRANCH   9  10
ATOM     10  O   UNL     1       2.410   1.788  17.709  0.00  0.00    +0.000 OA
ATOM     11  H   UNL     1       3.307   1.858  17.339  0.00  0.00    +0.000 HD
ENDBRANCH   9  10
ENDBRANCH   2   3
BRANCH   1  14
ATOM     12  C   UNL     1       7.028   4.528  16.412  0.00  0.00    +0.000 C 
ATOM     13  O   UNL     1       7.827   4.621  15.480  0.00  0.00    +0.000 OA
ATOM     14  N   UNL     1       5.895   3.755  16.291  0.00  0.00    +0.000 N 
ATOM     15  H   UNL     1       5.734   3.283  15.407  0.00  0.00    +0.000 HD
BRANCH  12  16
ATOM     16  C   UNL     1       7.228   5.251  17.727  0.00  0.00    +0.000 C 
BRANCH  16  18
ATOM     17  N   UNL     1       7.581   7.963  17.219  0.00  0.00    +0.000 NA
ATOM     18  C   UNL     1       7.421   6.733  17.449  0.00  0.00    +0.000 C 
ENDBRANCH  16  18
ENDBRANCH  12  16
ENDBRANCH   1  14
TORSDOF 5
ENDMDL
MODEL 2
REMARK VINA RESULT:      -6.1      1.113      1.153
REMARK  Name = 
REMARK  5 active torsions:
REMARK  status: ('A' for Active; 'I' for Inactive)
REMARK    1  A    between atoms: C_2  and  C_3
REMARK    2  A    between atoms: C_3  and  C_4
REMARK    3  A    between atoms: N_6  and  N_7
REMARK    4  A    between atoms: C_8  and  C_9
REMARK    5  A    between atoms: C_15  and  O_16
REMARK                            x       y       z     vdW  Elec       q    Type
REMARK                         _______ _______ _______ _____ _____    ______ ____
ROOT
ATOM      1  N   UNL     1       4.632   4.244  16.982  0.00  0.00    +0.000 NA
ATOM      2  C   UNL     1       4.356   3.447  17.966  0.00  0.00    +0.000 C 
ENDROOT
BRANCH   2   3
ATOM      3  C   UNL     1       3.154   3.685  18.794  0.00  0.00    +0.000 A 
ATOM      4  C   UNL     1       2.923   4.971  19.305  0.00  0.00    +0.000 A 
ATOM      5  C   UNL     1       1.806   5.208  20.099  0.00  0.00    +0.000 A 
ATOM      6 BR   UNL     1       1.509   6.940  20.796  0.00  0.00    +0.000 Br
ATOM      7  C   UNL     1       0.911   4.179  20.386  0.00  0.00    +0.000 A 
ATOM      8  C   UNL     1       1.136   2.897  19.876  0.00  0.00    +0.000 A 
ATOM      9  C   UNL     1       2.257   2.652  19.081  0.00  0.00    +0.000 A 
BRANCH   9  10
ATOM     10  O   UNL     1       2.477   1.397  18.585  0.00  0.00    +0.000 OA
ATOM     11  H   UNL     1       2.759   1.464  17.656  0.00  0.00    +0.000 HD
ENDBRANCH   9  10
ENDBRANCH   2   3
BRANCH   1  14
ATOM     12  C   UNL     1       6.854   4.796  16.348  0.00  0.00    +0.000 C 
ATOM     13  O   UNL     1       7.871   4.543  15.703  0.00  0.00    +0.000 OA
ATOM     14  N   UNL     1       5.753   3.972  16.274  0.00  0.00    +0.000 N 
ATOM     15  H   UNL     1       5.803   3.166  15.660  0.00  0.00    +0.000 HD
BRANCH  12  16
ATOM     16  C   UNL     1       6.742   6.012  17.242  0.00  0.00    +0.000 C 
BRANCH  16  18
ATOM     17  N   UNL     1       7.887   5.427  19.708  0.00  0.00    +0.000 NA
ATOM     18  C   UNL     1       7.367   5.692  18.589  0.00  0.00    +0.000 C 
ENDBRANCH  16  18
ENDBRANCH  12  16
ENDBRANCH   1  14
TORSDOF 5
ENDMDL
MODEL 3
REMARK VINA RESULT:      -6.1      3.875      5.625
REMARK  Name = 
REMARK  5 active torsions:
REMARK  status: ('A' for Active; 'I' for Inactive)
REMARK    1  A    between atoms: C_2  and  C_3
REMARK    2  A    between atoms: C_3  and  C_4
REMARK    3  A    between atoms: N_6  and  N_7
REMARK    4  A    between atoms: C_8  and  C_9
REMARK    5  A    between atoms: C_15  and  O_16
REMARK                            x       y       z     vdW  Elec       q    Type
REMARK                         _______ _______ _______ _____ _____    ______ ____
ROOT
ATOM      1  N   UNL     1       5.955   4.072  13.685  0.00  0.00    +0.000 NA
ATOM      2  C   UNL     1       5.937   3.681  14.920  0.00  0.00    +0.000 C 
ENDROOT
BRANCH   2   3
ATOM      3  C   UNL     1       5.546   4.626  15.988  0.00  0.00    +0.000 A 
ATOM      4  C   UNL     1       4.342   4.415  16.675  0.00  0.00    +0.000 A 
ATOM      5  C   UNL     1       3.951   5.303  17.672  0.00  0.00    +0.000 A 
ATOM      6 BR   UNL     1       2.319   5.022  18.583  0.00  0.00    +0.000 Br
ATOM      7  C   UNL     1       4.750   6.397  17.997  0.00  0.00    +0.000 A 
ATOM      8  C   UNL     1       5.953   6.608  17.318  0.00  0.00    +0.000 A 
ATOM      9  C   UNL     1       6.349   5.722  16.315  0.00  0.00    +0.000 A 
BRANCH   9  10
ATOM     10  O   UNL     1       7.525   5.931  15.648  0.00  0.00    +0.000 OA
ATOM     11  H   UNL     1       7.731   6.882  15.652  0.00  0.00    +0.000 HD
ENDBRANCH   9  10
ENDBRANCH   2   3
BRANCH   1  14
ATOM     12  C   UNL     1       5.443   2.698  11.815  0.00  0.00    +0.000 C 
ATOM     13  O   UNL     1       5.793   1.867  10.977  0.00  0.00    +0.000 OA
ATOM     14  N   UNL     1       6.332   3.157  12.761  0.00  0.00    +0.000 N 
ATOM     15  H   UNL     1       7.273   2.777  12.753  0.00  0.00    +0.000 HD
BRANCH  12  16
ATOM     16  C   UNL     1       4.036   3.252  11.870  0.00  0.00    +0.000 C 
BRANCH  16  18
ATOM     17  N   UNL     1       3.161   3.749   9.277  0.00  0.00    +0.000 NA
ATOM     18  C   UNL     1       3.558   3.524  10.453  0.00  0.00    +0.000 C 
ENDBRANCH  16  18
ENDBRANCH  12  16
ENDBRANCH   1  14
TORSDOF 5
ENDMDL
MODEL 4
REMARK VINA RESULT:      -6.0      2.136      2.886
REMARK  Name = 
REMARK  5 active torsions:
REMARK  status: ('A' for Active; 'I' for Inactive)
REMARK    1  A    between atoms: C_2  and  C_3
REMARK    2  A    between atoms: C_3  and  C_4
REMARK    3  A    between atoms: N_6  and  N_7
REMARK    4  A    between atoms: C_8  and  C_9
REMARK    5  A    between atoms: C_15  and  O_16
REMARK                            x       y       z     vdW  Elec       q    Type
REMARK                         _______ _______ _______ _____ _____    ______ ____
ROOT
ATOM      1  N   UNL     1       5.651   4.686  17.247  0.00  0.00    +0.000 NA
ATOM      2  C   UNL     1       5.659   4.826  18.535  0.00  0.00    +0.000 C 
ENDROOT
BRANCH   2   3
ATOM      3  C   UNL     1       4.443   4.518  19.319  0.00  0.00    +0.000 A 
ATOM      4  C   UNL     1       3.563   5.559  19.646  0.00  0.00    +0.000 A 
ATOM      5  C   UNL     1       2.423   5.290  20.396  0.00  0.00    +0.000 A 
ATOM      6 BR   UNL     1       1.249   6.701  20.847  0.00  0.00    +0.000 Br
ATOM      7  C   UNL     1       2.147   3.992  20.821  0.00  0.00    +0.000 A 
ATOM      8  C   UNL     1       3.020   2.951  20.493  0.00  0.00    +0.000 A 
ATOM      9  C   UNL     1       4.166   3.215  19.743  0.00  0.00    +0.000 A 
BRANCH   9  10
ATOM     10  O   UNL     1       5.021   2.196  19.426  0.00  0.00    +0.000 OA
ATOM     11  H   UNL     1       5.918   2.425  19.728  0.00  0.00    +0.000 HD
ENDBRANCH   9  10
ENDBRANCH   2   3
BRANCH   1  14
ATOM     12  C   UNL     1       6.873   4.908  15.221  0.00  0.00    +0.000 C 
ATOM     13  O   UNL     1       7.915   5.193  14.632  0.00  0.00    +0.000 OA
ATOM     14  N   UNL     1       6.795   4.996  16.594  0.00  0.00    +0.000 N 
ATOM     15  H   UNL     1       7.627   5.285  17.099  0.00  0.00    +0.000 HD
BRANCH  12  16
ATOM     16  C   UNL     1       5.632   4.440  14.493  0.00  0.00    +0.000 C 
BRANCH  16  18
ATOM     17  N   UNL     1       6.392   3.209  12.117  0.00  0.00    +0.000 NA
ATOM     18  C   UNL     1       6.046   3.767  13.195  0.00  0.00    +0.000 C 
ENDBRANCH  16  18
ENDBRANCH  12  16
ENDBRANCH   1  14
TORSDOF 5
ENDMDL
MODEL 5
REMARK VINA RESULT:      -5.9      1.703      2.160
REMARK  Name = 
REMARK  5 active torsions:
REMARK  status: ('A' for Active; 'I' for Inactive)
REMARK    1  A    between atoms: C_2  and  C_3
REMARK    2  A    between atoms: C_3  and  C_4
REMARK    3  A    between atoms: N_6  and  N_7
REMARK    4  A    between atoms: C_8  and  C_9
REMARK    5  A    between atoms: C_15  and  O_16
REMARK                            x       y       z     vdW  Elec       q    Type
REMARK                         _______ _______ _______ _____ _____    ______ ____
ROOT
ATOM      1  N   UNL     1       5.510   4.668  18.797  0.00  0.00    +0.000 NA
ATOM      2  C   UNL     1       4.667   3.716  19.045  0.00  0.00    +0.000 C 
ENDROOT
BRANCH   2   3
ATOM      3  C   UNL     1       3.312   4.041  19.540  0.00  0.00    +0.000 A 
ATOM      4  C   UNL     1       3.028   5.357  19.932  0.00  0.00    +0.000 A 
ATOM      5  C   UNL     1       1.763   5.676  20.415  0.00  0.00    +0.000 A 
ATOM      6 BR   UNL     1       1.392   7.449  20.956  0.00  0.00    +0.000 Br
ATOM      7  C   UNL     1       0.774   4.698  20.507  0.00  0.00    +0.000 A 
ATOM      8  C   UNL     1       1.053   3.386  20.114  0.00  0.00    +0.000 A 
ATOM      9  C   UNL     1       2.321   3.059  19.631  0.00  0.00    +0.000 A 
BRANCH   9  10
ATOM     10  O   UNL     1       2.593   1.775  19.250  0.00  0.00    +0.000 OA
ATOM     11  H   UNL     1       1.791   1.233  19.353  0.00  0.00    +0.000 HD
ENDBRANCH   9  10
ENDBRANCH   2   3
BRANCH   1  14
ATOM     12  C   UNL     1       7.107   4.500  17.046  0.00  0.00    +0.000 C 
ATOM     13  O   UNL     1       8.224   4.163  16.652  0.00  0.00    +0.000 OA
ATOM     14  N   UNL     1       6.736   4.298  18.357  0.00  0.00    +0.000 N 
ATOM     15  H   UNL     1       7.402   3.849  18.976  0.00  0.00    +0.000 HD
BRANCH  12  16
ATOM     16  C   UNL     1       6.083   5.138  16.133  0.00  0.00    +0.000 C 
BRANCH  16  18
ATOM     17  N   UNL     1       6.119   3.826  13.681  0.00  0.00    +0.000 NA
ATOM     18  C   UNL     1       6.103   4.421  14.793  0.00  0.00    +0.000 C 
ENDBRANCH  16  18
ENDBRANCH  12  16
ENDBRANCH   1  14
TORSDOF 5
ENDMDL
MODEL 6
REMARK VINA RESULT:      -5.9      3.528      6.184
REMARK  Name = 
REMARK  5 active torsions:
REMARK  status: ('A' for Active; 'I' for Inactive)
REMARK    1  A    between atoms: C_2  and  C_3
REMARK    2  A    between atoms: C_3  and  C_4
REMARK    3  A    between atoms: N_6  and  N_7
REMARK    4  A    between atoms: C_8  and  C_9
REMARK    5  A    between atoms: C_15  and  O_16
REMARK                            x       y       z     vdW  Elec       q    Type
REMARK                         _______ _______ _______ _____ _____    ______ ____
ROOT
ATOM      1  N   UNL     1       3.356   2.712  17.996  0.00  0.00    +0.000 NA
ATOM      2  C   UNL     1       3.481   3.590  17.053  0.00  0.00    +0.000 C 
ENDROOT
BRANCH   2   3
ATOM      3  C   UNL     1       4.749   4.338  16.903  0.00  0.00    +0.000 A 
ATOM      4  C   UNL     1       5.387   4.352  15.654  0.00  0.00    +0.000 A 
ATOM      5  C   UNL     1       6.588   5.036  15.500  0.00  0.00    +0.000 A 
ATOM      6 BR   UNL     1       7.449   5.039  13.817  0.00  0.00    +0.000 Br
ATOM      7  C   UNL     1       7.159   5.712  16.576  0.00  0.00    +0.000 A 
ATOM      8  C   UNL     1       6.525   5.703  17.821  0.00  0.00    +0.000 A 
ATOM      9  C   UNL     1       5.321   5.016  17.983  0.00  0.00    +0.000 A 
BRANCH   9  10
ATOM     10  O   UNL     1       4.703   5.005  19.203  0.00  0.00    +0.000 OA
ATOM     11  H   UNL     1       5.016   5.763  19.727  0.00  0.00    +0.000 HD
ENDBRANCH   9  10
ENDBRANCH   2   3
BRANCH   1  14
ATOM     12  C   UNL     1       1.165   2.548  18.901  0.00  0.00    +0.000 C 
ATOM     13  O   UNL     1       0.083   1.964  18.972  0.00  0.00    +0.000 OA
ATOM     14  N   UNL     1       2.165   2.074  18.081  0.00  0.00    +0.000 N 
ATOM     15  H   UNL     1       1.986   1.225  17.555  0.00  0.00    +0.000 HD
BRANCH  12  16
ATOM     16  C   UNL     1       1.467   3.795  19.702  0.00  0.00    +0.000 C 
BRANCH  16  18
ATOM     17  N   UNL     1       2.234   3.053  22.270  0.00  0.00    +0.000 NA
ATOM     18  C   UNL     1       1.886   3.389  21.105  0.00  0.00    +0.000 C 
ENDBRANCH  16  18
ENDBRANCH  12  16
ENDBRANCH   1  14
TORSDOF 5
ENDMDL
MODEL 7
REMARK VINA RESULT:      -5.9      1.195      1.238
REMARK  Name = 
REMARK  5 active torsions:
REMARK  status: ('A' for Active; 'I' for Inactive)
REMARK    1  A    between atoms: C_2  and  C_3
REMARK    2  A    between atoms: C_3  and  C_4
REMARK    3  A    between atoms: N_6  and  N_7
REMARK    4  A    between atoms: C_8  and  C_9
REMARK    5  A    between atoms: C_15  and  O_16
REMARK                            x       y       z     vdW  Elec       q    Type
REMARK                         _______ _______ _______ _____ _____    ______ ____
ROOT
ATOM      1  N   UNL     1       5.633   4.283  18.973  0.00  0.00    +0.000 NA
ATOM      2  C   UNL     1       4.487   3.887  18.516  0.00  0.00    +0.000 C 
ENDROOT
BRANCH   2   3
ATOM      3  C   UNL     1       3.247   4.204  19.258  0.00  0.00    +0.000 A 
ATOM      4  C   UNL     1       3.005   5.530  19.643  0.00  0.00    +0.000 A 
ATOM      5  C   UNL     1       1.851   5.843  20.354  0.00  0.00    +0.000 A 
ATOM      6 BR   UNL     1       1.537   7.631  20.882  0.00  0.00    +0.000 Br
ATOM      7  C   UNL     1       0.932   4.849  20.684  0.00  0.00    +0.000 A 
ATOM      8  C   UNL     1       1.169   3.526  20.299  0.00  0.00    +0.000 A 
ATOM      9  C   UNL     1       2.326   3.206  19.587  0.00  0.00    +0.000 A 
BRANCH   9  10
ATOM     10  O   UNL     1       2.558   1.911  19.215  0.00  0.00    +0.000 OA
ATOM     11  H   UNL     1       2.383   1.323  19.970  0.00  0.00    +0.000 HD
ENDBRANCH   9  10
ENDBRANCH   2   3
BRANCH   1  14
ATOM     12  C   UNL     1       7.150   4.739  17.203  0.00  0.00    +0.000 C 
ATOM     13  O   UNL     1       8.146   4.431  16.548  0.00  0.00    +0.000 OA
ATOM     14  N   UNL     1       6.726   3.949  18.248  0.00  0.00    +0.000 N 
ATOM     15  H   UNL     1       7.249   3.102  18.447  0.00  0.00    +0.000 HD
BRANCH  12  16
ATOM     16  C   UNL     1       6.334   5.977  16.902  0.00  0.00    +0.000 C 
BRANCH  16  18
ATOM     17  N   UNL     1       7.872   8.227  17.454  0.00  0.00    +0.000 NA
ATOM     18  C   UNL     1       7.174   7.206  17.203  0.00  0.00    +0.000 C 
ENDBRANCH  16  18
ENDBRANCH  12  16
ENDBRANCH   1  14
TORSDOF 5
ENDMDL
MODEL 8
REMARK VINA RESULT:      -5.9      3.512      6.243
REMARK  Name = 
REMARK  5 active torsions:
REMARK  status: ('A' for Active; 'I' for Inactive)
REMARK    1  A    between atoms: C_2  and  C_3
REMARK    2  A    between atoms: C_3  and  C_4
REMARK    3  A    between atoms: N_6  and  N_7
REMARK    4  A    between atoms: C_8  and  C_9
REMARK    5  A    between atoms: C_15  and  O_16
REMARK                            x       y       z     vdW  Elec       q    Type
REMARK                         _______ _______ _______ _____ _____    ______ ____
ROOT
ATOM      1  N   UNL     1       3.995   3.335  19.822  0.00  0.00    +0.000 NA
ATOM      2  C   UNL     1       4.365   4.507  19.414  0.00  0.00    +0.000 C 
ENDROOT
BRANCH   2   3
ATOM      3  C   UNL     1       5.403   4.631  18.367  0.00  0.00    +0.000 A 
ATOM      4  C   UNL     1       5.067   4.334  17.038  0.00  0.00    +0.000 A 
ATOM      5  C   UNL     1       6.034   4.430  16.044  0.00  0.00    +0.000 A 
ATOM      6 BR   UNL     1       5.579   4.014  14.257  0.00  0.00    +0.000 Br
ATOM      7  C   UNL     1       7.334   4.824  16.357  0.00  0.00    +0.000 A 
ATOM      8  C   UNL     1       7.671   5.124  17.680  0.00  0.00    +0.000 A 
ATOM      9  C   UNL     1       6.705   5.027  18.683  0.00  0.00    +0.000 A 
BRANCH   9  10
ATOM     10  O   UNL     1       7.037   5.318  19.977  0.00  0.00    +0.000 OA
ATOM     11  H   UNL     1       7.701   4.678  20.289  0.00  0.00    +0.000 HD
ENDBRANCH   9  10
ENDBRANCH   2   3
BRANCH   1  14
ATOM     12  C   UNL     1       1.838   2.678  20.571  0.00  0.00    +0.000 C 
ATOM     13  O   UNL     1       0.981   2.646  21.454  0.00  0.00    +0.000 OA
ATOM     14  N   UNL     1       3.048   3.297  20.789  0.00  0.00    +0.000 N 
ATOM     15  H   UNL     1       3.201   3.736  21.691  0.00  0.00    +0.000 HD
BRANCH  12  16
ATOM     16  C   UNL     1       1.618   2.062  19.206  0.00  0.00    +0.000 C 
BRANCH  16  18
ATOM     17  N   UNL     1       1.124   4.090  17.369  0.00  0.00    +0.000 NA
ATOM     18  C   UNL     1       1.348   3.170  18.202  0.00  0.00    +0.000 C 
ENDBRANCH  16  18
ENDBRANCH  12  16
ENDBRANCH   1  14
TORSDOF 5
ENDMDL
MODEL 9
REMARK VINA RESULT:      -5.9      2.173      3.035
REMARK  Name = 
REMARK  5 active torsions:
REMARK  status: ('A' for Active; 'I' for Inactive)
REMARK    1  A    between atoms: C_2  and  C_3
REMARK    2  A    between atoms: C_3  and  C_4
REMARK    3  A    between atoms: N_6  and  N_7
REMARK    4  A    between atoms: C_8  and  C_9
REMARK    5  A    between atoms: C_15  and  O_16
REMARK                            x       y       z     vdW  Elec       q    Type
REMARK                         _______ _______ _______ _____ _____    ______ ____
ROOT
ATOM      1  N   UNL     1       6.296   5.484  16.985  0.00  0.00    +0.000 NA
ATOM      2  C   UNL     1       5.109   6.003  16.986  0.00  0.00    +0.000 C 
ENDROOT
BRANCH   2   3
ATOM      3  C   UNL     1       4.148   5.647  18.052  0.00  0.00    +0.000 A 
ATOM      4  C   UNL     1       3.417   6.668  18.677  0.00  0.00    +0.000 A 
ATOM      5  C   UNL     1       2.521   6.352  19.693  0.00  0.00    +0.000 A 
ATOM      6 BR   UNL     1       1.549   7.734  20.541  0.00  0.00    +0.000 Br
ATOM      7  C   UNL     1       2.340   5.029  20.091  0.00  0.00    +0.000 A 
ATOM      8  C   UNL     1       3.064   4.009  19.467  0.00  0.00    +0.000 A 
ATOM      9  C   UNL     1       3.967   4.319  18.450  0.00  0.00    +0.000 A 
BRANCH   9  10
ATOM     10  O   UNL     1       4.678   3.321  17.843  0.00  0.00    +0.000 OA
ATOM     11  H   UNL     1       4.298   2.460  18.092  0.00  0.00    +0.000 HD
ENDBRANCH   9  10
ENDBRANCH   2   3
BRANCH   1  14
ATOM     12  C   UNL     1       7.150   5.133  14.795  0.00  0.00    +0.000 C 
ATOM     13  O   UNL     1       7.899   5.469  13.878  0.00  0.00    +0.000 OA
ATOM     14  N   UNL     1       7.119   5.847  15.973  0.00  0.00    +0.000 N 
ATOM     15  H   UNL     1       7.742   6.643  16.062  0.00  0.00    +0.000 HD
BRANCH  12  16
ATOM     16  C   UNL     1       6.238   3.929  14.698  0.00  0.00    +0.000 C 
BRANCH  16  18
ATOM     17  N   UNL     1       5.878   3.285  12.016  0.00  0.00    +0.000 NA
ATOM     18  C   UNL     1       6.041   3.578  13.233  0.00  0.00    +0.000 C 
ENDBRANCH  16  18
ENDBRANCH  12  16
ENDBRANCH   1  14
TORSDOF 5
ENDMDL
