MODEL 1
REMARK VINA RESULT:      -8.5      0.000      0.000
REMARK  Name = 
REMARK  7 active torsions:
REMARK  status: ('A' for Active; 'I' for Inactive)
REMARK    1  A    between atoms: C_1  and  O_2
REMARK    2  A    between atoms: O_2  and  C_3
REMARK    3  A    between atoms: C_8  and  N_9
REMARK    4  A    between atoms: C_10  and  C_11
REMARK    5  A    between atoms: C_13  and  C_14
REMARK    6  A    between atoms: N_27  and  C_28
REMARK    7  A    between atoms: C_30  and  C_31
REMARK                            x       y       z     vdW  Elec       q    Type
REMARK                         _______ _______ _______ _____ _____    ______ ____
ROOT
ATOM      1  N   UNL     1       0.143  10.763  20.761  0.00  0.00    +0.000 N 
ATOM      2  C   UNL     1       0.761  10.424  19.561  0.00  0.00    +0.000 A 
ATOM      3  C   UNL     1       1.033  11.384  18.430  0.00  0.00    +0.000 C 
ATOM      4  C   UNL     1       1.291   9.129  19.347  0.00  0.00    +0.000 A 
ATOM      5  C   UNL     1       1.341   8.189  20.342  0.00  0.00    +0.000 A 
ATOM      6  C   UNL     1       0.743   8.547  21.544  0.00  0.00    +0.000 A 
ATOM      7  C   UNL     1       0.122   9.805  21.762  0.00  0.00    +0.000 A 
ATOM      8  C   UNL     1      -0.510   9.991  23.131  0.00  0.00    +0.000 C 
ENDROOT
BRANCH   5   9
ATOM      9  C   UNL     1       1.930   6.842  20.221  0.00  0.00    +0.000 C 
ATOM     10  C   UNL     1       2.646   6.110  19.326  0.00  0.00    +0.000 C 
ATOM     11  S   UNL     1       3.465   4.744  20.186  0.00  0.00    +0.000 S 
ATOM     12  C   UNL     1       4.757   4.926  19.005  0.00  0.00    +0.000 A 
ATOM     13  C   UNL     1       6.103   5.004  19.250  0.00  0.00    +0.000 A 
ATOM     14  C   UNL     1       6.967   5.195  18.180  0.00  0.00    +0.000 A 
ATOM     15  C   UNL     1       6.483   5.077  16.875  0.00  0.00    +0.000 A 
ATOM     16  C   UNL     1       7.406   4.775  15.866  0.00  0.00    +0.000 A 
ATOM     17  C   UNL     1       6.966   4.360  14.619  0.00  0.00    +0.000 A 
ATOM     18  C   UNL     1       5.602   4.353  14.346  0.00  0.00    +0.000 A 
ATOM     19  C   UNL     1       4.668   4.803  15.306  0.00  0.00    +0.000 A 
ATOM     20  C   UNL     1       5.075   5.156  16.624  0.00  0.00    +0.000 A 
ATOM     21  C   UNL     1       4.267   5.367  17.769  0.00  0.00    +0.000 A 
ATOM     22  N   UNL     1       3.132   6.299  17.988  0.00  0.00    +0.000 N 
ATOM     23  C   UNL     1       3.646   7.641  17.645  0.00  0.00    +0.000 C 
ENDBRANCH   5   9
BRANCH   1  29
ATOM     24  C   UNL     1       0.238  13.239  21.407  0.00  0.00    +0.000 A 
ATOM     25  C   UNL     1      -0.443  14.457  21.610  0.00  0.00    +0.000 A 
ATOM     26  C   UNL     1      -1.796  14.588  21.299  0.00  0.00    +0.000 A 
ATOM     27  C   UNL     1      -2.500  13.495  20.823  0.00  0.00    +0.000 A 
ATOM     28  C   UNL     1      -1.867  12.251  20.711  0.00  0.00    +0.000 A 
ATOM     29  C   UNL     1      -0.490  12.103  20.970  0.00  0.00    +0.000 A 
BRANCH  24  31
ATOM     30  C   UNL     1       2.462  13.931  20.797  0.00  0.00    +0.000 C 
ATOM     31  O   UNL     1       1.592  13.121  21.596  0.00  0.00    +0.000 OA
ENDBRANCH  24  31
ENDBRANCH   1  29
TORSDOF 3
ENDMDL
MODEL 2
REMARK VINA RESULT:      -8.5      0.368      1.597
REMARK  Name = 
REMARK  7 active torsions:
REMARK  status: ('A' for Active; 'I' for Inactive)
REMARK    1  A    between atoms: C_1  and  O_2
REMARK    2  A    between atoms: O_2  and  C_3
REMARK    3  A    between atoms: C_8  and  N_9
REMARK    4  A    between atoms: C_10  and  C_11
REMARK    5  A    between atoms: C_13  and  C_14
REMARK    6  A    between atoms: N_27  and  C_28
REMARK    7  A    between atoms: C_30  and  C_31
REMARK                            x       y       z     vdW  Elec       q    Type
REMARK                         _______ _______ _______ _____ _____    ______ ____
ROOT
ATOM      1  N   UNL     1       0.298  10.431  20.660  0.00  0.00    +0.000 N 
ATOM      2  C   UNL     1       0.319   9.549  21.737  0.00  0.00    +0.000 A 
ATOM      3  C   UNL     1      -0.411   9.762  23.040  0.00  0.00    +0.000 C 
ATOM      4  C   UNL     1       0.967   8.294  21.647  0.00  0.00    +0.000 A 
ATOM      5  C   UNL     1       1.492   7.828  20.471  0.00  0.00    +0.000 A 
ATOM      6  C   UNL     1       1.444   8.707  19.396  0.00  0.00    +0.000 A 
ATOM      7  C   UNL     1       0.881  10.008  19.477  0.00  0.00    +0.000 A 
ATOM      8  C   UNL     1       0.960  10.831  18.203  0.00  0.00    +0.000 C 
ENDROOT
BRANCH   5   9
ATOM      9  C   UNL     1       2.128   6.511  20.277  0.00  0.00    +0.000 C 
ATOM     10  C   UNL     1       2.826   5.838  19.324  0.00  0.00    +0.000 C 
ATOM     11  S   UNL     1       3.742   4.482  20.097  0.00  0.00    +0.000 S 
ATOM     12  C   UNL     1       4.964   4.753  18.860  0.00  0.00    +0.000 A 
ATOM     13  C   UNL     1       6.316   4.880  19.039  0.00  0.00    +0.000 A 
ATOM     14  C   UNL     1       7.115   5.139  17.934  0.00  0.00    +0.000 A 
ATOM     15  C   UNL     1       6.570   5.040  16.651  0.00  0.00    +0.000 A 
ATOM     16  C   UNL     1       7.452   4.809  15.588  0.00  0.00    +0.000 A 
ATOM     17  C   UNL     1       6.965   4.413  14.352  0.00  0.00    +0.000 A 
ATOM     18  C   UNL     1       5.590   4.357  14.148  0.00  0.00    +0.000 A 
ATOM     19  C   UNL     1       4.689   4.739  15.167  0.00  0.00    +0.000 A 
ATOM     20  C   UNL     1       5.149   5.068  16.474  0.00  0.00    +0.000 A 
ATOM     21  C   UNL     1       4.393   5.211  17.664  0.00  0.00    +0.000 A 
ATOM     22  N   UNL     1       3.234   6.087  17.969  0.00  0.00    +0.000 N 
ATOM     23  C   UNL     1       3.675   7.459  17.645  0.00  0.00    +0.000 C 
ENDBRANCH   5   9
BRANCH   1  29
ATOM     24  C   UNL     1       0.415  12.937  21.175  0.00  0.00    +0.000 A 
ATOM     25  C   UNL     1      -0.250  14.176  21.281  0.00  0.00    +0.000 A 
ATOM     26  C   UNL     1      -1.585  14.314  20.904  0.00  0.00    +0.000 A 
ATOM     27  C   UNL     1      -2.289  13.209  20.457  0.00  0.00    +0.000 A 
ATOM     28  C   UNL     1      -1.678  11.949  20.441  0.00  0.00    +0.000 A 
ATOM     29  C   UNL     1      -0.316  11.792  20.768  0.00  0.00    +0.000 A 
BRANCH  24  31
ATOM     30  C   UNL     1       2.677  13.548  20.622  0.00  0.00    +0.000 C 
ATOM     31  O   UNL     1       1.756  12.805  21.429  0.00  0.00    +0.000 OA
ENDBRANCH  24  31
ENDBRANCH   1  29
TORSDOF 3
ENDMDL
MODEL 3
REMARK VINA RESULT:      -8.3      0.985      1.615
REMARK  Name = 
REMARK  7 active torsions:
REMARK  status: ('A' for Active; 'I' for Inactive)
REMARK    1  A    between atoms: C_1  and  O_2
REMARK    2  A    between atoms: O_2  and  C_3
REMARK    3  A    between atoms: C_8  and  N_9
REMARK    4  A    between atoms: C_10  and  C_11
REMARK    5  A    between atoms: C_13  and  C_14
REMARK    6  A    between atoms: N_27  and  C_28
REMARK    7  A    between atoms: C_30  and  C_31
REMARK                            x       y       z     vdW  Elec       q    Type
REMARK                         _______ _______ _______ _____ _____    ______ ____
ROOT
ATOM      1  N   UNL     1       0.198  10.792  20.707  0.00  0.00    +0.000 N 
ATOM      2  C   UNL     1       0.916  10.486  19.555  0.00  0.00    +0.000 A 
ATOM      3  C   UNL     1       1.306  11.482  18.492  0.00  0.00    +0.000 C 
ATOM      4  C   UNL     1       1.440   9.189  19.337  0.00  0.00    +0.000 A 
ATOM      5  C   UNL     1       1.382   8.210  20.294  0.00  0.00    +0.000 A 
ATOM      6  C   UNL     1       0.685   8.535  21.451  0.00  0.00    +0.000 A 
ATOM      7  C   UNL     1       0.070   9.797  21.663  0.00  0.00    +0.000 A 
ATOM      8  C   UNL     1      -0.680   9.943  22.976  0.00  0.00    +0.000 C 
ENDROOT
BRANCH   5   9
ATOM      9  C   UNL     1       1.955   6.857  20.172  0.00  0.00    +0.000 C 
ATOM     10  C   UNL     1       2.666   6.119  19.279  0.00  0.00    +0.000 C 
ATOM     11  S   UNL     1       3.465   4.741  20.138  0.00  0.00    +0.000 S 
ATOM     12  C   UNL     1       4.763   4.909  18.962  0.00  0.00    +0.000 A 
ATOM     13  C   UNL     1       6.109   4.970  19.212  0.00  0.00    +0.000 A 
ATOM     14  C   UNL     1       6.979   5.154  18.146  0.00  0.00    +0.000 A 
ATOM     15  C   UNL     1       6.499   5.044  16.838  0.00  0.00    +0.000 A 
ATOM     16  C   UNL     1       7.422   4.734  15.832  0.00  0.00    +0.000 A 
ATOM     17  C   UNL     1       6.982   4.327  14.582  0.00  0.00    +0.000 A 
ATOM     18  C   UNL     1       5.618   4.337  14.305  0.00  0.00    +0.000 A 
ATOM     19  C   UNL     1       4.686   4.796  15.262  0.00  0.00    +0.000 A 
ATOM     20  C   UNL     1       5.092   5.141  16.582  0.00  0.00    +0.000 A 
ATOM     21  C   UNL     1       4.283   5.360  17.725  0.00  0.00    +0.000 A 
ATOM     22  N   UNL     1       3.158   6.305  17.942  0.00  0.00    +0.000 N 
ATOM     23  C   UNL     1       3.690   7.641  17.604  0.00  0.00    +0.000 C 
ENDBRANCH   5   9
BRANCH   1  29
ATOM     24  C   UNL     1      -1.674  12.501  20.345  0.00  0.00    +0.000 A 
ATOM     25  C   UNL     1      -2.175  13.801  20.563  0.00  0.00    +0.000 A 
ATOM     26  C   UNL     1      -1.516  14.699  21.400  0.00  0.00    +0.000 A 
ATOM     27  C   UNL     1      -0.323  14.330  21.998  0.00  0.00    +0.000 A 
ATOM     28  C   UNL     1       0.245  13.082  21.715  0.00  0.00    +0.000 A 
ATOM     29  C   UNL     1      -0.427  12.137  20.913  0.00  0.00    +0.000 A 
BRANCH  24  31
ATOM     30  C   UNL     1      -2.450  11.731  18.200  0.00  0.00    +0.000 C 
ATOM     31  O   UNL     1      -2.366  11.565  19.620  0.00  0.00    +0.000 OA
ENDBRANCH  24  31
ENDBRANCH   1  29
TORSDOF 3
ENDMDL
MODEL 4
REMARK VINA RESULT:      -8.1      0.989      2.245
REMARK  Name = 
REMARK  7 active torsions:
REMARK  status: ('A' for Active; 'I' for Inactive)
REMARK    1  A    between atoms: C_1  and  O_2
REMARK    2  A    between atoms: O_2  and  C_3
REMARK    3  A    between atoms: C_8  and  N_9
REMARK    4  A    between atoms: C_10  and  C_11
REMARK    5  A    between atoms: C_13  and  C_14
REMARK    6  A    between atoms: N_27  and  C_28
REMARK    7  A    between atoms: C_30  and  C_31
REMARK                            x       y       z     vdW  Elec       q    Type
REMARK                         _______ _______ _______ _____ _____    ______ ____
ROOT
ATOM      1  N   UNL     1       0.392  10.826  20.645  0.00  0.00    +0.000 N 
ATOM      2  C   UNL     1       0.238   9.914  21.685  0.00  0.00    +0.000 A 
ATOM      3  C   UNL     1      -0.586  10.151  22.926  0.00  0.00    +0.000 C 
ATOM      4  C   UNL     1       0.783   8.610  21.605  0.00  0.00    +0.000 A 
ATOM      5  C   UNL     1       1.371   8.135  20.462  0.00  0.00    +0.000 A 
ATOM      6  C   UNL     1       1.496   9.047  19.421  0.00  0.00    +0.000 A 
ATOM      7  C   UNL     1       1.042  10.389  19.502  0.00  0.00    +0.000 A 
ATOM      8  C   UNL     1       1.306  11.241  18.272  0.00  0.00    +0.000 C 
ENDROOT
BRANCH   5   9
ATOM      9  C   UNL     1       1.907   6.773  20.275  0.00  0.00    +0.000 C 
ATOM     10  C   UNL     1       2.607   6.063  19.351  0.00  0.00    +0.000 C 
ATOM     11  S   UNL     1       3.357   4.620  20.145  0.00  0.00    +0.000 S 
ATOM     12  C   UNL     1       4.673   4.812  18.991  0.00  0.00    +0.000 A 
ATOM     13  C   UNL     1       6.016   4.822  19.256  0.00  0.00    +0.000 A 
ATOM     14  C   UNL     1       6.903   5.035  18.209  0.00  0.00    +0.000 A 
ATOM     15  C   UNL     1       6.434   5.007  16.893  0.00  0.00    +0.000 A 
ATOM     16  C   UNL     1       7.358   4.723  15.881  0.00  0.00    +0.000 A 
ATOM     17  C   UNL     1       6.920   4.394  14.608  0.00  0.00    +0.000 A 
ATOM     18  C   UNL     1       5.560   4.457  14.319  0.00  0.00    +0.000 A 
ATOM     19  C   UNL     1       4.632   4.893  15.290  0.00  0.00    +0.000 A 
ATOM     20  C   UNL     1       5.033   5.156  16.630  0.00  0.00    +0.000 A 
ATOM     21  C   UNL     1       4.218   5.339  17.775  0.00  0.00    +0.000 A 
ATOM     22  N   UNL     1       3.118   6.303  18.030  0.00  0.00    +0.000 N 
ATOM     23  C   UNL     1       3.690   7.639  17.767  0.00  0.00    +0.000 C 
ENDBRANCH   5   9
BRANCH   1  29
ATOM     24  C   UNL     1      -1.388  12.631  20.277  0.00  0.00    +0.000 A 
ATOM     25  C   UNL     1      -1.770  13.984  20.386  0.00  0.00    +0.000 A 
ATOM     26  C   UNL     1      -0.959  14.914  21.033  0.00  0.00    +0.000 A 
ATOM     27  C   UNL     1       0.266  14.518  21.543  0.00  0.00    +0.000 A 
ATOM     28  C   UNL     1       0.710  13.204  21.355  0.00  0.00    +0.000 A 
ATOM     29  C   UNL     1      -0.112  12.232  20.750  0.00  0.00    +0.000 A 
BRANCH  24  31
ATOM     30  C   UNL     1      -2.362  11.613  18.325  0.00  0.00    +0.000 C 
ATOM     31  O   UNL     1      -2.221  11.678  19.748  0.00  0.00    +0.000 OA
ENDBRANCH  24  31
ENDBRANCH   1  29
TORSDOF 3
ENDMDL
MODEL 5
REMARK VINA RESULT:      -7.8      2.751      9.781
REMARK  Name = 
REMARK  7 active torsions:
REMARK  status: ('A' for Active; 'I' for Inactive)
REMARK    1  A    between atoms: C_1  and  O_2
REMARK    2  A    between atoms: O_2  and  C_3
REMARK    3  A    between atoms: C_8  and  N_9
REMARK    4  A    between atoms: C_10  and  C_11
REMARK    5  A    between atoms: C_13  and  C_14
REMARK    6  A    between atoms: N_27  and  C_28
REMARK    7  A    between atoms: C_30  and  C_31
REMARK                            x       y       z     vdW  Elec       q    Type
REMARK                         _______ _______ _______ _____ _____    ______ ____
ROOT
ATOM      1  N   UNL     1       3.016   5.896  18.490  0.00  0.00    +0.000 N 
ATOM      2  C   UNL     1       2.140   6.463  19.410  0.00  0.00    +0.000 A 
ATOM      3  C   UNL     1       1.588   5.758  20.624  0.00  0.00    +0.000 C 
ATOM      4  C   UNL     1       1.766   7.826  19.326  0.00  0.00    +0.000 A 
ATOM      5  C   UNL     1       2.340   8.684  18.425  0.00  0.00    +0.000 A 
ATOM      6  C   UNL     1       3.233   8.112  17.527  0.00  0.00    +0.000 A 
ATOM      7  C   UNL     1       3.560   6.730  17.527  0.00  0.00    +0.000 A 
ATOM      8  C   UNL     1       4.527   6.291  16.441  0.00  0.00    +0.000 C 
ENDROOT
BRANCH   5   9
ATOM      9  C   UNL     1       2.053  10.127  18.312  0.00  0.00    +0.000 C 
ATOM     10  C   UNL     1       1.085  11.013  18.668  0.00  0.00    +0.000 C 
ATOM     11  S   UNL     1       1.773  12.687  18.666  0.00  0.00    +0.000 S 
ATOM     12  C   UNL     1       0.655  13.024  19.983  0.00  0.00    +0.000 A 
ATOM     13  C   UNL     1       0.937  13.629  21.179  0.00  0.00    +0.000 A 
ATOM     14  C   UNL     1      -0.079  13.765  22.116  0.00  0.00    +0.000 A 
ATOM     15  C   UNL     1      -1.399  13.496  21.744  0.00  0.00    +0.000 A 
ATOM     16  C   UNL     1      -2.419  14.095  22.493  0.00  0.00    +0.000 A 
ATOM     17  C   UNL     1      -3.719  14.112  22.014  0.00  0.00    +0.000 A 
ATOM     18  C   UNL     1      -4.020  13.434  20.837  0.00  0.00    +0.000 A 
ATOM     19  C   UNL     1      -3.029  12.695  20.152  0.00  0.00    +0.000 A 
ATOM     20  C   UNL     1      -1.668  12.724  20.567  0.00  0.00    +0.000 A 
ATOM     21  C   UNL     1      -0.522  12.273  19.864  0.00  0.00    +0.000 A 
ATOM     22  N   UNL     1      -0.206  10.939  19.293  0.00  0.00    +0.000 N 
ATOM     23  C   UNL     1      -0.356   9.982  20.408  0.00  0.00    +0.000 C 
ENDBRANCH   5   9
BRANCH   1  29
ATOM     24  C   UNL     1       4.485   3.926  19.213  0.00  0.00    +0.000 A 
ATOM     25  C   UNL     1       4.751   2.542  19.165  0.00  0.00    +0.000 A 
ATOM     26  C   UNL     1       3.878   1.660  18.530  0.00  0.00    +0.000 A 
ATOM     27  C   UNL     1       2.748   2.150  17.897  0.00  0.00    +0.000 A 
ATOM     28  C   UNL     1       2.518   3.530  17.846  0.00  0.00    +0.000 A 
ATOM     29  C   UNL     1       3.357   4.439  18.521  0.00  0.00    +0.000 A 
BRANCH  24  31
ATOM     30  C   UNL     1       6.483   5.263  19.334  0.00  0.00    +0.000 C 
ATOM     31  O   UNL     1       5.268   4.795  19.930  0.00  0.00    +0.000 OA
ENDBRANCH  24  31
ENDBRANCH   1  29
TORSDOF 3
ENDMDL
MODEL 6
REMARK VINA RESULT:      -7.7      2.761      9.576
REMARK  Name = 
REMARK  7 active torsions:
REMARK  status: ('A' for Active; 'I' for Inactive)
REMARK    1  A    between atoms: C_1  and  O_2
REMARK    2  A    between atoms: O_2  and  C_3
REMARK    3  A    between atoms: C_8  and  N_9
REMARK    4  A    between atoms: C_10  and  C_11
REMARK    5  A    between atoms: C_13  and  C_14
REMARK    6  A    between atoms: N_27  and  C_28
REMARK    7  A    between atoms: C_30  and  C_31
REMARK                            x       y       z     vdW  Elec       q    Type
REMARK                         _______ _______ _______ _____ _____    ______ ____
ROOT
ATOM      1  N   UNL     1       3.076   5.787  18.457  0.00  0.00    +0.000 N 
ATOM      2  C   UNL     1       3.673   6.566  17.471  0.00  0.00    +0.000 A 
ATOM      3  C   UNL     1       4.495   6.028  16.326  0.00  0.00    +0.000 C 
ATOM      4  C   UNL     1       3.462   7.964  17.411  0.00  0.00    +0.000 A 
ATOM      5  C   UNL     1       2.566   8.602  18.229  0.00  0.00    +0.000 A 
ATOM      6  C   UNL     1       1.956   7.809  19.193  0.00  0.00    +0.000 A 
ATOM      7  C   UNL     1       2.215   6.420  19.338  0.00  0.00    +0.000 A 
ATOM      8  C   UNL     1       1.479   5.737  20.478  0.00  0.00    +0.000 C 
ENDROOT
BRANCH   5   9
ATOM      9  C   UNL     1       2.242  10.040  18.190  0.00  0.00    +0.000 C 
ATOM     10  C   UNL     1       1.220  10.872  18.526  0.00  0.00    +0.000 C 
ATOM     11  S   UNL     1       1.850  12.561  18.690  0.00  0.00    +0.000 S 
ATOM     12  C   UNL     1       0.623  12.775  19.934  0.00  0.00    +0.000 A 
ATOM     13  C   UNL     1       0.792  13.304  21.186  0.00  0.00    +0.000 A 
ATOM     14  C   UNL     1      -0.297  13.346  22.047  0.00  0.00    +0.000 A 
ATOM     15  C   UNL     1      -1.574  13.067  21.555  0.00  0.00    +0.000 A 
ATOM     16  C   UNL     1      -2.668  13.584  22.260  0.00  0.00    +0.000 A 
ATOM     17  C   UNL     1      -3.928  13.598  21.681  0.00  0.00    +0.000 A 
ATOM     18  C   UNL     1      -4.114  12.995  20.442  0.00  0.00    +0.000 A 
ATOM     19  C   UNL     1      -3.050  12.332  19.790  0.00  0.00    +0.000 A 
ATOM     20  C   UNL     1      -1.726  12.371  20.312  0.00  0.00    +0.000 A 
ATOM     21  C   UNL     1      -0.516  12.001  19.673  0.00  0.00    +0.000 A 
ATOM     22  N   UNL     1      -0.112  10.720  19.041  0.00  0.00    +0.000 N 
ATOM     23  C   UNL     1      -0.316   9.684  20.075  0.00  0.00    +0.000 C 
ENDBRANCH   5   9
BRANCH   1  29
ATOM     24  C   UNL     1       4.462   3.803  19.298  0.00  0.00    +0.000 A 
ATOM     25  C   UNL     1       4.667   2.409  19.334  0.00  0.00    +0.000 A 
ATOM     26  C   UNL     1       3.754   1.528  18.758  0.00  0.00    +0.000 A 
ATOM     27  C   UNL     1       2.643   2.026  18.099  0.00  0.00    +0.000 A 
ATOM     28  C   UNL     1       2.472   3.409  17.962  0.00  0.00    +0.000 A 
ATOM     29  C   UNL     1       3.354   4.321  18.578  0.00  0.00    +0.000 A 
BRANCH  24  31
ATOM     30  C   UNL     1       6.477   5.120  19.296  0.00  0.00    +0.000 C 
ATOM     31  O   UNL     1       5.285   4.680  19.957  0.00  0.00    +0.000 OA
ENDBRANCH  24  31
ENDBRANCH   1  29
TORSDOF 3
ENDMDL
MODEL 7
REMARK VINA RESULT:      -7.6      2.615      9.587
REMARK  Name = 
REMARK  7 active torsions:
REMARK  status: ('A' for Active; 'I' for Inactive)
REMARK    1  A    between atoms: C_1  and  O_2
REMARK    2  A    between atoms: O_2  and  C_3
REMARK    3  A    between atoms: C_8  and  N_9
REMARK    4  A    between atoms: C_10  and  C_11
REMARK    5  A    between atoms: C_13  and  C_14
REMARK    6  A    between atoms: N_27  and  C_28
REMARK    7  A    between atoms: C_30  and  C_31
REMARK                            x       y       z     vdW  Elec       q    Type
REMARK                         _______ _______ _______ _____ _____    ______ ____
ROOT
ATOM      1  N   UNL     1       2.425   6.151  19.328  0.00  0.00    +0.000 N 
ATOM      2  C   UNL     1       2.371   7.485  18.935  0.00  0.00    +0.000 A 
ATOM      3  C   UNL     1       2.787   8.004  17.581  0.00  0.00    +0.000 C 
ATOM      4  C   UNL     1       1.806   8.476  19.773  0.00  0.00    +0.000 A 
ATOM      5  C   UNL     1       1.171   8.162  20.946  0.00  0.00    +0.000 A 
ATOM      6  C   UNL     1       1.209   6.824  21.316  0.00  0.00    +0.000 A 
ATOM      7  C   UNL     1       1.847   5.818  20.542  0.00  0.00    +0.000 A 
ATOM      8  C   UNL     1       1.814   4.421  21.136  0.00  0.00    +0.000 C 
ENDROOT
BRANCH   5   9
ATOM      9  C   UNL     1       0.504   9.123  21.845  0.00  0.00    +0.000 C 
ATOM     10  C   UNL     1       0.324  10.466  21.961  0.00  0.00    +0.000 C 
ATOM     11  S   UNL     1      -1.106  10.791  23.021  0.00  0.00    +0.000 S 
ATOM     12  C   UNL     1      -1.375  12.219  22.028  0.00  0.00    +0.000 A 
ATOM     13  C   UNL     1      -2.551  12.623  21.454  0.00  0.00    +0.000 A 
ATOM     14  C   UNL     1      -2.549  13.762  20.660  0.00  0.00    +0.000 A 
ATOM     15  C   UNL     1      -1.424  14.590  20.645  0.00  0.00    +0.000 A 
ATOM     16  C   UNL     1      -1.608  15.927  20.271  0.00  0.00    +0.000 A 
ATOM     17  C   UNL     1      -0.613  16.862  20.511  0.00  0.00    +0.000 A 
ATOM     18  C   UNL     1       0.609  16.439  21.025  0.00  0.00    +0.000 A 
ATOM     19  C   UNL     1       0.861  15.069  21.261  0.00  0.00    +0.000 A 
ATOM     20  C   UNL     1      -0.163  14.092  21.107  0.00  0.00    +0.000 A 
ATOM     21  C   UNL     1      -0.168  12.744  21.544  0.00  0.00    +0.000 A 
ATOM     22  N   UNL     1       0.779  11.636  21.262  0.00  0.00    +0.000 N 
ATOM     23  C   UNL     1       0.861  11.547  19.790  0.00  0.00    +0.000 C 
ENDBRANCH   5   9
BRANCH   1  29
ATOM     24  C   UNL     1       4.487   4.866  18.518  0.00  0.00    +0.000 A 
ATOM     25  C   UNL     1       5.036   3.886  17.666  0.00  0.00    +0.000 A 
ATOM     26  C   UNL     1       4.222   3.088  16.864  0.00  0.00    +0.000 A 
ATOM     27  C   UNL     1       2.852   3.286  16.866  0.00  0.00    +0.000 A 
ATOM     28  C   UNL     1       2.296   4.321  17.627  0.00  0.00    +0.000 A 
ATOM     29  C   UNL     1       3.090   5.108  18.485  0.00  0.00    +0.000 A 
BRANCH  24  31
ATOM     30  C   UNL     1       6.682   5.529  19.254  0.00  0.00    +0.000 C 
ATOM     31  O   UNL     1       5.258   5.581  19.399  0.00  0.00    +0.000 OA
ENDBRANCH  24  31
ENDBRANCH   1  29
TORSDOF 3
ENDMDL
MODEL 8
REMARK VINA RESULT:      -7.3      2.582      9.545
REMARK  Name = 
REMARK  7 active torsions:
REMARK  status: ('A' for Active; 'I' for Inactive)
REMARK    1  A    between atoms: C_1  and  O_2
REMARK    2  A    between atoms: O_2  and  C_3
REMARK    3  A    between atoms: C_8  and  N_9
REMARK    4  A    between atoms: C_10  and  C_11
REMARK    5  A    between atoms: C_13  and  C_14
REMARK    6  A    between atoms: N_27  and  C_28
REMARK    7  A    between atoms: C_30  and  C_31
REMARK                            x       y       z     vdW  Elec       q    Type
REMARK                         _______ _______ _______ _____ _____    ______ ____
ROOT
ATOM      1  N   UNL     1       2.450   6.104  19.304  0.00  0.00    +0.000 N 
ATOM      2  C   UNL     1       1.884   5.723  20.516  0.00  0.00    +0.000 A 
ATOM      3  C   UNL     1       2.022   4.358  21.142  0.00  0.00    +0.000 C 
ATOM      4  C   UNL     1       1.196   6.654  21.331  0.00  0.00    +0.000 A 
ATOM      5  C   UNL     1       1.161   7.992  21.038  0.00  0.00    +0.000 A 
ATOM      6  C   UNL     1       1.751   8.365  19.837  0.00  0.00    +0.000 A 
ATOM      7  C   UNL     1       2.371   7.441  18.953  0.00  0.00    +0.000 A 
ATOM      8  C   UNL     1       2.923   8.039  17.671  0.00  0.00    +0.000 C 
ENDROOT
BRANCH   5   9
ATOM      9  C   UNL     1       0.521   9.035  21.862  0.00  0.00    +0.000 C 
ATOM     10  C   UNL     1       0.409  10.389  21.900  0.00  0.00    +0.000 C 
ATOM     11  S   UNL     1      -1.031  10.844  22.898  0.00  0.00    +0.000 S 
ATOM     12  C   UNL     1      -1.198  12.226  21.821  0.00  0.00    +0.000 A 
ATOM     13  C   UNL     1      -2.335  12.657  21.190  0.00  0.00    +0.000 A 
ATOM     14  C   UNL     1      -2.253  13.749  20.336  0.00  0.00    +0.000 A 
ATOM     15  C   UNL     1      -1.086  14.516  20.309  0.00  0.00    +0.000 A 
ATOM     16  C   UNL     1      -1.190  15.838  19.858  0.00  0.00    +0.000 A 
ATOM     17  C   UNL     1      -0.154  16.733  20.077  0.00  0.00    +0.000 A 
ATOM     18  C   UNL     1       1.030  16.278  20.649  0.00  0.00    +0.000 A 
ATOM     19  C   UNL     1       1.204  14.912  20.967  0.00  0.00    +0.000 A 
ATOM     20  C   UNL     1       0.134  13.982  20.835  0.00  0.00    +0.000 A 
ATOM     21  C   UNL     1       0.047  12.662  21.345  0.00  0.00    +0.000 A 
ATOM     22  N   UNL     1       0.943  11.494  21.152  0.00  0.00    +0.000 N 
ATOM     23  C   UNL     1       1.060  11.318  19.691  0.00  0.00    +0.000 C 
ENDBRANCH   5   9
BRANCH   1  29
ATOM     24  C   UNL     1       4.515   4.912  18.368  0.00  0.00    +0.000 A 
ATOM     25  C   UNL     1       5.059   3.980  17.460  0.00  0.00    +0.000 A 
ATOM     26  C   UNL     1       4.238   3.188  16.661  0.00  0.00    +0.000 A 
ATOM     27  C   UNL     1       2.863   3.343  16.723  0.00  0.00    +0.000 A 
ATOM     28  C   UNL     1       2.307   4.332  17.542  0.00  0.00    +0.000 A 
ATOM     29  C   UNL     1       3.111   5.112  18.397  0.00  0.00    +0.000 A 
BRANCH  24  31
ATOM     30  C   UNL     1       6.709   5.672  19.004  0.00  0.00    +0.000 C 
ATOM     31  O   UNL     1       5.299   5.619  19.245  0.00  0.00    +0.000 OA
ENDBRANCH  24  31
ENDBRANCH   1  29
TORSDOF 3
ENDMDL
MODEL 9
REMARK VINA RESULT:      -7.3      0.784      1.750
REMARK  Name = 
REMARK  7 active torsions:
REMARK  status: ('A' for Active; 'I' for Inactive)
REMARK    1  A    between atoms: C_1  and  O_2
REMARK    2  A    between atoms: O_2  and  C_3
REMARK    3  A    between atoms: C_8  and  N_9
REMARK    4  A    between atoms: C_10  and  C_11
REMARK    5  A    between atoms: C_13  and  C_14
REMARK    6  A    between atoms: N_27  and  C_28
REMARK    7  A    between atoms: C_30  and  C_31
REMARK                            x       y       z     vdW  Elec       q    Type
REMARK                         _______ _______ _______ _____ _____    ______ ____
ROOT
ATOM      1  N   UNL     1       0.525  11.463  20.544  0.00  0.00    +0.000 N 
ATOM      2  C   UNL     1       0.176  10.554  21.538  0.00  0.00    +0.000 A 
ATOM      3  C   UNL     1      -0.736  10.854  22.701  0.00  0.00    +0.000 C 
ATOM      4  C   UNL     1       0.585   9.200  21.473  0.00  0.00    +0.000 A 
ATOM      5  C   UNL     1       1.229   8.686  20.378  0.00  0.00    +0.000 A 
ATOM      6  C   UNL     1       1.551   9.598  19.381  0.00  0.00    +0.000 A 
ATOM      7  C   UNL     1       1.234  10.980  19.457  0.00  0.00    +0.000 A 
ATOM      8  C   UNL     1       1.706  11.821  18.282  0.00  0.00    +0.000 C 
ENDROOT
BRANCH   5   9
ATOM      9  C   UNL     1       1.635   7.278  20.204  0.00  0.00    +0.000 C 
ATOM     10  C   UNL     1       2.343   6.514  19.330  0.00  0.00    +0.000 C 
ATOM     11  S   UNL     1       2.856   4.984  20.150  0.00  0.00    +0.000 S 
ATOM     12  C   UNL     1       4.291   5.055  19.133  0.00  0.00    +0.000 A 
ATOM     13  C   UNL     1       5.596   4.916  19.525  0.00  0.00    +0.000 A 
ATOM     14  C   UNL     1       6.598   5.052  18.573  0.00  0.00    +0.000 A 
ATOM     15  C   UNL     1       6.259   5.099  17.218  0.00  0.00    +0.000 A 
ATOM     16  C   UNL     1       7.243   4.736  16.291  0.00  0.00    +0.000 A 
ATOM     17  C   UNL     1       6.899   4.480  14.973  0.00  0.00    +0.000 A 
ATOM     18  C   UNL     1       5.589   4.693  14.557  0.00  0.00    +0.000 A 
ATOM     19  C   UNL     1       4.620   5.209  15.448  0.00  0.00    +0.000 A 
ATOM     20  C   UNL     1       4.915   5.403  16.827  0.00  0.00    +0.000 A 
ATOM     21  C   UNL     1       4.015   5.651  17.894  0.00  0.00    +0.000 A 
ATOM     22  N   UNL     1       3.003   6.723  18.071  0.00  0.00    +0.000 N 
ATOM     23  C   UNL     1       3.736   7.994  17.903  0.00  0.00    +0.000 C 
ENDBRANCH   5   9
BRANCH   1  29
ATOM     24  C   UNL     1       1.046  13.893  21.166  0.00  0.00    +0.000 A 
ATOM     25  C   UNL     1       0.614  15.232  21.251  0.00  0.00    +0.000 A 
ATOM     26  C   UNL     1      -0.623  15.625  20.744  0.00  0.00    +0.000 A 
ATOM     27  C   UNL     1      -1.467  14.681  20.184  0.00  0.00    +0.000 A 
ATOM     28  C   UNL     1      -1.101  13.330  20.182  0.00  0.00    +0.000 A 
ATOM     29  C   UNL     1       0.165  12.913  20.641  0.00  0.00    +0.000 A 
BRANCH  24  31
ATOM     30  C   UNL     1       3.429  14.090  20.884  0.00  0.00    +0.000 C 
ATOM     31  O   UNL     1       2.304  13.506  21.552  0.00  0.00    +0.000 OA
ENDBRANCH  24  31
ENDBRANCH   1  29
TORSDOF 3
ENDMDL
