MODEL 1
REMARK VINA RESULT:      -7.2      0.000      0.000
REMARK  Name = 
REMARK  8 active torsions:
REMARK  status: ('A' for Active; 'I' for Inactive)
REMARK    1  A    between atoms: C_1  and  O_2
REMARK    2  A    between atoms: O_2  and  C_3
REMARK    3  A    between atoms: C_3  and  C_4
REMARK    4  A    between atoms: C_4  and  C_5
REMARK    5  A    between atoms: C_7  and  C_8
REMARK    6  A    between atoms: C_8  and  O_9
REMARK    7  A    between atoms: O_9  and  C_10
REMARK    8  A    between atoms: C_15  and  C_16
REMARK                            x       y       z     vdW  Elec       q    Type
REMARK                         _______ _______ _______ _____ _____    ______ ____
ROOT
ATOM      1  C   UNL     1       6.953   4.675  17.809  0.00  0.00    +0.000 C 
ENDROOT
BRANCH   1   4
ATOM      2  C   UNL     1       8.160   7.962  18.268  0.00  0.00    +0.000 A 
ATOM      3  N   UNL     1       8.014   6.749  18.751  0.00  0.00    +0.000 NA
ATOM      4  C   UNL     1       7.291   6.127  17.757  0.00  0.00    +0.000 A 
ATOM      5  N   UNL     1       6.965   6.917  16.726  0.00  0.00    +0.000 NA
ATOM      6  O   UNL     1       7.552   8.138  17.059  0.00  0.00    +0.000 OA
BRANCH   2   7
ATOM      7  C   UNL     1       8.890   9.121  18.822  0.00  0.00    +0.000 C 
BRANCH   7   8
ATOM      8  C   UNL     1       8.685  10.368  17.973  0.00  0.00    +0.000 C 
BRANCH   8  10
ATOM      9  C   UNL     1      10.445  11.383  19.166  0.00  0.00    +0.000 C 
ATOM     10  O   UNL     1       9.923  11.073  17.879  0.00  0.00    +0.000 OA
ENDBRANCH   8  10
ENDBRANCH   7   8
ENDBRANCH   2   7
ENDBRANCH   1   4
BRANCH   1  11
ATOM     11  O   UNL     1       6.192   4.266  18.965  0.00  0.00    +0.000 OA
BRANCH  11  12
ATOM     12  C   UNL     1       4.796   4.050  18.729  0.00  0.00    +0.000 C 
ATOM     13  C   UNL     1       4.492   3.759  17.252  0.00  0.00    +0.000 C 
ATOM     14  C   UNL     1       3.015   3.412  17.058  0.00  0.00    +0.000 C 
ATOM     15  C   UNL     1       2.601   2.259  17.970  0.00  0.00    +0.000 C 
ATOM     16  N   UNL     1       2.917   2.571  19.362  0.00  0.00    +0.000 N 
ATOM     17  C   UNL     1       1.872   2.852  20.226  0.00  0.00    +0.000 C 
ATOM     18  C   UNL     1       2.153   3.157  21.679  0.00  0.00    +0.000 C 
ATOM     19  O   UNL     1       0.695   2.830  19.854  0.00  0.00    +0.000 OA
ATOM     20  C   UNL     1       4.337   2.856  19.593  0.00  0.00    +0.000 C 
ENDBRANCH  11  12
ENDBRANCH   1  11
TORSDOF 6
ENDMDL
MODEL 2
REMARK VINA RESULT:      -6.9      3.503      5.307
REMARK  Name = 
REMARK  8 active torsions:
REMARK  status: ('A' for Active; 'I' for Inactive)
REMARK    1  A    between atoms: C_1  and  O_2
REMARK    2  A    between atoms: O_2  and  C_3
REMARK    3  A    between atoms: C_3  and  C_4
REMARK    4  A    between atoms: C_4  and  C_5
REMARK    5  A    between atoms: C_7  and  C_8
REMARK    6  A    between atoms: C_8  and  O_9
REMARK    7  A    between atoms: O_9  and  C_10
REMARK    8  A    between atoms: C_15  and  C_16
REMARK                            x       y       z     vdW  Elec       q    Type
REMARK                         _______ _______ _______ _____ _____    ______ ____
ROOT
ATOM      1  C   UNL     1       6.469   4.400  17.894  0.00  0.00    +0.000 C 
ENDROOT
BRANCH   1   4
ATOM      2  C   UNL     1       6.775   4.414  14.376  0.00  0.00    +0.000 A 
ATOM      3  N   UNL     1       6.346   3.802  15.457  0.00  0.00    +0.000 NA
ATOM      4  C   UNL     1       6.797   4.633  16.458  0.00  0.00    +0.000 A 
ATOM      5  N   UNL     1       7.504   5.689  16.032  0.00  0.00    +0.000 NA
ATOM      6  O   UNL     1       7.482   5.550  14.644  0.00  0.00    +0.000 OA
BRANCH   2   7
ATOM      7  C   UNL     1       6.581   4.069  12.953  0.00  0.00    +0.000 C 
BRANCH   7   8
ATOM      8  C   UNL     1       5.241   3.383  12.723  0.00  0.00    +0.000 C 
BRANCH   8  10
ATOM      9  C   UNL     1       3.689   2.968  10.999  0.00  0.00    +0.000 C 
ATOM     10  O   UNL     1       4.683   3.857  11.497  0.00  0.00    +0.000 OA
ENDBRANCH   8  10
ENDBRANCH   7   8
ENDBRANCH   2   7
ENDBRANCH   1   4
BRANCH   1  11
ATOM     11  O   UNL     1       5.967   5.552  18.602  0.00  0.00    +0.000 OA
BRANCH  11  12
ATOM     12  C   UNL     1       4.559   5.539  18.865  0.00  0.00    +0.000 C 
ATOM     13  C   UNL     1       3.766   6.359  17.837  0.00  0.00    +0.000 C 
ATOM     14  C   UNL     1       2.261   6.223  18.075  0.00  0.00    +0.000 C 
ATOM     15  C   UNL     1       1.842   4.754  18.086  0.00  0.00    +0.000 C 
ATOM     16  N   UNL     1       2.627   4.008  19.068  0.00  0.00    +0.000 N 
ATOM     17  C   UNL     1       1.999   3.587  20.228  0.00  0.00    +0.000 C 
ATOM     18  C   UNL     1       2.768   2.793  21.258  0.00  0.00    +0.000 C 
ATOM     19  O   UNL     1       0.804   3.811  20.441  0.00  0.00    +0.000 OA
ATOM     20  C   UNL     1       4.074   4.075  18.837  0.00  0.00    +0.000 C 
ENDBRANCH  11  12
ENDBRANCH   1  11
TORSDOF 6
ENDMDL
MODEL 3
REMARK VINA RESULT:      -6.8      3.659      5.618
REMARK  Name = 
REMARK  8 active torsions:
REMARK  status: ('A' for Active; 'I' for Inactive)
REMARK    1  A    between atoms: C_1  and  O_2
REMARK    2  A    between atoms: O_2  and  C_3
REMARK    3  A    between atoms: C_3  and  C_4
REMARK    4  A    between atoms: C_4  and  C_5
REMARK    5  A    between atoms: C_7  and  C_8
REMARK    6  A    between atoms: C_8  and  O_9
REMARK    7  A    between atoms: O_9  and  C_10
REMARK    8  A    between atoms: C_15  and  C_16
REMARK                            x       y       z     vdW  Elec       q    Type
REMARK                         _______ _______ _______ _____ _____    ______ ____
ROOT
ATOM      1  C   UNL     1       6.396   4.363  17.192  0.00  0.00    +0.000 C 
ENDROOT
BRANCH   1   4
ATOM      2  C   UNL     1       6.812   4.257  13.686  0.00  0.00    +0.000 A 
ATOM      3  N   UNL     1       6.340   3.687  14.772  0.00  0.00    +0.000 NA
ATOM      4  C   UNL     1       6.772   4.544  15.760  0.00  0.00    +0.000 A 
ATOM      5  N   UNL     1       7.509   5.574  15.322  0.00  0.00    +0.000 NA
ATOM      6  O   UNL     1       7.528   5.390  13.940  0.00  0.00    +0.000 OA
BRANCH   2   7
ATOM      7  C   UNL     1       6.657   3.868  12.270  0.00  0.00    +0.000 C 
BRANCH   7   8
ATOM      8  C   UNL     1       5.333   3.155  12.029  0.00  0.00    +0.000 C 
BRANCH   8  10
ATOM      9  C   UNL     1       6.972   1.711  11.144  0.00  0.00    +0.000 C 
ATOM     10  O   UNL     1       5.596   1.866  11.472  0.00  0.00    +0.000 OA
ENDBRANCH   8  10
ENDBRANCH   7   8
ENDBRANCH   2   7
ENDBRANCH   1   4
BRANCH   1  11
ATOM     11  O   UNL     1       6.094   5.581  17.903  0.00  0.00    +0.000 OA
BRANCH  11  12
ATOM     12  C   UNL     1       4.762   5.669  18.422  0.00  0.00    +0.000 C 
ATOM     13  C   UNL     1       3.912   6.706  17.675  0.00  0.00    +0.000 C 
ATOM     14  C   UNL     1       2.465   6.685  18.172  0.00  0.00    +0.000 C 
ATOM     15  C   UNL     1       1.875   5.279  18.075  0.00  0.00    +0.000 C 
ATOM     16  N   UNL     1       2.719   4.322  18.788  0.00  0.00    +0.000 N 
ATOM     17  C   UNL     1       2.253   3.798  19.983  0.00  0.00    +0.000 C 
ATOM     18  C   UNL     1       3.084   2.789  20.740  0.00  0.00    +0.000 C 
ATOM     19  O   UNL     1       1.150   4.106  20.443  0.00  0.00    +0.000 OA
ATOM     20  C   UNL     1       4.102   4.279  18.300  0.00  0.00    +0.000 C 
ENDBRANCH  11  12
ENDBRANCH   1  11
TORSDOF 6
ENDMDL
MODEL 4
REMARK VINA RESULT:      -6.8      3.808      5.784
REMARK  Name = 
REMARK  8 active torsions:
REMARK  status: ('A' for Active; 'I' for Inactive)
REMARK    1  A    between atoms: C_1  and  O_2
REMARK    2  A    between atoms: O_2  and  C_3
REMARK    3  A    between atoms: C_3  and  C_4
REMARK    4  A    between atoms: C_4  and  C_5
REMARK    5  A    between atoms: C_7  and  C_8
REMARK    6  A    between atoms: C_8  and  O_9
REMARK    7  A    between atoms: O_9  and  C_10
REMARK    8  A    between atoms: C_15  and  C_16
REMARK                            x       y       z     vdW  Elec       q    Type
REMARK                         _______ _______ _______ _____ _____    ______ ____
ROOT
ATOM      1  C   UNL     1       6.401   4.491  16.829  0.00  0.00    +0.000 C 
ENDROOT
BRANCH   1   4
ATOM      2  C   UNL     1       6.890   4.210  13.343  0.00  0.00    +0.000 A 
ATOM      3  N   UNL     1       6.384   3.702  14.443  0.00  0.00    +0.000 NA
ATOM      4  C   UNL     1       6.812   4.597  15.399  0.00  0.00    +0.000 A 
ATOM      5  N   UNL     1       7.579   5.590  14.930  0.00  0.00    +0.000 NA
ATOM      6  O   UNL     1       7.624   5.340  13.558  0.00  0.00    +0.000 OA
BRANCH   2   7
ATOM      7  C   UNL     1       6.758   3.757  11.942  0.00  0.00    +0.000 C 
BRANCH   7   8
ATOM      8  C   UNL     1       5.568   2.824  11.769  0.00  0.00    +0.000 C 
BRANCH   8  10
ATOM      9  C   UNL     1       3.462   3.058  10.737  0.00  0.00    +0.000 C 
ATOM     10  O   UNL     1       4.376   3.606  11.680  0.00  0.00    +0.000 OA
ENDBRANCH   8  10
ENDBRANCH   7   8
ENDBRANCH   2   7
ENDBRANCH   1   4
BRANCH   1  11
ATOM     11  O   UNL     1       5.296   3.599  17.083  0.00  0.00    +0.000 OA
BRANCH  11  12
ATOM     12  C   UNL     1       4.415   4.007  18.135  0.00  0.00    +0.000 C 
ATOM     13  C   UNL     1       4.752   5.406  18.669  0.00  0.00    +0.000 C 
ATOM     14  C   UNL     1       3.718   5.859  19.701  0.00  0.00    +0.000 C 
ATOM     15  C   UNL     1       2.304   5.787  19.127  0.00  0.00    +0.000 C 
ATOM     16  N   UNL     1       2.029   4.445  18.620  0.00  0.00    +0.000 N 
ATOM     17  C   UNL     1       1.148   3.644  19.328  0.00  0.00    +0.000 C 
ATOM     18  C   UNL     1       0.817   2.257  18.826  0.00  0.00    +0.000 C 
ATOM     19  O   UNL     1       0.587   4.040  20.354  0.00  0.00    +0.000 OA
ATOM     20  C   UNL     1       2.971   4.000  17.588  0.00  0.00    +0.000 C 
ENDBRANCH  11  12
ENDBRANCH   1  11
TORSDOF 6
ENDMDL
MODEL 5
REMARK VINA RESULT:      -6.8      1.051      1.275
REMARK  Name = 
REMARK  8 active torsions:
REMARK  status: ('A' for Active; 'I' for Inactive)
REMARK    1  A    between atoms: C_1  and  O_2
REMARK    2  A    between atoms: O_2  and  C_3
REMARK    3  A    between atoms: C_3  and  C_4
REMARK    4  A    between atoms: C_4  and  C_5
REMARK    5  A    between atoms: C_7  and  C_8
REMARK    6  A    between atoms: C_8  and  O_9
REMARK    7  A    between atoms: O_9  and  C_10
REMARK    8  A    between atoms: C_15  and  C_16
REMARK                            x       y       z     vdW  Elec       q    Type
REMARK                         _______ _______ _______ _____ _____    ______ ____
ROOT
ATOM      1  C   UNL     1       6.449   5.019  17.350  0.00  0.00    +0.000 C 
ENDROOT
BRANCH   1   4
ATOM      2  C   UNL     1       7.994   8.147  17.901  0.00  0.00    +0.000 A 
ATOM      3  N   UNL     1       7.219   7.403  17.145  0.00  0.00    +0.000 NA
ATOM      4  C   UNL     1       7.265   6.187  17.791  0.00  0.00    +0.000 A 
ATOM      5  N   UNL     1       8.058   6.159  18.871  0.00  0.00    +0.000 NA
ATOM      6  O   UNL     1       8.537   7.466  18.952  0.00  0.00    +0.000 OA
BRANCH   2   7
ATOM      7  C   UNL     1       8.330   9.581  17.790  0.00  0.00    +0.000 C 
BRANCH   7   8
ATOM      8  C   UNL     1       9.100  10.069  19.009  0.00  0.00    +0.000 C 
BRANCH   8  10
ATOM      9  C   UNL     1      10.856  11.628  19.210  0.00  0.00    +0.000 C 
ATOM     10  O   UNL     1       9.514  11.418  18.786  0.00  0.00    +0.000 OA
ENDBRANCH   8  10
ENDBRANCH   7   8
ENDBRANCH   2   7
ENDBRANCH   1   4
BRANCH   1  11
ATOM     11  O   UNL     1       5.903   4.217  18.417  0.00  0.00    +0.000 OA
BRANCH  11  12
ATOM     12  C   UNL     1       4.507   4.411  18.671  0.00  0.00    +0.000 C 
ATOM     13  C   UNL     1       3.772   5.010  17.464  0.00  0.00    +0.000 C 
ATOM     14  C   UNL     1       2.267   5.088  17.726  0.00  0.00    +0.000 C 
ATOM     15  C   UNL     1       1.710   3.722  18.119  0.00  0.00    +0.000 C 
ATOM     16  N   UNL     1       2.443   3.182  19.262  0.00  0.00    +0.000 N 
ATOM     17  C   UNL     1       1.805   3.140  20.491  0.00  0.00    +0.000 C 
ATOM     18  C   UNL     1       2.519   2.569  21.694  0.00  0.00    +0.000 C 
ATOM     19  O   UNL     1       0.642   3.529  20.636  0.00  0.00    +0.000 OA
ATOM     20  C   UNL     1       3.884   3.044  19.025  0.00  0.00    +0.000 C 
ENDBRANCH  11  12
ENDBRANCH   1  11
TORSDOF 6
ENDMDL
MODEL 6
REMARK VINA RESULT:      -6.7      3.533      5.411
REMARK  Name = 
REMARK  8 active torsions:
REMARK  status: ('A' for Active; 'I' for Inactive)
REMARK    1  A    between atoms: C_1  and  O_2
REMARK    2  A    between atoms: O_2  and  C_3
REMARK    3  A    between atoms: C_3  and  C_4
REMARK    4  A    between atoms: C_4  and  C_5
REMARK    5  A    between atoms: C_7  and  C_8
REMARK    6  A    between atoms: C_8  and  O_9
REMARK    7  A    between atoms: O_9  and  C_10
REMARK    8  A    between atoms: C_15  and  C_16
REMARK                            x       y       z     vdW  Elec       q    Type
REMARK                         _______ _______ _______ _____ _____    ______ ____
ROOT
ATOM      1  C   UNL     1       6.361   4.605  17.428  0.00  0.00    +0.000 C 
ENDROOT
BRANCH   1   4
ATOM      2  C   UNL     1       6.675   4.226  13.931  0.00  0.00    +0.000 A 
ATOM      3  N   UNL     1       6.253   3.733  15.073  0.00  0.00    +0.000 NA
ATOM      4  C   UNL     1       6.689   4.679  15.975  0.00  0.00    +0.000 A 
ATOM      5  N   UNL     1       7.381   5.690  15.432  0.00  0.00    +0.000 NA
ATOM      6  O   UNL     1       7.364   5.395  14.069  0.00  0.00    +0.000 OA
BRANCH   2   7
ATOM      7  C   UNL     1       6.490   3.719  12.555  0.00  0.00    +0.000 C 
BRANCH   7   8
ATOM      8  C   UNL     1       5.022   3.730  12.150  0.00  0.00    +0.000 C 
BRANCH   8  10
ATOM      9  C   UNL     1       5.872   1.685  11.344  0.00  0.00    +0.000 C 
ATOM     10  O   UNL     1       4.732   2.532  11.428  0.00  0.00    +0.000 OA
ENDBRANCH   8  10
ENDBRANCH   7   8
ENDBRANCH   2   7
ENDBRANCH   1   4
BRANCH   1  11
ATOM     11  O   UNL     1       5.527   3.492  17.809  0.00  0.00    +0.000 OA
BRANCH  11  12
ATOM     12  C   UNL     1       4.226   3.844  18.293  0.00  0.00    +0.000 C 
ATOM     13  C   UNL     1       3.337   4.443  17.195  0.00  0.00    +0.000 C 
ATOM     14  C   UNL     1       1.920   4.692  17.715  0.00  0.00    +0.000 C 
ATOM     15  C   UNL     1       1.323   3.417  18.306  0.00  0.00    +0.000 C 
ATOM     16  N   UNL     1       2.204   2.873  19.338  0.00  0.00    +0.000 N 
ATOM     17  C   UNL     1       1.805   2.971  20.660  0.00  0.00    +0.000 C 
ATOM     18  C   UNL     1       2.674   2.401  21.757  0.00  0.00    +0.000 C 
ATOM     19  O   UNL     1       0.729   3.486  20.980  0.00  0.00    +0.000 OA
ATOM     20  C   UNL     1       3.557   2.573  18.858  0.00  0.00    +0.000 C 
ENDBRANCH  11  12
ENDBRANCH   1  11
TORSDOF 6
ENDMDL
MODEL 7
REMARK VINA RESULT:      -6.6      3.378      4.643
REMARK  Name = 
REMARK  8 active torsions:
REMARK  status: ('A' for Active; 'I' for Inactive)
REMARK    1  A    between atoms: C_1  and  O_2
REMARK    2  A    between atoms: O_2  and  C_3
REMARK    3  A    between atoms: C_3  and  C_4
REMARK    4  A    between atoms: C_4  and  C_5
REMARK    5  A    between atoms: C_7  and  C_8
REMARK    6  A    between atoms: C_8  and  O_9
REMARK    7  A    between atoms: O_9  and  C_10
REMARK    8  A    between atoms: C_15  and  C_16
REMARK                            x       y       z     vdW  Elec       q    Type
REMARK                         _______ _______ _______ _____ _____    ______ ____
ROOT
ATOM      1  C   UNL     1       5.833   5.276  19.323  0.00  0.00    +0.000 C 
ENDROOT
BRANCH   1   4
ATOM      2  C   UNL     1       7.014   4.790  16.030  0.00  0.00    +0.000 A 
ATOM      3  N   UNL     1       6.037   5.174  16.820  0.00  0.00    +0.000 NA
ATOM      4  C   UNL     1       6.555   4.912  18.069  0.00  0.00    +0.000 A 
ATOM      5  N   UNL     1       7.774   4.356  18.063  0.00  0.00    +0.000 NA
ATOM      6  O   UNL     1       8.087   4.283  16.705  0.00  0.00    +0.000 OA
BRANCH   2   7
ATOM      7  C   UNL     1       7.121   4.852  14.558  0.00  0.00    +0.000 C 
BRANCH   7   8
ATOM      8  C   UNL     1       6.078   3.970  13.886  0.00  0.00    +0.000 C 
BRANCH   8  10
ATOM      9  C   UNL     1       5.628   2.782  11.901  0.00  0.00    +0.000 C 
ATOM     10  O   UNL     1       6.466   3.745  12.530  0.00  0.00    +0.000 OA
ENDBRANCH   8  10
ENDBRANCH   7   8
ENDBRANCH   2   7
ENDBRANCH   1   4
BRANCH   1  11
ATOM     11  O   UNL     1       4.691   6.138  19.142  0.00  0.00    +0.000 OA
BRANCH  11  12
ATOM     12  C   UNL     1       3.424   5.471  19.108  0.00  0.00    +0.000 C 
ATOM     13  C   UNL     1       2.751   5.566  17.731  0.00  0.00    +0.000 C 
ATOM     14  C   UNL     1       1.464   4.741  17.696  0.00  0.00    +0.000 C 
ATOM     15  C   UNL     1       1.731   3.294  18.107  0.00  0.00    +0.000 C 
ATOM     16  N   UNL     1       2.382   3.248  19.414  0.00  0.00    +0.000 N 
ATOM     17  C   UNL     1       1.645   2.801  20.499  0.00  0.00    +0.000 C 
ATOM     18  C   UNL     1       2.286   2.716  21.864  0.00  0.00    +0.000 C 
ATOM     19  O   UNL     1       0.473   2.431  20.383  0.00  0.00    +0.000 OA
ATOM     20  C   UNL     1       3.648   3.987  19.468  0.00  0.00    +0.000 C 
ENDBRANCH  11  12
ENDBRANCH   1  11
TORSDOF 6
ENDMDL
MODEL 8
REMARK VINA RESULT:      -6.6      3.606      5.716
REMARK  Name = 
REMARK  8 active torsions:
REMARK  status: ('A' for Active; 'I' for Inactive)
REMARK    1  A    between atoms: C_1  and  O_2
REMARK    2  A    between atoms: O_2  and  C_3
REMARK    3  A    between atoms: C_3  and  C_4
REMARK    4  A    between atoms: C_4  and  C_5
REMARK    5  A    between atoms: C_7  and  C_8
REMARK    6  A    between atoms: C_8  and  O_9
REMARK    7  A    between atoms: O_9  and  C_10
REMARK    8  A    between atoms: C_15  and  C_16
REMARK                            x       y       z     vdW  Elec       q    Type
REMARK                         _______ _______ _______ _____ _____    ______ ____
ROOT
ATOM      1  C   UNL     1       6.487   4.677  17.096  0.00  0.00    +0.000 C 
ENDROOT
BRANCH   1   4
ATOM      2  C   UNL     1       6.860   4.288  13.606  0.00  0.00    +0.000 A 
ATOM      3  N   UNL     1       6.364   3.830  14.734  0.00  0.00    +0.000 NA
ATOM      4  C   UNL     1       6.860   4.728  15.653  0.00  0.00    +0.000 A 
ATOM      5  N   UNL     1       7.656   5.674  15.137  0.00  0.00    +0.000 NA
ATOM      6  O   UNL     1       7.649   5.389  13.771  0.00  0.00    +0.000 OA
BRANCH   2   7
ATOM      7  C   UNL     1       6.667   3.807  12.223  0.00  0.00    +0.000 C 
BRANCH   7   8
ATOM      8  C   UNL     1       5.600   2.722  12.154  0.00  0.00    +0.000 C 
BRANCH   8  10
ATOM      9  C   UNL     1       3.585   3.262  11.058  0.00  0.00    +0.000 C 
ATOM     10  O   UNL     1       4.926   2.814  10.898  0.00  0.00    +0.000 OA
ENDBRANCH   8  10
ENDBRANCH   7   8
ENDBRANCH   2   7
ENDBRANCH   1   4
BRANCH   1  11
ATOM     11  O   UNL     1       5.536   5.676  17.518  0.00  0.00    +0.000 OA
BRANCH  11  12
ATOM     12  C   UNL     1       4.328   5.162  18.092  0.00  0.00    +0.000 C 
ATOM     13  C   UNL     1       3.200   6.202  18.105  0.00  0.00    +0.000 C 
ATOM     14  C   UNL     1       1.894   5.584  18.609  0.00  0.00    +0.000 C 
ATOM     15  C   UNL     1       1.526   4.346  17.793  0.00  0.00    +0.000 C 
ATOM     16  N   UNL     1       2.630   3.388  17.796  0.00  0.00    +0.000 N 
ATOM     17  C   UNL     1       2.485   2.223  18.531  0.00  0.00    +0.000 C 
ATOM     18  C   UNL     1       3.592   1.195  18.543  0.00  0.00    +0.000 C 
ATOM     19  O   UNL     1       1.454   1.973  19.163  0.00  0.00    +0.000 OA
ATOM     20  C   UNL     1       3.884   3.933  17.269  0.00  0.00    +0.000 C 
ENDBRANCH  11  12
ENDBRANCH   1  11
TORSDOF 6
ENDMDL
MODEL 9
REMARK VINA RESULT:      -6.5      1.031      1.067
REMARK  Name = 
REMARK  8 active torsions:
REMARK  status: ('A' for Active; 'I' for Inactive)
REMARK    1  A    between atoms: C_1  and  O_2
REMARK    2  A    between atoms: O_2  and  C_3
REMARK    3  A    between atoms: C_3  and  C_4
REMARK    4  A    between atoms: C_4  and  C_5
REMARK    5  A    between atoms: C_7  and  C_8
REMARK    6  A    between atoms: C_8  and  O_9
REMARK    7  A    between atoms: O_9  and  C_10
REMARK    8  A    between atoms: C_15  and  C_16
REMARK                            x       y       z     vdW  Elec       q    Type
REMARK                         _______ _______ _______ _____ _____    ______ ____
ROOT
ATOM      1  C   UNL     1       7.011   4.939  17.830  0.00  0.00    +0.000 C 
ENDROOT
BRANCH   1   4
ATOM      2  C   UNL     1       8.241   8.211  18.338  0.00  0.00    +0.000 A 
ATOM      3  N   UNL     1       8.090   6.991  18.802  0.00  0.00    +0.000 NA
ATOM      4  C   UNL     1       7.359   6.390  17.801  0.00  0.00    +0.000 A 
ATOM      5  N   UNL     1       7.034   7.198  16.783  0.00  0.00    +0.000 NA
ATOM      6  O   UNL     1       7.630   8.410  17.134  0.00  0.00    +0.000 OA
BRANCH   2   7
ATOM      7  C   UNL     1       8.981   9.355  18.908  0.00  0.00    +0.000 C 
BRANCH   7   8
ATOM      8  C   UNL     1       9.080  10.506  17.916  0.00  0.00    +0.000 C 
BRANCH   8  10
ATOM      9  C   UNL     1       9.109  12.856  17.755  0.00  0.00    +0.000 C 
ATOM     10  O   UNL     1       8.960  11.740  18.625  0.00  0.00    +0.000 OA
ENDBRANCH   8  10
ENDBRANCH   7   8
ENDBRANCH   2   7
ENDBRANCH   1   4
BRANCH   1  11
ATOM     11  O   UNL     1       6.351   4.494  19.032  0.00  0.00    +0.000 OA
BRANCH  11  12
ATOM     12  C   UNL     1       4.933   4.691  19.057  0.00  0.00    +0.000 C 
ATOM     13  C   UNL     1       4.413   5.350  17.771  0.00  0.00    +0.000 C 
ATOM     14  C   UNL     1       2.886   5.432  17.779  0.00  0.00    +0.000 C 
ATOM     15  C   UNL     1       2.266   4.056  18.011  0.00  0.00    +0.000 C 
ATOM     16  N   UNL     1       2.795   3.460  19.237  0.00  0.00    +0.000 N 
ATOM     17  C   UNL     1       1.959   3.371  20.337  0.00  0.00    +0.000 C 
ATOM     18  C   UNL     1       2.457   2.741  21.617  0.00  0.00    +0.000 C 
ATOM     19  O   UNL     1       0.789   3.766  20.301  0.00  0.00    +0.000 OA
ATOM     20  C   UNL     1       4.254   3.317  19.240  0.00  0.00    +0.000 C 
ENDBRANCH  11  12
ENDBRANCH   1  11
TORSDOF 6
ENDMDL
