MODEL 1
REMARK VINA RESULT:      -8.9      0.000      0.000
REMARK  Name = 
REMARK  5 active torsions:
REMARK  status: ('A' for Active; 'I' for Inactive)
REMARK    1  A    between atoms: C_2  and  C_9
REMARK    2  A    between atoms: N_3  and  C_4
REMARK    3  A    between atoms: N_11  and  C_12
REMARK    4  A    between atoms: N_16  and  C_17
REMARK    5  A    between atoms: C_17  and  C_18
REMARK                            x       y       z     vdW  Elec       q    Type
REMARK                         _______ _______ _______ _____ _____    ______ ____
ROOT
ATOM      1  C   UNL     1       7.102   5.379  18.281  0.00  0.00    +0.000 C 
ATOM      2  C   UNL     1       7.115   4.537  16.998  0.00  0.00    +0.000 C 
ATOM      3  C   UNL     1       5.929   4.875  16.103  0.00  0.00    +0.000 C 
ATOM      4  C   UNL     1       4.601   4.762  16.853  0.00  0.00    +0.000 C 
ATOM      5  N   UNL     1       4.560   5.581  18.077  0.00  0.00    +0.000 NA
ATOM      6  C   UNL     1       5.715   5.304  18.959  0.00  0.00    +0.000 C 
ENDROOT
BRANCH   1   9
ATOM      7  C   UNL     1       8.321   8.749  18.275  0.00  0.00    +0.000 A 
ATOM      8  C   UNL     1       8.510   7.458  18.727  0.00  0.00    +0.000 A 
ATOM      9  N   UNL     1       7.612   6.718  18.021  0.00  0.00    +0.000 N 
ATOM     10  N   UNL     1       7.004   7.476  17.081  0.00  0.00    +0.000 NA
ATOM     11  N   UNL     1       7.412   8.728  17.244  0.00  0.00    +0.000 NA
BRANCH   7  13
ATOM     12  O   UNL     1       9.083  10.145  20.011  0.00  0.00    +0.000 OA
ATOM     13  C   UNL     1       8.924   9.960  18.809  0.00  0.00    +0.000 C 
ATOM     14  N   UNL     1       9.278  10.891  17.849  0.00  0.00    +0.000 N 
ATOM     15  H   UNL     1       9.014  10.686  16.892  0.00  0.00    +0.000 HD
BRANCH  14  16
ATOM     16  C   UNL     1       9.822  12.182  18.201  0.00  0.00    +0.000 C 
ATOM     17  C   UNL     1      10.949  12.618  17.275  0.00  0.00    +0.000 C 
ATOM     18  C   UNL     1      11.089  14.105  17.570  0.00  0.00    +0.000 C 
ATOM     19  C   UNL     1       9.689  14.583  17.955  0.00  0.00    +0.000 C 
ATOM     20  C   UNL     1       8.821  13.329  18.063  0.00  0.00    +0.000 C 
ENDBRANCH  14  16
ENDBRANCH   7  13
ENDBRANCH   1   9
BRANCH   5  21
ATOM     21  C   UNL     1       3.298   5.364  18.828  0.00  0.00    +0.000 C 
BRANCH  21  22
ATOM     22  C   UNL     1       2.541   6.640  19.143  0.00  0.00    +0.000 A 
ATOM     23  C   UNL     1       1.950   6.835  20.401  0.00  0.00    +0.000 A 
ATOM     24  C   UNL     1       1.335   8.050  20.717  0.00  0.00    +0.000 A 
ATOM     25  C   UNL     1       1.318   9.085  19.785  0.00  0.00    +0.000 A 
ATOM     26  C   UNL     1       1.907   8.901  18.531  0.00  0.00    +0.000 A 
ATOM     27  C   UNL     1       2.480   7.675  18.197  0.00  0.00    +0.000 A 
ATOM     28  O   UNL     1       1.989   9.896  17.589  0.00  0.00    +0.000 OA
ATOM     29  C   UNL     1       1.821  11.179  18.202  0.00  0.00    +0.000 C 
ATOM     30  C   UNL     1       0.585  11.177  19.084  0.00  0.00    +0.000 C 
ATOM     31  O   UNL     1       0.739  10.265  20.179  0.00  0.00    +0.000 OA
ENDBRANCH  21  22
ENDBRANCH   5  21
TORSDOF 5
ENDMDL
MODEL 2
REMARK VINA RESULT:      -8.7      1.212      1.247
REMARK  Name = 
REMARK  5 active torsions:
REMARK  status: ('A' for Active; 'I' for Inactive)
REMARK    1  A    between atoms: C_2  and  C_9
REMARK    2  A    between atoms: N_3  and  C_4
REMARK    3  A    between atoms: N_11  and  C_12
REMARK    4  A    between atoms: N_16  and  C_17
REMARK    5  A    between atoms: C_17  and  C_18
REMARK                            x       y       z     vdW  Elec       q    Type
REMARK                         _______ _______ _______ _____ _____    ______ ____
ROOT
ATOM      1  C   UNL     1       7.167   5.394  18.439  0.00  0.00    +0.000 C 
ATOM      2  C   UNL     1       7.326   4.429  17.256  0.00  0.00    +0.000 C 
ATOM      3  C   UNL     1       6.192   4.594  16.251  0.00  0.00    +0.000 C 
ATOM      4  C   UNL     1       4.821   4.469  16.917  0.00  0.00    +0.000 C 
ATOM      5  N   UNL     1       4.639   5.404  18.041  0.00  0.00    +0.000 NA
ATOM      6  C   UNL     1       5.740   5.296  19.025  0.00  0.00    +0.000 C 
ENDROOT
BRANCH   1   9
ATOM      7  C   UNL     1       8.236   8.804  18.167  0.00  0.00    +0.000 A 
ATOM      8  C   UNL     1       8.487   7.560  18.709  0.00  0.00    +0.000 A 
ATOM      9  N   UNL     1       7.614   6.731  18.073  0.00  0.00    +0.000 N 
ATOM     10  N   UNL     1       6.961   7.391  17.090  0.00  0.00    +0.000 NA
ATOM     11  N   UNL     1       7.316   8.668  17.155  0.00  0.00    +0.000 NA
BRANCH   7  13
ATOM     12  O   UNL     1       8.754  11.085  17.905  0.00  0.00    +0.000 OA
ATOM     13  C   UNL     1       8.791  10.076  18.601  0.00  0.00    +0.000 C 
ATOM     14  N   UNL     1       9.383  10.042  19.851  0.00  0.00    +0.000 N 
ATOM     15  H   UNL     1       9.450   9.137  20.303  0.00  0.00    +0.000 HD
BRANCH  14  16
ATOM     16  C   UNL     1      10.051  11.194  20.411  0.00  0.00    +0.000 C 
ATOM     17  C   UNL     1      11.069  11.806  19.459  0.00  0.00    +0.000 C 
ATOM     18  C   UNL     1      11.342  13.174  20.070  0.00  0.00    +0.000 C 
ATOM     19  C   UNL     1      10.039  13.587  20.756  0.00  0.00    +0.000 C 
ATOM     20  C   UNL     1       9.116  12.369  20.694  0.00  0.00    +0.000 C 
ENDBRANCH  14  16
ENDBRANCH   7  13
ENDBRANCH   1   9
BRANCH   5  21
ATOM     21  C   UNL     1       3.340   5.180  18.724  0.00  0.00    +0.000 C 
BRANCH  21  22
ATOM     22  C   UNL     1       2.598   6.456  19.070  0.00  0.00    +0.000 A 
ATOM     23  C   UNL     1       2.039   6.641  20.344  0.00  0.00    +0.000 A 
ATOM     24  C   UNL     1       1.439   7.856  20.687  0.00  0.00    +0.000 A 
ATOM     25  C   UNL     1       1.404   8.900  19.766  0.00  0.00    +0.000 A 
ATOM     26  C   UNL     1       1.960   8.726  18.496  0.00  0.00    +0.000 A 
ATOM     27  C   UNL     1       2.518   7.500  18.135  0.00  0.00    +0.000 A 
ATOM     28  O   UNL     1       2.024   9.730  17.562  0.00  0.00    +0.000 OA
ATOM     29  C   UNL     1       1.878  11.008  18.191  0.00  0.00    +0.000 C 
ATOM     30  C   UNL     1       0.664  11.002  19.104  0.00  0.00    +0.000 C 
ATOM     31  O   UNL     1       0.840  10.079  20.186  0.00  0.00    +0.000 OA
ENDBRANCH  21  22
ENDBRANCH   5  21
TORSDOF 5
ENDMDL
MODEL 3
REMARK VINA RESULT:      -8.6      1.449      1.973
REMARK  Name = 
REMARK  5 active torsions:
REMARK  status: ('A' for Active; 'I' for Inactive)
REMARK    1  A    between atoms: C_2  and  C_9
REMARK    2  A    between atoms: N_3  and  C_4
REMARK    3  A    between atoms: N_11  and  C_12
REMARK    4  A    between atoms: N_16  and  C_17
REMARK    5  A    between atoms: C_17  and  C_18
REMARK                            x       y       z     vdW  Elec       q    Type
REMARK                         _______ _______ _______ _____ _____    ______ ____
ROOT
ATOM      1  C   UNL     1       7.050   5.574  18.510  0.00  0.00    +0.000 C 
ATOM      2  C   UNL     1       7.327   4.519  17.431  0.00  0.00    +0.000 C 
ATOM      3  C   UNL     1       6.357   4.654  16.263  0.00  0.00    +0.000 C 
ATOM      4  C   UNL     1       4.901   4.634  16.730  0.00  0.00    +0.000 C 
ATOM      5  N   UNL     1       4.608   5.655  17.749  0.00  0.00    +0.000 NA
ATOM      6  C   UNL     1       5.551   5.577  18.888  0.00  0.00    +0.000 C 
ENDROOT
BRANCH   1   9
ATOM      7  C   UNL     1       8.352   8.897  18.175  0.00  0.00    +0.000 A 
ATOM      8  C   UNL     1       8.476   7.670  18.796  0.00  0.00    +0.000 A 
ATOM      9  N   UNL     1       7.611   6.861  18.124  0.00  0.00    +0.000 N 
ATOM     10  N   UNL     1       7.089   7.506  17.055  0.00  0.00    +0.000 NA
ATOM     11  N   UNL     1       7.517   8.762  17.092  0.00  0.00    +0.000 NA
BRANCH   7  13
ATOM     12  O   UNL     1       9.039  11.125  17.853  0.00  0.00    +0.000 OA
ATOM     13  C   UNL     1       8.946  10.155  18.598  0.00  0.00    +0.000 C 
ATOM     14  N   UNL     1       9.419  10.154  19.897  0.00  0.00    +0.000 N 
ATOM     15  H   UNL     1       9.385   9.273  20.398  0.00  0.00    +0.000 HD
BRANCH  14  16
ATOM     16  C   UNL     1      10.106  11.293  20.462  0.00  0.00    +0.000 C 
ATOM     17  C   UNL     1      11.184  11.846  19.540  0.00  0.00    +0.000 C 
ATOM     18  C   UNL     1      11.483  13.216  20.134  0.00  0.00    +0.000 C 
ATOM     19  C   UNL     1      10.169  13.691  20.757  0.00  0.00    +0.000 C 
ATOM     20  C   UNL     1       9.204  12.507  20.681  0.00  0.00    +0.000 C 
ENDBRANCH  14  16
ENDBRANCH   7  13
ENDBRANCH   1   9
BRANCH   5  21
ATOM     21  C   UNL     1       3.216   5.534  18.249  0.00  0.00    +0.000 C 
BRANCH  21  22
ATOM     22  C   UNL     1       2.593   6.853  18.663  0.00  0.00    +0.000 A 
ATOM     23  C   UNL     1       2.342   7.860  17.718  0.00  0.00    +0.000 A 
ATOM     24  C   UNL     1       1.682   9.035  18.089  0.00  0.00    +0.000 A 
ATOM     25  C   UNL     1       1.254   9.208  19.403  0.00  0.00    +0.000 A 
ATOM     26  C   UNL     1       1.496   8.209  20.351  0.00  0.00    +0.000 A 
ATOM     27  C   UNL     1       2.195   7.057  19.994  0.00  0.00    +0.000 A 
ATOM     28  O   UNL     1       1.045   8.280  21.645  0.00  0.00    +0.000 OA
ATOM     29  C   UNL     1      -0.026   9.225  21.750  0.00  0.00    +0.000 C 
ATOM     30  C   UNL     1       0.371  10.536  21.095  0.00  0.00    +0.000 C 
ATOM     31  O   UNL     1       0.572  10.365  19.686  0.00  0.00    +0.000 OA
ENDBRANCH  21  22
ENDBRANCH   5  21
TORSDOF 5
ENDMDL
MODEL 4
REMARK VINA RESULT:      -8.4      1.048      1.830
REMARK  Name = 
REMARK  5 active torsions:
REMARK  status: ('A' for Active; 'I' for Inactive)
REMARK    1  A    between atoms: C_2  and  C_9
REMARK    2  A    between atoms: N_3  and  C_4
REMARK    3  A    between atoms: N_11  and  C_12
REMARK    4  A    between atoms: N_16  and  C_17
REMARK    5  A    between atoms: C_17  and  C_18
REMARK                            x       y       z     vdW  Elec       q    Type
REMARK                         _______ _______ _______ _____ _____    ______ ____
ROOT
ATOM      1  C   UNL     1       6.971   5.487  18.341  0.00  0.00    +0.000 C 
ATOM      2  C   UNL     1       7.106   4.569  17.119  0.00  0.00    +0.000 C 
ATOM      3  C   UNL     1       6.066   4.905  16.056  0.00  0.00    +0.000 C 
ATOM      4  C   UNL     1       4.648   4.898  16.629  0.00  0.00    +0.000 C 
ATOM      5  N   UNL     1       4.491   5.791  17.790  0.00  0.00    +0.000 NA
ATOM      6  C   UNL     1       5.505   5.516  18.832  0.00  0.00    +0.000 C 
ENDROOT
BRANCH   1   9
ATOM      7  C   UNL     1       8.411   8.769  18.325  0.00  0.00    +0.000 A 
ATOM      8  C   UNL     1       8.494   7.479  18.809  0.00  0.00    +0.000 A 
ATOM      9  N   UNL     1       7.580   6.783  18.078  0.00  0.00    +0.000 N 
ATOM     10  N   UNL     1       7.065   7.559  17.098  0.00  0.00    +0.000 NA
ATOM     11  N   UNL     1       7.548   8.785  17.255  0.00  0.00    +0.000 NA
BRANCH   7  13
ATOM     12  O   UNL     1       9.134  10.180  20.064  0.00  0.00    +0.000 OA
ATOM     13  C   UNL     1       9.070   9.948  18.861  0.00  0.00    +0.000 C 
ATOM     14  N   UNL     1       9.594  10.795  17.902  0.00  0.00    +0.000 N 
ATOM     15  H   UNL     1       9.403  10.565  16.932  0.00  0.00    +0.000 HD
BRANCH  14  16
ATOM     16  C   UNL     1      10.219  12.050  18.248  0.00  0.00    +0.000 C 
ATOM     17  C   UNL     1       9.336  12.925  19.127  0.00  0.00    +0.000 C 
ATOM     18  C   UNL     1      10.305  13.965  19.673  0.00  0.00    +0.000 C 
ATOM     19  C   UNL     1      11.657  13.257  19.771  0.00  0.00    +0.000 C 
ATOM     20  C   UNL     1      11.480  11.895  19.098  0.00  0.00    +0.000 C 
ENDBRANCH  14  16
ENDBRANCH   7  13
ENDBRANCH   1   9
BRANCH   5  21
ATOM     21  C   UNL     1       3.132   5.676  18.378  0.00  0.00    +0.000 C 
BRANCH  21  22
ATOM     22  C   UNL     1       2.514   7.006  18.763  0.00  0.00    +0.000 A 
ATOM     23  C   UNL     1       2.303   8.008  17.804  0.00  0.00    +0.000 A 
ATOM     24  C   UNL     1       1.647   9.194  18.147  0.00  0.00    +0.000 A 
ATOM     25  C   UNL     1       1.184   9.383  19.447  0.00  0.00    +0.000 A 
ATOM     26  C   UNL     1       1.386   8.389  20.408  0.00  0.00    +0.000 A 
ATOM     27  C   UNL     1       2.080   7.225  20.081  0.00  0.00    +0.000 A 
ATOM     28  O   UNL     1       0.898   8.475  21.689  0.00  0.00    +0.000 OA
ATOM     29  C   UNL     1      -0.163   9.433  21.756  0.00  0.00    +0.000 C 
ATOM     30  C   UNL     1       0.269  10.735  21.102  0.00  0.00    +0.000 C 
ATOM     31  O   UNL     1       0.508  10.550  19.701  0.00  0.00    +0.000 OA
ENDBRANCH  21  22
ENDBRANCH   5  21
TORSDOF 5
ENDMDL
MODEL 5
REMARK VINA RESULT:      -8.4      0.785      1.060
REMARK  Name = 
REMARK  5 active torsions:
REMARK  status: ('A' for Active; 'I' for Inactive)
REMARK    1  A    between atoms: C_2  and  C_9
REMARK    2  A    between atoms: N_3  and  C_4
REMARK    3  A    between atoms: N_11  and  C_12
REMARK    4  A    between atoms: N_16  and  C_17
REMARK    5  A    between atoms: C_17  and  C_18
REMARK                            x       y       z     vdW  Elec       q    Type
REMARK                         _______ _______ _______ _____ _____    ______ ____
ROOT
ATOM      1  C   UNL     1       7.128   5.592  18.572  0.00  0.00    +0.000 C 
ATOM      2  C   UNL     1       7.646   4.530  17.592  0.00  0.00    +0.000 C 
ATOM      3  C   UNL     1       6.869   4.560  16.281  0.00  0.00    +0.000 C 
ATOM      4  C   UNL     1       5.362   4.444  16.513  0.00  0.00    +0.000 C 
ATOM      5  N   UNL     1       4.840   5.469  17.433  0.00  0.00    +0.000 NA
ATOM      6  C   UNL     1       5.591   5.493  18.708  0.00  0.00    +0.000 C 
ENDROOT
BRANCH   1   9
ATOM      7  C   UNL     1       8.415   8.930  18.359  0.00  0.00    +0.000 A 
ATOM      8  C   UNL     1       8.599   7.656  18.858  0.00  0.00    +0.000 A 
ATOM      9  N   UNL     1       7.653   6.906  18.229  0.00  0.00    +0.000 N 
ATOM     10  N   UNL     1       7.017   7.637  17.285  0.00  0.00    +0.000 NA
ATOM     11  N   UNL     1       7.458   8.885  17.373  0.00  0.00    +0.000 NA
BRANCH   7  13
ATOM     12  O   UNL     1       9.068  10.502  19.984  0.00  0.00    +0.000 OA
ATOM     13  C   UNL     1       9.068  10.148  18.810  0.00  0.00    +0.000 C 
ATOM     14  N   UNL     1       9.664  10.882  17.801  0.00  0.00    +0.000 N 
ATOM     15  H   UNL     1       9.523  10.556  16.851  0.00  0.00    +0.000 HD
BRANCH  14  16
ATOM     16  C   UNL     1      10.295  12.157  18.053  0.00  0.00    +0.000 C 
ATOM     17  C   UNL     1       9.347  13.170  18.679  0.00  0.00    +0.000 C 
ATOM     18  C   UNL     1      10.284  14.250  19.202  0.00  0.00    +0.000 C 
ATOM     19  C   UNL     1      11.580  13.528  19.574  0.00  0.00    +0.000 C 
ATOM     20  C   UNL     1      11.429  12.090  19.076  0.00  0.00    +0.000 C 
ENDBRANCH  14  16
ENDBRANCH   7  13
ENDBRANCH   1   9
BRANCH   5  21
ATOM     21  C   UNL     1       3.397   5.258  17.710  0.00  0.00    +0.000 C 
BRANCH  21  22
ATOM     22  C   UNL     1       2.712   6.450  18.350  0.00  0.00    +0.000 A 
ATOM     23  C   UNL     1       2.296   6.409  19.690  0.00  0.00    +0.000 A 
ATOM     24  C   UNL     1       1.751   7.542  20.300  0.00  0.00    +0.000 A 
ATOM     25  C   UNL     1       1.630   8.730  19.582  0.00  0.00    +0.000 A 
ATOM     26  C   UNL     1       2.045   8.782  18.249  0.00  0.00    +0.000 A 
ATOM     27  C   UNL     1       2.546   7.640  17.624  0.00  0.00    +0.000 A 
ATOM     28  O   UNL     1       2.021   9.932  17.501  0.00  0.00    +0.000 OA
ATOM     29  C   UNL     1       1.959  11.081  18.353  0.00  0.00    +0.000 C 
ATOM     30  C   UNL     1       0.850  10.910  19.377  0.00  0.00    +0.000 C 
ATOM     31  O   UNL     1       1.130   9.815  20.258  0.00  0.00    +0.000 OA
ENDBRANCH  21  22
ENDBRANCH   5  21
TORSDOF 5
ENDMDL
MODEL 6
REMARK VINA RESULT:      -8.1      4.690      6.509
REMARK  Name = 
REMARK  5 active torsions:
REMARK  status: ('A' for Active; 'I' for Inactive)
REMARK    1  A    between atoms: C_2  and  C_9
REMARK    2  A    between atoms: N_3  and  C_4
REMARK    3  A    between atoms: N_11  and  C_12
REMARK    4  A    between atoms: N_16  and  C_17
REMARK    5  A    between atoms: C_17  and  C_18
REMARK                            x       y       z     vdW  Elec       q    Type
REMARK                         _______ _______ _______ _____ _____    ______ ____
ROOT
ATOM      1  C   UNL     1       4.960   3.763  19.327  0.00  0.00    +0.000 C 
ATOM      2  C   UNL     1       4.126   2.532  18.945  0.00  0.00    +0.000 C 
ATOM      3  C   UNL     1       2.834   2.935  18.244  0.00  0.00    +0.000 C 
ATOM      4  C   UNL     1       2.032   3.942  19.069  0.00  0.00    +0.000 C 
ATOM      5  N   UNL     1       2.807   5.142  19.426  0.00  0.00    +0.000 NA
ATOM      6  C   UNL     1       4.087   4.791  20.082  0.00  0.00    +0.000 C 
ENDROOT
BRANCH   1   9
ATOM      7  C   UNL     1       6.453   4.536  16.161  0.00  0.00    +0.000 A 
ATOM      8  C   UNL     1       5.281   4.386  16.874  0.00  0.00    +0.000 A 
ATOM      9  N   UNL     1       5.684   4.271  18.169  0.00  0.00    +0.000 N 
ATOM     10  N   UNL     1       7.015   4.484  18.274  0.00  0.00    +0.000 NA
ATOM     11  N   UNL     1       7.501   4.623  17.047  0.00  0.00    +0.000 NA
BRANCH   7  13
ATOM     12  O   UNL     1       7.232   5.423  14.125  0.00  0.00    +0.000 OA
ATOM     13  C   UNL     1       6.602   4.552  14.715  0.00  0.00    +0.000 C 
ATOM     14  N   UNL     1       5.955   3.517  14.064  0.00  0.00    +0.000 N 
ATOM     15  H   UNL     1       5.380   2.905  14.633  0.00  0.00    +0.000 HD
BRANCH  14  16
ATOM     16  C   UNL     1       5.934   3.415  12.623  0.00  0.00    +0.000 C 
ATOM     17  C   UNL     1       6.366   2.043  12.124  0.00  0.00    +0.000 C 
ATOM     18  C   UNL     1       5.902   2.036  10.674  0.00  0.00    +0.000 C 
ATOM     19  C   UNL     1       4.650   2.914  10.637  0.00  0.00    +0.000 C 
ATOM     20  C   UNL     1       4.538   3.561  12.018  0.00  0.00    +0.000 C 
ENDBRANCH  14  16
ENDBRANCH   7  13
ENDBRANCH   1   9
BRANCH   5  21
ATOM     21  C   UNL     1       2.027   6.044  20.310  0.00  0.00    +0.000 C 
BRANCH  21  22
ATOM     22  C   UNL     1       1.890   7.458  19.782  0.00  0.00    +0.000 A 
ATOM     23  C   UNL     1       2.330   7.792  18.492  0.00  0.00    +0.000 A 
ATOM     24  C   UNL     1       2.115   9.073  17.976  0.00  0.00    +0.000 A 
ATOM     25  C   UNL     1       1.447  10.028  18.739  0.00  0.00    +0.000 A 
ATOM     26  C   UNL     1       1.002   9.704  20.024  0.00  0.00    +0.000 A 
ATOM     27  C   UNL     1       1.256   8.441  20.558  0.00  0.00    +0.000 A 
ATOM     28  O   UNL     1       0.278  10.569  20.806  0.00  0.00    +0.000 OA
ATOM     29  C   UNL     1      -0.315  11.594  20.000  0.00  0.00    +0.000 C 
ATOM     30  C   UNL     1       0.734  12.212  19.091  0.00  0.00    +0.000 C 
ATOM     31  O   UNL     1       1.230  11.250  18.153  0.00  0.00    +0.000 OA
ENDBRANCH  21  22
ENDBRANCH   5  21
TORSDOF 5
ENDMDL
MODEL 7
REMARK VINA RESULT:      -7.9      5.091      8.188
REMARK  Name = 
REMARK  5 active torsions:
REMARK  status: ('A' for Active; 'I' for Inactive)
REMARK    1  A    between atoms: C_2  and  C_9
REMARK    2  A    between atoms: N_3  and  C_4
REMARK    3  A    between atoms: N_11  and  C_12
REMARK    4  A    between atoms: N_16  and  C_17
REMARK    5  A    between atoms: C_17  and  C_18
REMARK                            x       y       z     vdW  Elec       q    Type
REMARK                         _______ _______ _______ _____ _____    ______ ____
ROOT
ATOM      1  C   UNL     1       1.220   4.520  19.719  0.00  0.00    +0.000 C 
ATOM      2  C   UNL     1       1.145   3.640  20.974  0.00  0.00    +0.000 C 
ATOM      3  C   UNL     1       2.532   3.186  21.415  0.00  0.00    +0.000 C 
ATOM      4  C   UNL     1       3.294   2.506  20.277  0.00  0.00    +0.000 C 
ATOM      5  N   UNL     1       3.397   3.344  19.071  0.00  0.00    +0.000 NA
ATOM      6  C   UNL     1       2.071   3.831  18.629  0.00  0.00    +0.000 C 
ENDROOT
BRANCH   1   9
ATOM      7  C   UNL     1       1.583   7.920  20.795  0.00  0.00    +0.000 A 
ATOM      8  C   UNL     1       1.288   6.623  21.163  0.00  0.00    +0.000 A 
ATOM      9  N   UNL     1       1.611   5.879  20.069  0.00  0.00    +0.000 N 
ATOM     10  N   UNL     1       2.210   6.647  19.131  0.00  0.00    +0.000 NA
ATOM     11  N   UNL     1       2.175   7.904  19.554  0.00  0.00    +0.000 NA
BRANCH   7  13
ATOM     12  O   UNL     1       1.916   9.462  22.542  0.00  0.00    +0.000 OA
ATOM     13  C   UNL     1       1.286   9.131  21.543  0.00  0.00    +0.000 C 
ATOM     14  N   UNL     1       0.219   9.859  21.048  0.00  0.00    +0.000 N 
ATOM     15  H   UNL     1      -0.298   9.450  20.278  0.00  0.00    +0.000 HD
BRANCH  14  16
ATOM     16  C   UNL     1      -0.264  11.051  21.706  0.00  0.00    +0.000 C 
ATOM     17  C   UNL     1      -1.249  11.837  20.852  0.00  0.00    +0.000 C 
ATOM     18  C   UNL     1      -1.901  12.783  21.851  0.00  0.00    +0.000 C 
ATOM     19  C   UNL     1      -1.902  12.037  23.186  0.00  0.00    +0.000 C 
ATOM     20  C   UNL     1      -1.077  10.768  22.969  0.00  0.00    +0.000 C 
ENDBRANCH  14  16
ENDBRANCH   7  13
ENDBRANCH   1   9
BRANCH   5  21
ATOM     21  C   UNL     1       4.052   2.610  17.959  0.00  0.00    +0.000 C 
BRANCH  21  22
ATOM     22  C   UNL     1       4.989   3.461  17.125  0.00  0.00    +0.000 A 
ATOM     23  C   UNL     1       5.976   4.253  17.732  0.00  0.00    +0.000 A 
ATOM     24  C   UNL     1       6.897   4.962  16.954  0.00  0.00    +0.000 A 
ATOM     25  C   UNL     1       6.847   4.875  15.565  0.00  0.00    +0.000 A 
ATOM     26  C   UNL     1       5.870   4.087  14.951  0.00  0.00    +0.000 A 
ATOM     27  C   UNL     1       4.922   3.416  15.723  0.00  0.00    +0.000 A 
ATOM     28  O   UNL     1       5.802   3.899  13.593  0.00  0.00    +0.000 OA
ATOM     29  C   UNL     1       7.058   4.217  12.982  0.00  0.00    +0.000 C 
ATOM     30  C   UNL     1       7.539   5.577  13.459  0.00  0.00    +0.000 C 
ATOM     31  O   UNL     1       7.810   5.560  14.866  0.00  0.00    +0.000 OA
ENDBRANCH  21  22
ENDBRANCH   5  21
TORSDOF 5
ENDMDL
MODEL 8
REMARK VINA RESULT:      -7.9      1.244      1.455
REMARK  Name = 
REMARK  5 active torsions:
REMARK  status: ('A' for Active; 'I' for Inactive)
REMARK    1  A    between atoms: C_2  and  C_9
REMARK    2  A    between atoms: N_3  and  C_4
REMARK    3  A    between atoms: N_11  and  C_12
REMARK    4  A    between atoms: N_16  and  C_17
REMARK    5  A    between atoms: C_17  and  C_18
REMARK                            x       y       z     vdW  Elec       q    Type
REMARK                         _______ _______ _______ _____ _____    ______ ____
ROOT
ATOM      1  C   UNL     1       6.344   4.623  18.250  0.00  0.00    +0.000 C 
ATOM      2  C   UNL     1       5.817   3.961  16.969  0.00  0.00    +0.000 C 
ATOM      3  C   UNL     1       4.621   4.721  16.406  0.00  0.00    +0.000 C 
ATOM      4  C   UNL     1       3.522   4.905  17.454  0.00  0.00    +0.000 C 
ATOM      5  N   UNL     1       4.002   5.560  18.683  0.00  0.00    +0.000 NA
ATOM      6  C   UNL     1       5.185   4.869  19.243  0.00  0.00    +0.000 C 
ENDROOT
BRANCH   1   9
ATOM      7  C   UNL     1       7.965   7.793  17.848  0.00  0.00    +0.000 A 
ATOM      8  C   UNL     1       7.580   6.802  18.728  0.00  0.00    +0.000 A 
ATOM      9  N   UNL     1       7.164   5.782  17.928  0.00  0.00    +0.000 N 
ATOM     10  N   UNL     1       7.413   6.064  16.629  0.00  0.00    +0.000 NA
ATOM     11  N   UNL     1       7.882   7.304  16.566  0.00  0.00    +0.000 NA
BRANCH   7  13
ATOM     12  O   UNL     1       7.884  10.133  17.607  0.00  0.00    +0.000 OA
ATOM     13  C   UNL     1       8.352   9.155  18.180  0.00  0.00    +0.000 C 
ATOM     14  N   UNL     1       9.307   9.251  19.176  0.00  0.00    +0.000 N 
ATOM     15  H   UNL     1       9.703   8.381  19.517  0.00  0.00    +0.000 HD
BRANCH  14  16
ATOM     16  C   UNL     1       9.863  10.520  19.583  0.00  0.00    +0.000 C 
ATOM     17  C   UNL     1      10.217  11.414  18.403  0.00  0.00    +0.000 C 
ATOM     18  C   UNL     1      10.397  12.784  19.043  0.00  0.00    +0.000 C 
ATOM     19  C   UNL     1       9.446  12.809  20.240  0.00  0.00    +0.000 C 
ATOM     20  C   UNL     1       8.889  11.391  20.376  0.00  0.00    +0.000 C 
ENDBRANCH  14  16
ENDBRANCH   7  13
ENDBRANCH   1   9
BRANCH   5  21
ATOM     21  C   UNL     1       2.933   5.626  19.710  0.00  0.00    +0.000 C 
BRANCH  21  22
ATOM     22  C   UNL     1       2.220   6.963  19.772  0.00  0.00    +0.000 A 
ATOM     23  C   UNL     1       1.531   7.360  20.929  0.00  0.00    +0.000 A 
ATOM     24  C   UNL     1       0.956   8.631  21.013  0.00  0.00    +0.000 A 
ATOM     25  C   UNL     1       1.076   9.522  19.948  0.00  0.00    +0.000 A 
ATOM     26  C   UNL     1       1.763   9.137  18.794  0.00  0.00    +0.000 A 
ATOM     27  C   UNL     1       2.298   7.853  18.689  0.00  0.00    +0.000 A 
ATOM     28  O   UNL     1       1.981   9.982  17.735  0.00  0.00    +0.000 OA
ATOM     29  C   UNL     1       1.828  11.346  18.144  0.00  0.00    +0.000 C 
ATOM     30  C   UNL     1       0.520  11.519  18.897  0.00  0.00    +0.000 C 
ATOM     31  O   UNL     1       0.528  10.769  20.118  0.00  0.00    +0.000 OA
ENDBRANCH  21  22
ENDBRANCH   5  21
TORSDOF 5
ENDMDL
MODEL 9
REMARK VINA RESULT:      -7.8      5.804     10.193
REMARK  Name = 
REMARK  5 active torsions:
REMARK  status: ('A' for Active; 'I' for Inactive)
REMARK    1  A    between atoms: C_2  and  C_9
REMARK    2  A    between atoms: N_3  and  C_4
REMARK    3  A    between atoms: N_11  and  C_12
REMARK    4  A    between atoms: N_16  and  C_17
REMARK    5  A    between atoms: C_17  and  C_18
REMARK                            x       y       z     vdW  Elec       q    Type
REMARK                         _______ _______ _______ _____ _____    ______ ____
ROOT
ATOM      1  C   UNL     1       0.100  11.956  19.283  0.00  0.00    +0.000 C 
ATOM      2  C   UNL     1      -0.929  11.778  18.158  0.00  0.00    +0.000 C 
ATOM      3  C   UNL     1      -1.252  10.305  17.932  0.00  0.00    +0.000 C 
ATOM      4  C   UNL     1       0.011   9.477  17.695  0.00  0.00    +0.000 C 
ATOM      5  N   UNL     1       1.002   9.616  18.775  0.00  0.00    +0.000 NA
ATOM      6  C   UNL     1       1.319  11.036  19.047  0.00  0.00    +0.000 C 
ENDROOT
BRANCH   1   9
ATOM      7  C   UNL     1      -1.732  12.244  22.351  0.00  0.00    +0.000 A 
ATOM      8  C   UNL     1      -1.796  12.200  20.973  0.00  0.00    +0.000 A 
ATOM      9  N   UNL     1      -0.541  11.841  20.586  0.00  0.00    +0.000 N 
ATOM     10  N   UNL     1       0.219  11.536  21.662  0.00  0.00    +0.000 NA
ATOM     11  N   UNL     1      -0.492  11.803  22.750  0.00  0.00    +0.000 NA
BRANCH   7  13
ATOM     12  O   UNL     1      -3.468  11.960  23.915  0.00  0.00    +0.000 OA
ATOM     13  C   UNL     1      -2.762  12.720  23.260  0.00  0.00    +0.000 C 
ATOM     14  N   UNL     1      -2.892  14.096  23.303  0.00  0.00    +0.000 N 
ATOM     15  H   UNL     1      -2.330  14.632  22.651  0.00  0.00    +0.000 HD
BRANCH  14  16
ATOM     16  C   UNL     1      -3.913  14.743  24.095  0.00  0.00    +0.000 C 
ATOM     17  C   UNL     1      -3.547  16.172  24.473  0.00  0.00    +0.000 C 
ATOM     18  C   UNL     1      -4.872  16.762  24.935  0.00  0.00    +0.000 C 
ATOM     19  C   UNL     1      -5.950  16.044  24.121  0.00  0.00    +0.000 C 
ATOM     20  C   UNL     1      -5.238  14.927  23.357  0.00  0.00    +0.000 C 
ENDBRANCH  14  16
ENDBRANCH   7  13
ENDBRANCH   1   9
BRANCH   5  21
ATOM     21  C   UNL     1       2.252   8.880  18.457  0.00  0.00    +0.000 C 
BRANCH  21  22
ATOM     22  C   UNL     1       2.262   7.444  18.942  0.00  0.00    +0.000 A 
ATOM     23  C   UNL     1       1.856   7.120  20.246  0.00  0.00    +0.000 A 
ATOM     24  C   UNL     1       1.778   5.786  20.656  0.00  0.00    +0.000 A 
ATOM     25  C   UNL     1       2.091   4.764  19.763  0.00  0.00    +0.000 A 
ATOM     26  C   UNL     1       2.493   5.076  18.462  0.00  0.00    +0.000 A 
ATOM     27  C   UNL     1       2.617   6.407  18.065  0.00  0.00    +0.000 A 
ATOM     28  O   UNL     1       2.751   4.123  17.508  0.00  0.00    +0.000 OA
ATOM     29  C   UNL     1       2.142   2.878  17.869  0.00  0.00    +0.000 C 
ATOM     30  C   UNL     1       2.496   2.522  19.302  0.00  0.00    +0.000 C 
ATOM     31  O   UNL     1       1.948   3.477  20.219  0.00  0.00    +0.000 OA
ENDBRANCH  21  22
ENDBRANCH   5  21
TORSDOF 5
ENDMDL
