MODEL 1
REMARK VINA RESULT:      -7.0      0.000      0.000
REMARK  Name = 
REMARK  5 active torsions:
REMARK  status: ('A' for Active; 'I' for Inactive)
REMARK    1  A    between atoms: N_1  and  S_2
REMARK    2  A    between atoms: S_2  and  C_5
REMARK    3  A    between atoms: N_9  and  S_10
REMARK    4  A    between atoms: S_10  and  C_12
REMARK    5  A    between atoms: C_15  and  N_16
REMARK                            x       y       z     vdW  Elec       q    Type
REMARK                         _______ _______ _______ _____ _____    ______ ____
ROOT
ATOM      1  C   UNL     1       0.742   9.630  20.868  0.00  0.00    +0.000 A 
ATOM      2  N   UNL     1       1.007   8.631  21.682  0.00  0.00    +0.000 NA
ATOM      3  N   UNL     1       1.665   7.614  21.021  0.00  0.00    +0.000 NA
ATOM      4  C   UNL     1       1.881   7.878  19.744  0.00  0.00    +0.000 A 
ATOM      5  N   UNL     1       2.557   7.110  18.858  0.00  0.00    +0.000 N 
ATOM      6  S   UNL     1       1.232   9.405  19.253  0.00  0.00    +0.000 S 
ATOM      7  H   UNL     1       2.401   7.281  17.872  0.00  0.00    +0.000 HD
ENDROOT
BRANCH   1   8
ATOM      8  S   UNL     1       0.029  11.169  21.334  0.00  0.00    +0.000 S 
ATOM      9  O   UNL     1      -1.166  11.341  20.542  0.00  0.00    +0.000 OA
ATOM     10  O   UNL     1       1.111  12.130  21.313  0.00  0.00    +0.000 OA
BRANCH   8  11
ATOM     11  N   UNL     1      -0.460  11.089  22.948  0.00  0.00    +0.000 NA
ATOM     12  H   UNL     1      -0.670  10.122  23.197  0.00  0.00    +0.000 HD
ATOM     13  H   UNL     1      -1.253  11.709  23.113  0.00  0.00    +0.000 HD
ENDBRANCH   8  11
ENDBRANCH   1   8
BRANCH   5  14
ATOM     14  S   UNL     1       2.847   5.513  19.246  0.00  0.00    +0.000 S 
ATOM     15  O   UNL     1       1.553   4.699  18.898  0.00  0.00    +0.000 OA
BRANCH  14  16
ATOM     16  C   UNL     1       3.969   5.292  17.831  0.00  0.00    +0.000 A 
ATOM     17  C   UNL     1       4.470   6.420  17.162  0.00  0.00    +0.000 A 
ATOM     18  C   UNL     1       5.330   6.270  16.071  0.00  0.00    +0.000 A 
ATOM     19  C   UNL     1       5.697   4.984  15.646  0.00  0.00    +0.000 A 
ATOM     20  C   UNL     1       5.212   3.850  16.311  0.00  0.00    +0.000 A 
ATOM     21  C   UNL     1       4.350   4.010  17.404  0.00  0.00    +0.000 A 
BRANCH  19  22
ATOM     22  N   UNL     1       6.599   4.828  14.497  0.00  0.00    +0.000 N 
ATOM     23  O   UNL     1       7.647   5.489  14.493  0.00  0.00    +0.000 OA
ATOM     24  O   UNL     1       6.257   4.049  13.597  0.00  0.00    +0.000 OA
ENDBRANCH  19  22
ENDBRANCH  14  16
ENDBRANCH   5  14
TORSDOF 5
ENDMDL
MODEL 2
REMARK VINA RESULT:      -6.9      0.850      1.203
REMARK  Name = 
REMARK  5 active torsions:
REMARK  status: ('A' for Active; 'I' for Inactive)
REMARK    1  A    between atoms: N_1  and  S_2
REMARK    2  A    between atoms: S_2  and  C_5
REMARK    3  A    between atoms: N_9  and  S_10
REMARK    4  A    between atoms: S_10  and  C_12
REMARK    5  A    between atoms: C_15  and  N_16
REMARK                            x       y       z     vdW  Elec       q    Type
REMARK                         _______ _______ _______ _____ _____    ______ ____
ROOT
ATOM      1  C   UNL     1       0.972   9.476  20.770  0.00  0.00    +0.000 A 
ATOM      2  N   UNL     1       1.222   8.418  21.510  0.00  0.00    +0.000 NA
ATOM      3  N   UNL     1       1.774   7.404  20.755  0.00  0.00    +0.000 NA
ATOM      4  C   UNL     1       1.929   7.727  19.484  0.00  0.00    +0.000 A 
ATOM      5  N   UNL     1       2.500   6.972  18.517  0.00  0.00    +0.000 N 
ATOM      6  S   UNL     1       1.349   9.316  19.117  0.00  0.00    +0.000 S 
ATOM      7  H   UNL     1       2.297   7.209  17.553  0.00  0.00    +0.000 HD
ENDROOT
BRANCH   1   8
ATOM      8  S   UNL     1       0.387  11.027  21.361  0.00  0.00    +0.000 S 
ATOM      9  O   UNL     1       1.376  12.017  21.007  0.00  0.00    +0.000 OA
ATOM     10  O   UNL     1      -0.021  10.802  22.731  0.00  0.00    +0.000 OA
BRANCH   8  11
ATOM     11  N   UNL     1      -1.031  11.434  20.538  0.00  0.00    +0.000 NA
ATOM     12  H   UNL     1      -1.833  11.328  21.160  0.00  0.00    +0.000 HD
ATOM     13  H   UNL     1      -1.126  10.874  19.690  0.00  0.00    +0.000 HD
ENDBRANCH   8  11
ENDBRANCH   1   8
BRANCH   5  14
ATOM     14  S   UNL     1       2.712   5.341  18.800  0.00  0.00    +0.000 S 
ATOM     15  O   UNL     1       1.429   4.601  18.284  0.00  0.00    +0.000 OA
BRANCH  14  16
ATOM     16  C   UNL     1       3.942   5.190  17.468  0.00  0.00    +0.000 A 
ATOM     17  C   UNL     1       4.520   6.349  16.925  0.00  0.00    +0.000 A 
ATOM     18  C   UNL     1       5.464   6.252  15.898  0.00  0.00    +0.000 A 
ATOM     19  C   UNL     1       5.837   4.990  15.412  0.00  0.00    +0.000 A 
ATOM     20  C   UNL     1       5.275   3.826  15.953  0.00  0.00    +0.000 A 
ATOM     21  C   UNL     1       4.330   3.932  16.981  0.00  0.00    +0.000 A 
BRANCH  19  22
ATOM     22  N   UNL     1       6.827   4.891  14.332  0.00  0.00    +0.000 N 
ATOM     23  O   UNL     1       6.590   4.105  13.403  0.00  0.00    +0.000 OA
ATOM     24  O   UNL     1       7.843   5.595  14.414  0.00  0.00    +0.000 OA
ENDBRANCH  19  22
ENDBRANCH  14  16
ENDBRANCH   5  14
TORSDOF 5
ENDMDL
MODEL 3
REMARK VINA RESULT:      -6.6      1.197      1.254
REMARK  Name = 
REMARK  5 active torsions:
REMARK  status: ('A' for Active; 'I' for Inactive)
REMARK    1  A    between atoms: N_1  and  S_2
REMARK    2  A    between atoms: S_2  and  C_5
REMARK    3  A    between atoms: N_9  and  S_10
REMARK    4  A    between atoms: S_10  and  C_12
REMARK    5  A    between atoms: C_15  and  N_16
REMARK                            x       y       z     vdW  Elec       q    Type
REMARK                         _______ _______ _______ _____ _____    ______ ____
ROOT
ATOM      1  C   UNL     1       0.524  10.066  19.840  0.00  0.00    +0.000 A 
ATOM      2  N   UNL     1       0.829   9.218  20.798  0.00  0.00    +0.000 NA
ATOM      3  N   UNL     1       1.580   8.168  20.310  0.00  0.00    +0.000 NA
ATOM      4  C   UNL     1       1.822   8.260  19.014  0.00  0.00    +0.000 A 
ATOM      5  N   UNL     1       2.580   7.424  18.268  0.00  0.00    +0.000 N 
ATOM      6  S   UNL     1       1.085   9.647  18.287  0.00  0.00    +0.000 S 
ATOM      7  H   UNL     1       2.448   7.438  17.263  0.00  0.00    +0.000 HD
ENDROOT
BRANCH   1   8
ATOM      8  S   UNL     1      -0.311  11.600  20.055  0.00  0.00    +0.000 S 
ATOM      9  O   UNL     1       0.453  12.603  19.350  0.00  0.00    +0.000 OA
ATOM     10  O   UNL     1      -0.594  11.703  21.470  0.00  0.00    +0.000 OA
BRANCH   8  11
ATOM     11  N   UNL     1      -1.822  11.519  19.306  0.00  0.00    +0.000 NA
ATOM     12  H   UNL     1      -2.530  11.243  19.987  0.00  0.00    +0.000 HD
ATOM     13  H   UNL     1      -1.791  10.885  18.506  0.00  0.00    +0.000 HD
ENDBRANCH   8  11
ENDBRANCH   1   8
BRANCH   5  14
ATOM     14  S   UNL     1       2.967   5.926  18.894  0.00  0.00    +0.000 S 
ATOM     15  O   UNL     1       1.724   4.993  18.690  0.00  0.00    +0.000 OA
BRANCH  14  16
ATOM     16  C   UNL     1       4.098   5.555  17.517  0.00  0.00    +0.000 A 
ATOM     17  C   UNL     1       4.638   6.610  16.763  0.00  0.00    +0.000 A 
ATOM     18  C   UNL     1       5.506   6.345  15.699  0.00  0.00    +0.000 A 
ATOM     19  C   UNL     1       5.839   5.018  15.387  0.00  0.00    +0.000 A 
ATOM     20  C   UNL     1       5.314   3.958  16.138  0.00  0.00    +0.000 A 
ATOM     21  C   UNL     1       4.445   4.232  17.202  0.00  0.00    +0.000 A 
BRANCH  19  22
ATOM     22  N   UNL     1       6.748   4.741  14.267  0.00  0.00    +0.000 N 
ATOM     23  O   UNL     1       7.759   5.449  14.157  0.00  0.00    +0.000 OA
ATOM     24  O   UNL     1       6.449   3.819  13.496  0.00  0.00    +0.000 OA
ENDBRANCH  19  22
ENDBRANCH  14  16
ENDBRANCH   5  14
TORSDOF 5
ENDMDL
MODEL 4
REMARK VINA RESULT:      -6.6      1.228      1.842
REMARK  Name = 
REMARK  5 active torsions:
REMARK  status: ('A' for Active; 'I' for Inactive)
REMARK    1  A    between atoms: N_1  and  S_2
REMARK    2  A    between atoms: S_2  and  C_5
REMARK    3  A    between atoms: N_9  and  S_10
REMARK    4  A    between atoms: S_10  and  C_12
REMARK    5  A    between atoms: C_15  and  N_16
REMARK                            x       y       z     vdW  Elec       q    Type
REMARK                         _______ _______ _______ _____ _____    ______ ____
ROOT
ATOM      1  C   UNL     1       0.429  10.010  19.838  0.00  0.00    +0.000 A 
ATOM      2  N   UNL     1       0.748   9.185  20.811  0.00  0.00    +0.000 NA
ATOM      3  N   UNL     1       1.575   8.178  20.356  0.00  0.00    +0.000 NA
ATOM      4  C   UNL     1       1.856   8.278  19.070  0.00  0.00    +0.000 A 
ATOM      5  N   UNL     1       2.687   7.484  18.355  0.00  0.00    +0.000 N 
ATOM      6  S   UNL     1       1.068   9.618  18.309  0.00  0.00    +0.000 S 
ATOM      7  H   UNL     1       2.590   7.487  17.347  0.00  0.00    +0.000 HD
ENDROOT
BRANCH   1   8
ATOM      8  S   UNL     1      -0.499  11.494  20.015  0.00  0.00    +0.000 S 
ATOM      9  O   UNL     1       0.390  12.591  19.712  0.00  0.00    +0.000 OA
ATOM     10  O   UNL     1      -1.182  11.387  21.286  0.00  0.00    +0.000 OA
BRANCH   8  11
ATOM     11  N   UNL     1      -1.726  11.523  18.855  0.00  0.00    +0.000 NA
ATOM     12  H   UNL     1      -1.617  12.342  18.258  0.00  0.00    +0.000 HD
ATOM     13  H   UNL     1      -2.643  11.493  19.302  0.00  0.00    +0.000 HD
ENDBRANCH   8  11
ENDBRANCH   1   8
BRANCH   5  14
ATOM     14  S   UNL     1       3.137   6.013  19.003  0.00  0.00    +0.000 S 
ATOM     15  O   UNL     1       1.908   5.048  18.884  0.00  0.00    +0.000 OA
BRANCH  14  16
ATOM     16  C   UNL     1       4.210   5.628  17.585  0.00  0.00    +0.000 A 
ATOM     17  C   UNL     1       4.518   4.289  17.294  0.00  0.00    +0.000 A 
ATOM     18  C   UNL     1       5.344   3.973  16.211  0.00  0.00    +0.000 A 
ATOM     19  C   UNL     1       5.864   5.001  15.411  0.00  0.00    +0.000 A 
ATOM     20  C   UNL     1       5.557   6.341  15.685  0.00  0.00    +0.000 A 
ATOM     21  C   UNL     1       4.729   6.648  16.772  0.00  0.00    +0.000 A 
BRANCH  19  22
ATOM     22  N   UNL     1       6.734   4.668  14.275  0.00  0.00    +0.000 N 
ATOM     23  O   UNL     1       6.356   3.777  13.502  0.00  0.00    +0.000 OA
ATOM     24  O   UNL     1       7.797   5.294  14.160  0.00  0.00    +0.000 OA
ENDBRANCH  19  22
ENDBRANCH  14  16
ENDBRANCH   5  14
TORSDOF 5
ENDMDL
MODEL 5
REMARK VINA RESULT:      -6.5      1.156      1.509
REMARK  Name = 
REMARK  5 active torsions:
REMARK  status: ('A' for Active; 'I' for Inactive)
REMARK    1  A    between atoms: N_1  and  S_2
REMARK    2  A    between atoms: S_2  and  C_5
REMARK    3  A    between atoms: N_9  and  S_10
REMARK    4  A    between atoms: S_10  and  C_12
REMARK    5  A    between atoms: C_15  and  N_16
REMARK                            x       y       z     vdW  Elec       q    Type
REMARK                         _______ _______ _______ _____ _____    ______ ____
ROOT
ATOM      1  C   UNL     1       0.378  10.068  19.845  0.00  0.00    +0.000 A 
ATOM      2  N   UNL     1       0.699   9.266  20.837  0.00  0.00    +0.000 NA
ATOM      3  N   UNL     1       1.512   8.239  20.402  0.00  0.00    +0.000 NA
ATOM      4  C   UNL     1       1.783   8.302  19.110  0.00  0.00    +0.000 A 
ATOM      5  N   UNL     1       2.600   7.482  18.410  0.00  0.00    +0.000 N 
ATOM      6  S   UNL     1       0.999   9.628  18.321  0.00  0.00    +0.000 S 
ATOM      7  H   UNL     1       2.493   7.458  17.403  0.00  0.00    +0.000 HD
ENDROOT
BRANCH   1   8
ATOM      8  S   UNL     1      -0.535  11.564  19.991  0.00  0.00    +0.000 S 
ATOM      9  O   UNL     1      -0.845  11.739  21.390  0.00  0.00    +0.000 OA
ATOM     10  O   UNL     1      -1.566  11.501  18.977  0.00  0.00    +0.000 OA
BRANCH   8  11
ATOM     11  N   UNL     1       0.450  12.860  19.540  0.00  0.00    +0.000 NA
ATOM     12  H   UNL     1       0.166  13.700  20.045  0.00  0.00    +0.000 HD
ATOM     13  H   UNL     1       0.425  12.993  18.528  0.00  0.00    +0.000 HD
ENDBRANCH   8  11
ENDBRANCH   1   8
BRANCH   5  14
ATOM     14  S   UNL     1       3.043   6.025  19.093  0.00  0.00    +0.000 S 
ATOM     15  O   UNL     1       1.815   5.057  18.980  0.00  0.00    +0.000 OA
BRANCH  14  16
ATOM     16  C   UNL     1       4.132   5.611  17.696  0.00  0.00    +0.000 A 
ATOM     17  C   UNL     1       4.728   6.644  16.954  0.00  0.00    +0.000 A 
ATOM     18  C   UNL     1       5.565   6.346  15.874  0.00  0.00    +0.000 A 
ATOM     19  C   UNL     1       5.812   5.007  15.535  0.00  0.00    +0.000 A 
ATOM     20  C   UNL     1       5.231   3.967  16.274  0.00  0.00    +0.000 A 
ATOM     21  C   UNL     1       4.394   4.275  17.353  0.00  0.00    +0.000 A 
BRANCH  19  22
ATOM     22  N   UNL     1       6.689   4.695  14.398  0.00  0.00    +0.000 N 
ATOM     23  O   UNL     1       6.404   3.709  13.704  0.00  0.00    +0.000 OA
ATOM     24  O   UNL     1       7.664   5.434  14.203  0.00  0.00    +0.000 OA
ENDBRANCH  19  22
ENDBRANCH  14  16
ENDBRANCH   5  14
TORSDOF 5
ENDMDL
MODEL 6
REMARK VINA RESULT:      -6.5      1.239      1.446
REMARK  Name = 
REMARK  5 active torsions:
REMARK  status: ('A' for Active; 'I' for Inactive)
REMARK    1  A    between atoms: N_1  and  S_2
REMARK    2  A    between atoms: S_2  and  C_5
REMARK    3  A    between atoms: N_9  and  S_10
REMARK    4  A    between atoms: S_10  and  C_12
REMARK    5  A    between atoms: C_15  and  N_16
REMARK                            x       y       z     vdW  Elec       q    Type
REMARK                         _______ _______ _______ _____ _____    ______ ____
ROOT
ATOM      1  C   UNL     1       0.742  10.226  21.123  0.00  0.00    +0.000 A 
ATOM      2  N   UNL     1       1.128   9.451  22.114  0.00  0.00    +0.000 NA
ATOM      3  N   UNL     1       1.637   8.259  21.641  0.00  0.00    +0.000 NA
ATOM      4  C   UNL     1       1.626   8.175  20.323  0.00  0.00    +0.000 A 
ATOM      5  N   UNL     1       2.116   7.164  19.568  0.00  0.00    +0.000 N 
ATOM      6  S   UNL     1       0.931   9.567  19.564  0.00  0.00    +0.000 S 
ATOM      7  H   UNL     1       1.791   7.089  18.612  0.00  0.00    +0.000 HD
ENDROOT
BRANCH   1   8
ATOM      8  S   UNL     1       0.156  11.877  21.281  0.00  0.00    +0.000 S 
ATOM      9  O   UNL     1      -0.896  12.050  20.307  0.00  0.00    +0.000 OA
ATOM     10  O   UNL     1       1.334  12.718  21.299  0.00  0.00    +0.000 OA
BRANCH   8  11
ATOM     11  N   UNL     1      -0.549  12.072  22.804  0.00  0.00    +0.000 NA
ATOM     12  H   UNL     1      -0.914  11.178  23.131  0.00  0.00    +0.000 HD
ATOM     13  H   UNL     1      -1.269  12.794  22.775  0.00  0.00    +0.000 HD
ENDBRANCH   8  11
ENDBRANCH   1   8
BRANCH   5  14
ATOM     14  S   UNL     1       2.438   5.702  20.307  0.00  0.00    +0.000 S 
ATOM     15  O   UNL     1       1.232   4.746  20.009  0.00  0.00    +0.000 OA
BRANCH  14  16
ATOM     16  C   UNL     1       3.721   5.279  19.087  0.00  0.00    +0.000 A 
ATOM     17  C   UNL     1       3.350   5.010  17.760  0.00  0.00    +0.000 A 
ATOM     18  C   UNL     1       4.321   4.680  16.809  0.00  0.00    +0.000 A 
ATOM     19  C   UNL     1       5.672   4.621  17.186  0.00  0.00    +0.000 A 
ATOM     20  C   UNL     1       6.055   4.897  18.505  0.00  0.00    +0.000 A 
ATOM     21  C   UNL     1       5.075   5.227  19.451  0.00  0.00    +0.000 A 
BRANCH  19  22
ATOM     22  N   UNL     1       6.690   4.270  16.186  0.00  0.00    +0.000 N 
ATOM     23  O   UNL     1       7.877   4.470  16.480  0.00  0.00    +0.000 OA
ATOM     24  O   UNL     1       6.302   3.800  15.108  0.00  0.00    +0.000 OA
ENDBRANCH  19  22
ENDBRANCH  14  16
ENDBRANCH   5  14
TORSDOF 5
ENDMDL
MODEL 7
REMARK VINA RESULT:      -6.5      1.506      1.802
REMARK  Name = 
REMARK  5 active torsions:
REMARK  status: ('A' for Active; 'I' for Inactive)
REMARK    1  A    between atoms: N_1  and  S_2
REMARK    2  A    between atoms: S_2  and  C_5
REMARK    3  A    between atoms: N_9  and  S_10
REMARK    4  A    between atoms: S_10  and  C_12
REMARK    5  A    between atoms: C_15  and  N_16
REMARK                            x       y       z     vdW  Elec       q    Type
REMARK                         _______ _______ _______ _____ _____    ______ ____
ROOT
ATOM      1  C   UNL     1       0.523  10.357  21.271  0.00  0.00    +0.000 A 
ATOM      2  N   UNL     1       1.064   9.601  22.201  0.00  0.00    +0.000 NA
ATOM      3  N   UNL     1       1.579   8.441  21.660  0.00  0.00    +0.000 NA
ATOM      4  C   UNL     1       1.419   8.362  20.351  0.00  0.00    +0.000 A 
ATOM      5  N   UNL     1       1.873   7.384  19.533  0.00  0.00    +0.000 N 
ATOM      6  S   UNL     1       0.563   9.716  19.694  0.00  0.00    +0.000 S 
ATOM      7  H   UNL     1       1.442   7.295  18.621  0.00  0.00    +0.000 HD
ENDROOT
BRANCH   1   8
ATOM      8  S   UNL     1      -0.132  11.972  21.514  0.00  0.00    +0.000 S 
ATOM      9  O   UNL     1      -1.228  12.131  20.588  0.00  0.00    +0.000 OA
ATOM     10  O   UNL     1       1.006  12.866  21.520  0.00  0.00    +0.000 OA
BRANCH   8  11
ATOM     11  N   UNL     1      -0.784  12.077  23.069  0.00  0.00    +0.000 NA
ATOM     12  H   UNL     1      -1.803  12.061  23.017  0.00  0.00    +0.000 HD
ATOM     13  H   UNL     1      -0.437  12.910  23.547  0.00  0.00    +0.000 HD
ENDBRANCH   8  11
ENDBRANCH   1   8
BRANCH   5  14
ATOM     14  S   UNL     1       2.360   5.940  20.214  0.00  0.00    +0.000 S 
ATOM     15  O   UNL     1       1.377   4.826  19.713  0.00  0.00    +0.000 OA
BRANCH  14  16
ATOM     16  C   UNL     1       3.821   5.834  19.135  0.00  0.00    +0.000 A 
ATOM     17  C   UNL     1       4.883   4.985  19.489  0.00  0.00    +0.000 A 
ATOM     18  C   UNL     1       6.015   4.894  18.674  0.00  0.00    +0.000 A 
ATOM     19  C   UNL     1       6.088   5.652  17.496  0.00  0.00    +0.000 A 
ATOM     20  C   UNL     1       5.031   6.495  17.127  0.00  0.00    +0.000 A 
ATOM     21  C   UNL     1       3.901   6.581  17.949  0.00  0.00    +0.000 A 
BRANCH  19  22
ATOM     22  N   UNL     1       7.280   5.557  16.643  0.00  0.00    +0.000 N 
ATOM     23  O   UNL     1       7.786   6.614  16.240  0.00  0.00    +0.000 OA
ATOM     24  O   UNL     1       7.707   4.426  16.373  0.00  0.00    +0.000 OA
ENDBRANCH  19  22
ENDBRANCH  14  16
ENDBRANCH   5  14
TORSDOF 5
ENDMDL
MODEL 8
REMARK VINA RESULT:      -6.5      1.416      1.672
REMARK  Name = 
REMARK  5 active torsions:
REMARK  status: ('A' for Active; 'I' for Inactive)
REMARK    1  A    between atoms: N_1  and  S_2
REMARK    2  A    between atoms: S_2  and  C_5
REMARK    3  A    between atoms: N_9  and  S_10
REMARK    4  A    between atoms: S_10  and  C_12
REMARK    5  A    between atoms: C_15  and  N_16
REMARK                            x       y       z     vdW  Elec       q    Type
REMARK                         _______ _______ _______ _____ _____    ______ ____
ROOT
ATOM      1  C   UNL     1       0.473  10.361  21.430  0.00  0.00    +0.000 A 
ATOM      2  N   UNL     1       0.977   9.582  22.362  0.00  0.00    +0.000 NA
ATOM      3  N   UNL     1       1.554   8.456  21.809  0.00  0.00    +0.000 NA
ATOM      4  C   UNL     1       1.474   8.426  20.490  0.00  0.00    +0.000 A 
ATOM      5  N   UNL     1       2.002   7.492  19.665  0.00  0.00    +0.000 N 
ATOM      6  S   UNL     1       0.625   9.784  19.835  0.00  0.00    +0.000 S 
ATOM      7  H   UNL     1       1.629   7.429  18.726  0.00  0.00    +0.000 HD
ENDROOT
BRANCH   1   8
ATOM      8  S   UNL     1      -0.237  11.949  21.695  0.00  0.00    +0.000 S 
ATOM      9  O   UNL     1      -0.634  12.012  23.081  0.00  0.00    +0.000 OA
ATOM     10  O   UNL     1      -1.179  12.148  20.615  0.00  0.00    +0.000 OA
BRANCH   8  11
ATOM     11  N   UNL     1       0.949  13.130  21.470  0.00  0.00    +0.000 NA
ATOM     12  H   UNL     1       1.871  12.695  21.456  0.00  0.00    +0.000 HD
ATOM     13  H   UNL     1       0.877  13.852  22.189  0.00  0.00    +0.000 HD
ENDBRANCH   8  11
ENDBRANCH   1   8
BRANCH   5  14
ATOM     14  S   UNL     1       2.484   6.034  20.318  0.00  0.00    +0.000 S 
ATOM     15  O   UNL     1       1.350   4.990  20.035  0.00  0.00    +0.000 OA
BRANCH  14  16
ATOM     16  C   UNL     1       3.732   5.776  19.019  0.00  0.00    +0.000 A 
ATOM     17  C   UNL     1       3.723   6.595  17.879  0.00  0.00    +0.000 A 
ATOM     18  C   UNL     1       4.671   6.410  16.868  0.00  0.00    +0.000 A 
ATOM     19  C   UNL     1       5.638   5.402  16.999  0.00  0.00    +0.000 A 
ATOM     20  C   UNL     1       5.664   4.584  18.137  0.00  0.00    +0.000 A 
ATOM     21  C   UNL     1       4.710   4.777  19.144  0.00  0.00    +0.000 A 
BRANCH  19  22
ATOM     22  N   UNL     1       6.632   5.206  15.935  0.00  0.00    +0.000 N 
ATOM     23  O   UNL     1       6.352   5.621  14.801  0.00  0.00    +0.000 OA
ATOM     24  O   UNL     1       7.690   4.634  16.232  0.00  0.00    +0.000 OA
ENDBRANCH  19  22
ENDBRANCH  14  16
ENDBRANCH   5  14
TORSDOF 5
ENDMDL
MODEL 9
REMARK VINA RESULT:      -6.4      4.854      5.681
REMARK  Name = 
REMARK  5 active torsions:
REMARK  status: ('A' for Active; 'I' for Inactive)
REMARK    1  A    between atoms: N_1  and  S_2
REMARK    2  A    between atoms: S_2  and  C_5
REMARK    3  A    between atoms: N_9  and  S_10
REMARK    4  A    between atoms: S_10  and  C_12
REMARK    5  A    between atoms: C_15  and  N_16
REMARK                            x       y       z     vdW  Elec       q    Type
REMARK                         _______ _______ _______ _____ _____    ______ ____
ROOT
ATOM      1  C   UNL     1       3.415   3.483  19.780  0.00  0.00    +0.000 A 
ATOM      2  N   UNL     1       4.650   3.075  19.976  0.00  0.00    +0.000 NA
ATOM      3  N   UNL     1       5.552   3.897  19.333  0.00  0.00    +0.000 NA
ATOM      4  C   UNL     1       4.977   4.894  18.684  0.00  0.00    +0.000 A 
ATOM      5  N   UNL     1       5.597   5.896  18.019  0.00  0.00    +0.000 N 
ATOM      6  S   UNL     1       3.250   4.857  18.786  0.00  0.00    +0.000 S 
ATOM      7  H   UNL     1       5.055   6.415  17.338  0.00  0.00    +0.000 HD
ENDROOT
BRANCH   1   8
ATOM      8  S   UNL     1       1.976   2.795  20.523  0.00  0.00    +0.000 S 
ATOM      9  O   UNL     1       2.286   2.564  21.915  0.00  0.00    +0.000 OA
ATOM     10  O   UNL     1       1.545   1.730  19.644  0.00  0.00    +0.000 OA
BRANCH   8  11
ATOM     11  N   UNL     1       0.731   3.936  20.481  0.00  0.00    +0.000 NA
ATOM     12  H   UNL     1       0.208   3.907  21.356  0.00  0.00    +0.000 HD
ATOM     13  H   UNL     1       0.132   3.781  19.670  0.00  0.00    +0.000 HD
ENDBRANCH   8  11
ENDBRANCH   1   8
BRANCH   5  14
ATOM     14  S   UNL     1       7.209   5.715  17.628  0.00  0.00    +0.000 S 
ATOM     15  O   UNL     1       7.775   4.533  18.488  0.00  0.00    +0.000 OA
BRANCH  14  16
ATOM     16  C   UNL     1       6.816   5.001  16.001  0.00  0.00    +0.000 A 
ATOM     17  C   UNL     1       5.723   4.127  15.875  0.00  0.00    +0.000 A 
ATOM     18  C   UNL     1       5.408   3.566  14.634  0.00  0.00    +0.000 A 
ATOM     19  C   UNL     1       6.185   3.881  13.510  0.00  0.00    +0.000 A 
ATOM     20  C   UNL     1       7.272   4.760  13.621  0.00  0.00    +0.000 A 
ATOM     21  C   UNL     1       7.581   5.317  14.868  0.00  0.00    +0.000 A 
BRANCH  19  22
ATOM     22  N   UNL     1       5.854   3.288  12.208  0.00  0.00    +0.000 N 
ATOM     23  O   UNL     1       4.677   3.355  11.827  0.00  0.00    +0.000 OA
ATOM     24  O   UNL     1       6.770   2.753  11.568  0.00  0.00    +0.000 OA
ENDBRANCH  19  22
ENDBRANCH  14  16
ENDBRANCH   5  14
TORSDOF 5
ENDMDL
