MODEL 1
REMARK VINA RESULT:      -7.9      0.000      0.000
REMARK  Name = 
REMARK  10 active torsions:
REMARK  status: ('A' for Active; 'I' for Inactive)
REMARK    1  A    between atoms: C_1  and  C_2
REMARK    2  A    between atoms: C_2  and  C_3
REMARK    3  A    between atoms: C_3  and  C_4
REMARK    4  A    between atoms: C_8  and  C_9
REMARK    5  A    between atoms: C_13  and  C_15
REMARK    6  A    between atoms: N_22  and  C_23
REMARK    7  A    between atoms: C_28  and  O_29
REMARK    8  A    between atoms: O_29  and  C_30
REMARK    9  A    between atoms: C_30  and  C_31
REMARK   10  A    between atoms: C_30  and  C_32
REMARK                            x       y       z     vdW  Elec       q    Type
REMARK                         _______ _______ _______ _____ _____    ______ ____
ROOT
ATOM      1  C   UNL     1      -0.479  10.906  22.116  0.00  0.00    +0.000 A 
ATOM      2  C   UNL     1      -0.128   9.633  22.556  0.00  0.00    +0.000 A 
ATOM      3  C   UNL     1       0.550   9.016  21.489  0.00  0.00    +0.000 A 
ATOM      4  N   UNL     1       1.086   7.738  21.508  0.00  0.00    +0.000 N 
ATOM      5  C   UNL     1       1.749   7.174  20.429  0.00  0.00    +0.000 C 
ATOM      6  O   UNL     1       1.925   7.691  19.331  0.00  0.00    +0.000 OA
ATOM      7  N   UNL     1       0.603   9.830  20.447  0.00  0.00    +0.000 NA
ATOM      8  N   UNL     1       0.182  11.043  20.889  0.00  0.00    +0.000 N 
ATOM      9  H   UNL     1       1.018   7.237  22.381  0.00  0.00    +0.000 HD
ENDROOT
BRANCH   5  10
ATOM     10  C   UNL     1       2.348   5.812  20.729  0.00  0.00    +0.000 C 
ATOM     11  C   UNL     1       3.441   5.471  19.718  0.00  0.00    +0.000 C 
ATOM     12  N   UNL     1       3.449   4.049  19.701  0.00  0.00    +0.000 N 
ATOM     13  C   UNL     1       2.229   3.527  20.065  0.00  0.00    +0.000 C 
ATOM     14  O   UNL     1       1.897   2.362  19.957  0.00  0.00    +0.000 OA
ATOM     15  C   UNL     1       1.367   4.650  20.587  0.00  0.00    +0.000 C 
ATOM     16  H   UNL     1       4.104   3.470  19.175  0.00  0.00    +0.000 HD
ENDBRANCH   5  10
BRANCH   1  21
ATOM     17  C   UNL     1      -3.325  12.748  23.842  0.00  0.00    +0.000 A 
ATOM     18  C   UNL     1      -2.751  14.019  23.980  0.00  0.00    +0.000 A 
ATOM     19  C   UNL     1      -1.437  14.246  23.582  0.00  0.00    +0.000 A 
ATOM     20  C   UNL     1      -0.686  13.207  23.033  0.00  0.00    +0.000 A 
ATOM     21  C   UNL     1      -1.252  11.939  22.826  0.00  0.00    +0.000 A 
ATOM     22  C   UNL     1      -2.564  11.714  23.266  0.00  0.00    +0.000 A 
BRANCH  17  23
ATOM     23  C   UNL     1      -4.715  12.462  24.358  0.00  0.00    +0.000 C 
BRANCH  23  25
ATOM     24  C   UNL     1      -7.242  12.680  24.063  0.00  0.00    +0.000 C 
ATOM     25  C   UNL     1      -5.866  13.155  23.621  0.00  0.00    +0.000 C 
ENDBRANCH  23  25
ENDBRANCH  17  23
ENDBRANCH   1  21
BRANCH   8  26
ATOM     26  C   UNL     1       0.478  12.173  20.067  0.00  0.00    +0.000 A 
ATOM     27  C   UNL     1       1.744  12.772  20.282  0.00  0.00    +0.000 A 
ATOM     28  C   UNL     1       2.218  13.803  19.471  0.00  0.00    +0.000 A 
ATOM     29  C   UNL     1       1.434  14.257  18.423  0.00  0.00    +0.000 A 
ATOM     30  C   UNL     1       0.160  13.719  18.237  0.00  0.00    +0.000 A 
ATOM     31  C   UNL     1      -0.357  12.716  19.082  0.00  0.00    +0.000 A 
BRANCH  31  32
ATOM     32  O   UNL     1      -1.668  12.462  18.799  0.00  0.00    +0.000 OA
BRANCH  32  33
ATOM     33  C   UNL     1      -2.036  11.640  17.688  0.00  0.00    +0.000 C 
ATOM     34  C   UNL     1      -1.425  10.247  17.677  0.00  0.00    +0.000 C 
ATOM     35  C   UNL     1      -3.564  11.573  17.687  0.00  0.00    +0.000 C 
ENDBRANCH  32  33
ENDBRANCH  31  32
ENDBRANCH   8  26
TORSDOF 7
ENDMDL
MODEL 2
REMARK VINA RESULT:      -7.6      3.534      7.036
REMARK  Name = 
REMARK  10 active torsions:
REMARK  status: ('A' for Active; 'I' for Inactive)
REMARK    1  A    between atoms: C_1  and  C_2
REMARK    2  A    between atoms: C_2  and  C_3
REMARK    3  A    between atoms: C_3  and  C_4
REMARK    4  A    between atoms: C_8  and  C_9
REMARK    5  A    between atoms: C_13  and  C_15
REMARK    6  A    between atoms: N_22  and  C_23
REMARK    7  A    between atoms: C_28  and  O_29
REMARK    8  A    between atoms: O_29  and  C_30
REMARK    9  A    between atoms: C_30  and  C_31
REMARK   10  A    between atoms: C_30  and  C_32
REMARK                            x       y       z     vdW  Elec       q    Type
REMARK                         _______ _______ _______ _____ _____    ______ ____
ROOT
ATOM      1  C   UNL     1      -0.577  12.269  18.894  0.00  0.00    +0.000 A 
ATOM      2  C   UNL     1       0.312  13.116  18.239  0.00  0.00    +0.000 A 
ATOM      3  C   UNL     1       1.343  13.397  19.154  0.00  0.00    +0.000 A 
ATOM      4  N   UNL     1       2.446  14.198  18.902  0.00  0.00    +0.000 N 
ATOM      5  C   UNL     1       3.439  14.442  19.838  0.00  0.00    +0.000 C 
ATOM      6  O   UNL     1       3.471  14.028  20.993  0.00  0.00    +0.000 OA
ATOM      7  N   UNL     1       1.111  12.790  20.307  0.00  0.00    +0.000 NA
ATOM      8  N   UNL     1       0.078  11.937  20.088  0.00  0.00    +0.000 N 
ATOM      9  H   UNL     1       2.528  14.565  17.966  0.00  0.00    +0.000 HD
ENDROOT
BRANCH   5  10
ATOM     10  C   UNL     1       4.602  15.251  19.292  0.00  0.00    +0.000 C 
ATOM     11  C   UNL     1       5.085  14.671  17.964  0.00  0.00    +0.000 C 
ATOM     12  N   UNL     1       6.451  15.062  17.905  0.00  0.00    +0.000 N 
ATOM     13  C   UNL     1       6.981  15.256  19.160  0.00  0.00    +0.000 C 
ATOM     14  O   UNL     1       8.160  15.409  19.414  0.00  0.00    +0.000 OA
ATOM     15  C   UNL     1       5.856  15.215  20.164  0.00  0.00    +0.000 C 
ATOM     16  H   UNL     1       7.077  14.895  17.117  0.00  0.00    +0.000 HD
ENDBRANCH   5  10
BRANCH   1  21
ATOM     17  C   UNL     1      -4.291  11.554  18.495  0.00  0.00    +0.000 A 
ATOM     18  C   UNL     1      -4.244  10.491  17.584  0.00  0.00    +0.000 A 
ATOM     19  C   UNL     1      -3.026  10.067  17.058  0.00  0.00    +0.000 A 
ATOM     20  C   UNL     1      -1.843  10.696  17.446  0.00  0.00    +0.000 A 
ATOM     21  C   UNL     1      -1.853  11.723  18.403  0.00  0.00    +0.000 A 
ATOM     22  C   UNL     1      -3.088  12.165  18.895  0.00  0.00    +0.000 A 
BRANCH  17  23
ATOM     23  C   UNL     1      -5.611  12.088  18.999  0.00  0.00    +0.000 C 
BRANCH  23  25
ATOM     24  C   UNL     1      -7.206  10.400  20.059  0.00  0.00    +0.000 C 
ATOM     25  C   UNL     1      -6.828  11.177  18.808  0.00  0.00    +0.000 C 
ENDBRANCH  23  25
ENDBRANCH  17  23
ENDBRANCH   1  21
BRANCH   8  26
ATOM     26  C   UNL     1      -0.137  10.913  21.060  0.00  0.00    +0.000 A 
ATOM     27  C   UNL     1       0.207   9.600  20.651  0.00  0.00    +0.000 A 
ATOM     28  C   UNL     1       0.167   8.520  21.535  0.00  0.00    +0.000 A 
ATOM     29  C   UNL     1      -0.217   8.733  22.849  0.00  0.00    +0.000 A 
ATOM     30  C   UNL     1      -0.616  10.009  23.249  0.00  0.00    +0.000 A 
ATOM     31  C   UNL     1      -0.636  11.099  22.355  0.00  0.00    +0.000 A 
BRANCH  31  32
ATOM     32  O   UNL     1      -1.205  12.197  22.932  0.00  0.00    +0.000 OA
BRANCH  32  33
ATOM     33  C   UNL     1      -2.554  12.569  22.637  0.00  0.00    +0.000 C 
ATOM     34  C   UNL     1      -3.526  12.477  23.803  0.00  0.00    +0.000 C 
ATOM     35  C   UNL     1      -2.497  13.992  22.076  0.00  0.00    +0.000 C 
ENDBRANCH  32  33
ENDBRANCH  31  32
ENDBRANCH   8  26
TORSDOF 7
ENDMDL
MODEL 3
REMARK VINA RESULT:      -7.5      3.585      7.446
REMARK  Name = 
REMARK  10 active torsions:
REMARK  status: ('A' for Active; 'I' for Inactive)
REMARK    1  A    between atoms: C_1  and  C_2
REMARK    2  A    between atoms: C_2  and  C_3
REMARK    3  A    between atoms: C_3  and  C_4
REMARK    4  A    between atoms: C_8  and  C_9
REMARK    5  A    between atoms: C_13  and  C_15
REMARK    6  A    between atoms: N_22  and  C_23
REMARK    7  A    between atoms: C_28  and  O_29
REMARK    8  A    between atoms: O_29  and  C_30
REMARK    9  A    between atoms: C_30  and  C_31
REMARK   10  A    between atoms: C_30  and  C_32
REMARK                            x       y       z     vdW  Elec       q    Type
REMARK                         _______ _______ _______ _____ _____    ______ ____
ROOT
ATOM      1  C   UNL     1      -0.885  12.669  19.294  0.00  0.00    +0.000 A 
ATOM      2  C   UNL     1      -0.032  13.548  18.632  0.00  0.00    +0.000 A 
ATOM      3  C   UNL     1       1.128  13.648  19.421  0.00  0.00    +0.000 A 
ATOM      4  N   UNL     1       2.243  14.415  19.120  0.00  0.00    +0.000 N 
ATOM      5  C   UNL     1       3.365  14.478  19.931  0.00  0.00    +0.000 C 
ATOM      6  O   UNL     1       3.519  13.912  21.009  0.00  0.00    +0.000 OA
ATOM      7  N   UNL     1       1.008  12.905  20.510  0.00  0.00    +0.000 NA
ATOM      8  N   UNL     1      -0.103  12.146  20.333  0.00  0.00    +0.000 N 
ATOM      9  H   UNL     1       2.227  14.900  18.236  0.00  0.00    +0.000 HD
ENDROOT
BRANCH   5  10
ATOM     10  C   UNL     1       4.501  15.289  19.334  0.00  0.00    +0.000 C 
ATOM     11  C   UNL     1       4.982  14.661  18.028  0.00  0.00    +0.000 C 
ATOM     12  N   UNL     1       6.338  15.082  17.933  0.00  0.00    +0.000 N 
ATOM     13  C   UNL     1       6.877  15.348  19.171  0.00  0.00    +0.000 C 
ATOM     14  O   UNL     1       8.055  15.541  19.402  0.00  0.00    +0.000 OA
ATOM     15  C   UNL     1       5.765  15.325  20.191  0.00  0.00    +0.000 C 
ATOM     16  H   UNL     1       6.959  14.894  17.146  0.00  0.00    +0.000 HD
ENDBRANCH   5  10
BRANCH   1  21
ATOM     17  C   UNL     1      -3.861  11.385  17.303  0.00  0.00    +0.000 A 
ATOM     18  C   UNL     1      -4.905  11.711  18.178  0.00  0.00    +0.000 A 
ATOM     19  C   UNL     1      -4.633  12.273  19.422  0.00  0.00    +0.000 A 
ATOM     20  C   UNL     1      -3.314  12.524  19.799  0.00  0.00    +0.000 A 
ATOM     21  C   UNL     1      -2.250  12.263  18.921  0.00  0.00    +0.000 A 
ATOM     22  C   UNL     1      -2.535  11.663  17.687  0.00  0.00    +0.000 A 
BRANCH  17  23
ATOM     23  C   UNL     1      -4.133  10.686  15.992  0.00  0.00    +0.000 C 
BRANCH  23  25
ATOM     24  C   UNL     1      -3.164   9.909  13.762  0.00  0.00    +0.000 C 
ATOM     25  C   UNL     1      -2.908  10.155  15.241  0.00  0.00    +0.000 C 
ENDBRANCH  23  25
ENDBRANCH  17  23
ENDBRANCH   1  21
BRANCH   8  26
ATOM     26  C   UNL     1      -0.261  11.013  21.189  0.00  0.00    +0.000 A 
ATOM     27  C   UNL     1      -0.013   9.753  20.589  0.00  0.00    +0.000 A 
ATOM     28  C   UNL     1      -0.008   8.572  21.332  0.00  0.00    +0.000 A 
ATOM     29  C   UNL     1      -0.249   8.628  22.695  0.00  0.00    +0.000 A 
ATOM     30  C   UNL     1      -0.554   9.853  23.289  0.00  0.00    +0.000 A 
ATOM     31  C   UNL     1      -0.620  11.048  22.542  0.00  0.00    +0.000 A 
BRANCH  31  32
ATOM     32  O   UNL     1      -1.083  12.080  23.306  0.00  0.00    +0.000 OA
BRANCH  32  33
ATOM     33  C   UNL     1      -2.288  12.769  22.961  0.00  0.00    +0.000 C 
ATOM     34  C   UNL     1      -3.483  12.481  23.858  0.00  0.00    +0.000 C 
ATOM     35  C   UNL     1      -1.947  14.260  22.957  0.00  0.00    +0.000 C 
ENDBRANCH  32  33
ENDBRANCH  31  32
ENDBRANCH   8  26
TORSDOF 7
ENDMDL
MODEL 4
REMARK VINA RESULT:      -7.5      3.423      7.091
REMARK  Name = 
REMARK  10 active torsions:
REMARK  status: ('A' for Active; 'I' for Inactive)
REMARK    1  A    between atoms: C_1  and  C_2
REMARK    2  A    between atoms: C_2  and  C_3
REMARK    3  A    between atoms: C_3  and  C_4
REMARK    4  A    between atoms: C_8  and  C_9
REMARK    5  A    between atoms: C_13  and  C_15
REMARK    6  A    between atoms: N_22  and  C_23
REMARK    7  A    between atoms: C_28  and  O_29
REMARK    8  A    between atoms: O_29  and  C_30
REMARK    9  A    between atoms: C_30  and  C_31
REMARK   10  A    between atoms: C_30  and  C_32
REMARK                            x       y       z     vdW  Elec       q    Type
REMARK                         _______ _______ _______ _____ _____    ______ ____
ROOT
ATOM      1  C   UNL     1      -0.322  12.294  18.909  0.00  0.00    +0.000 A 
ATOM      2  C   UNL     1       0.530  13.129  18.191  0.00  0.00    +0.000 A 
ATOM      3  C   UNL     1       1.585  13.464  19.059  0.00  0.00    +0.000 A 
ATOM      4  N   UNL     1       2.664  14.272  18.739  0.00  0.00    +0.000 N 
ATOM      5  C   UNL     1       3.683  14.571  19.631  0.00  0.00    +0.000 C 
ATOM      6  O   UNL     1       3.759  14.206  20.800  0.00  0.00    +0.000 OA
ATOM      7  N   UNL     1       1.401  12.901  20.243  0.00  0.00    +0.000 NA
ATOM      8  N   UNL     1       0.377  12.023  20.092  0.00  0.00    +0.000 N 
ATOM      9  H   UNL     1       2.710  14.602  17.787  0.00  0.00    +0.000 HD
ENDROOT
BRANCH   5  10
ATOM     10  C   UNL     1       4.812  15.377  19.015  0.00  0.00    +0.000 C 
ATOM     11  C   UNL     1       5.466  14.601  17.873  0.00  0.00    +0.000 C 
ATOM     12  N   UNL     1       6.790  15.117  17.833  0.00  0.00    +0.000 N 
ATOM     13  C   UNL     1       7.183  15.612  19.056  0.00  0.00    +0.000 C 
ATOM     14  O   UNL     1       8.315  15.937  19.356  0.00  0.00    +0.000 OA
ATOM     15  C   UNL     1       5.979  15.649  19.963  0.00  0.00    +0.000 C 
ATOM     16  H   UNL     1       7.499  14.866  17.143  0.00  0.00    +0.000 HD
ENDBRANCH   5  10
BRANCH   1  21
ATOM     17  C   UNL     1      -4.047  11.637  18.515  0.00  0.00    +0.000 A 
ATOM     18  C   UNL     1      -4.014  10.420  17.822  0.00  0.00    +0.000 A 
ATOM     19  C   UNL     1      -2.799   9.866  17.430  0.00  0.00    +0.000 A 
ATOM     20  C   UNL     1      -1.605  10.517  17.736  0.00  0.00    +0.000 A 
ATOM     21  C   UNL     1      -1.602  11.707  18.482  0.00  0.00    +0.000 A 
ATOM     22  C   UNL     1      -2.834  12.274  18.837  0.00  0.00    +0.000 A 
BRANCH  17  23
ATOM     23  C   UNL     1      -5.360  12.300  18.861  0.00  0.00    +0.000 C 
BRANCH  23  25
ATOM     24  C   UNL     1      -7.059  10.800  20.034  0.00  0.00    +0.000 C 
ATOM     25  C   UNL     1      -6.001  11.880  20.188  0.00  0.00    +0.000 C 
ENDBRANCH  23  25
ENDBRANCH  17  23
ENDBRANCH   1  21
BRANCH   8  26
ATOM     26  C   UNL     1       0.212  11.035  21.112  0.00  0.00    +0.000 A 
ATOM     27  C   UNL     1      -0.664  11.388  22.169  0.00  0.00    +0.000 A 
ATOM     28  C   UNL     1      -1.016  10.478  23.167  0.00  0.00    +0.000 A 
ATOM     29  C   UNL     1      -0.500   9.193  23.127  0.00  0.00    +0.000 A 
ATOM     30  C   UNL     1       0.411   8.851  22.127  0.00  0.00    +0.000 A 
ATOM     31  C   UNL     1       0.822   9.775  21.143  0.00  0.00    +0.000 A 
BRANCH  31  32
ATOM     32  O   UNL     1       1.826   9.260  20.374  0.00  0.00    +0.000 OA
BRANCH  32  33
ATOM     33  C   UNL     1       1.553   8.690  19.092  0.00  0.00    +0.000 C 
ATOM     34  C   UNL     1       1.914   9.563  17.900  0.00  0.00    +0.000 C 
ATOM     35  C   UNL     1       2.298   7.355  19.045  0.00  0.00    +0.000 C 
ENDBRANCH  32  33
ENDBRANCH  31  32
ENDBRANCH   8  26
TORSDOF 7
ENDMDL
MODEL 5
REMARK VINA RESULT:      -7.5      3.411     10.197
REMARK  Name = 
REMARK  10 active torsions:
REMARK  status: ('A' for Active; 'I' for Inactive)
REMARK    1  A    between atoms: C_1  and  C_2
REMARK    2  A    between atoms: C_2  and  C_3
REMARK    3  A    between atoms: C_3  and  C_4
REMARK    4  A    between atoms: C_8  and  C_9
REMARK    5  A    between atoms: C_13  and  C_15
REMARK    6  A    between atoms: N_22  and  C_23
REMARK    7  A    between atoms: C_28  and  O_29
REMARK    8  A    between atoms: O_29  and  C_30
REMARK    9  A    between atoms: C_30  and  C_31
REMARK   10  A    between atoms: C_30  and  C_32
REMARK                            x       y       z     vdW  Elec       q    Type
REMARK                         _______ _______ _______ _____ _____    ______ ____
ROOT
ATOM      1  C   UNL     1       3.672   7.277  17.635  0.00  0.00    +0.000 A 
ATOM      2  C   UNL     1       3.642   8.664  17.524  0.00  0.00    +0.000 A 
ATOM      3  C   UNL     1       2.338   9.064  17.866  0.00  0.00    +0.000 A 
ATOM      4  N   UNL     1       1.879  10.371  17.898  0.00  0.00    +0.000 N 
ATOM      5  C   UNL     1       0.581  10.714  18.246  0.00  0.00    +0.000 C 
ATOM      6  O   UNL     1      -0.326   9.940  18.533  0.00  0.00    +0.000 OA
ATOM      7  N   UNL     1       1.594   8.006  18.151  0.00  0.00    +0.000 NA
ATOM      8  N   UNL     1       2.445   6.952  18.228  0.00  0.00    +0.000 N 
ATOM      9  H   UNL     1       2.559  11.089  17.703  0.00  0.00    +0.000 HD
ENDROOT
BRANCH   5  10
ATOM     10  C   UNL     1       0.349  12.213  18.323  0.00  0.00    +0.000 C 
ATOM     11  C   UNL     1       1.426  12.881  19.175  0.00  0.00    +0.000 C 
ATOM     12  N   UNL     1       0.784  14.049  19.671  0.00  0.00    +0.000 N 
ATOM     13  C   UNL     1      -0.583  13.894  19.731  0.00  0.00    +0.000 C 
ATOM     14  O   UNL     1      -1.356  14.651  20.284  0.00  0.00    +0.000 OA
ATOM     15  C   UNL     1      -0.948  12.612  19.023  0.00  0.00    +0.000 C 
ATOM     16  H   UNL     1       1.231  14.772  20.235  0.00  0.00    +0.000 HD
ENDBRANCH   5  10
BRANCH   1  21
ATOM     17  C   UNL     1       6.153   5.093  15.754  0.00  0.00    +0.000 A 
ATOM     18  C   UNL     1       6.766   4.431  16.826  0.00  0.00    +0.000 A 
ATOM     19  C   UNL     1       6.423   4.747  18.137  0.00  0.00    +0.000 A 
ATOM     20  C   UNL     1       5.458   5.721  18.390  0.00  0.00    +0.000 A 
ATOM     21  C   UNL     1       4.783   6.359  17.336  0.00  0.00    +0.000 A 
ATOM     22  C   UNL     1       5.164   6.058  16.022  0.00  0.00    +0.000 A 
BRANCH  17  23
ATOM     23  C   UNL     1       6.583   4.831  14.329  0.00  0.00    +0.000 C 
BRANCH  23  25
ATOM     24  C   UNL     1       6.357   3.436  12.203  0.00  0.00    +0.000 C 
ATOM     25  C   UNL     1       5.757   3.801  13.552  0.00  0.00    +0.000 C 
ENDBRANCH  23  25
ENDBRANCH  17  23
ENDBRANCH   1  21
BRANCH   8  26
ATOM     26  C   UNL     1       1.960   5.770  18.867  0.00  0.00    +0.000 A 
ATOM     27  C   UNL     1       1.731   4.662  18.012  0.00  0.00    +0.000 A 
ATOM     28  C   UNL     1       1.376   3.408  18.511  0.00  0.00    +0.000 A 
ATOM     29  C   UNL     1       1.244   3.235  19.879  0.00  0.00    +0.000 A 
ATOM     30  C   UNL     1       1.406   4.331  20.728  0.00  0.00    +0.000 A 
ATOM     31  C   UNL     1       1.709   5.618  20.236  0.00  0.00    +0.000 A 
BRANCH  31  32
ATOM     32  O   UNL     1       1.667   6.548  21.234  0.00  0.00    +0.000 OA
BRANCH  32  33
ATOM     33  C   UNL     1       1.036   7.815  21.034  0.00  0.00    +0.000 C 
ATOM     34  C   UNL     1      -0.449   7.863  21.361  0.00  0.00    +0.000 C 
ATOM     35  C   UNL     1       1.820   8.826  21.873  0.00  0.00    +0.000 C 
ENDBRANCH  32  33
ENDBRANCH  31  32
ENDBRANCH   8  26
TORSDOF 7
ENDMDL
MODEL 6
REMARK VINA RESULT:      -7.4      3.552      8.016
REMARK  Name = 
REMARK  10 active torsions:
REMARK  status: ('A' for Active; 'I' for Inactive)
REMARK    1  A    between atoms: C_1  and  C_2
REMARK    2  A    between atoms: C_2  and  C_3
REMARK    3  A    between atoms: C_3  and  C_4
REMARK    4  A    between atoms: C_8  and  C_9
REMARK    5  A    between atoms: C_13  and  C_15
REMARK    6  A    between atoms: N_22  and  C_23
REMARK    7  A    between atoms: C_28  and  O_29
REMARK    8  A    between atoms: O_29  and  C_30
REMARK    9  A    between atoms: C_30  and  C_31
REMARK   10  A    between atoms: C_30  and  C_32
REMARK                            x       y       z     vdW  Elec       q    Type
REMARK                         _______ _______ _______ _____ _____    ______ ____
ROOT
ATOM      1  C   UNL     1      -1.074  12.653  18.936  0.00  0.00    +0.000 A 
ATOM      2  C   UNL     1      -0.418  13.748  18.382  0.00  0.00    +0.000 A 
ATOM      3  C   UNL     1       0.583  14.120  19.298  0.00  0.00    +0.000 A 
ATOM      4  N   UNL     1       1.481  15.161  19.131  0.00  0.00    +0.000 N 
ATOM      5  C   UNL     1       2.452  15.486  20.065  0.00  0.00    +0.000 C 
ATOM      6  O   UNL     1       2.633  14.942  21.149  0.00  0.00    +0.000 OA
ATOM      7  N   UNL     1       0.545  13.332  20.362  0.00  0.00    +0.000 NA
ATOM      8  N   UNL     1      -0.300  12.315  20.053  0.00  0.00    +0.000 N 
ATOM      9  H   UNL     1       1.433  15.657  18.254  0.00  0.00    +0.000 HD
ENDROOT
BRANCH   5  10
ATOM     10  C   UNL     1       3.391  16.588  19.607  0.00  0.00    +0.000 C 
ATOM     11  C   UNL     1       4.405  16.047  18.601  0.00  0.00    +0.000 C 
ATOM     12  N   UNL     1       5.521  16.916  18.749  0.00  0.00    +0.000 N 
ATOM     13  C   UNL     1       5.564  17.482  20.003  0.00  0.00    +0.000 C 
ATOM     14  O   UNL     1       6.498  18.109  20.463  0.00  0.00    +0.000 OA
ATOM     15  C   UNL     1       4.272  17.164  20.714  0.00  0.00    +0.000 C 
ATOM     16  H   UNL     1       6.369  16.887  18.183  0.00  0.00    +0.000 HD
ENDBRANCH   5  10
BRANCH   1  21
ATOM     17  C   UNL     1      -3.279  10.477  16.729  0.00  0.00    +0.000 A 
ATOM     18  C   UNL     1      -4.530  10.715  17.314  0.00  0.00    +0.000 A 
ATOM     19  C   UNL     1      -4.636  11.513  18.450  0.00  0.00    +0.000 A 
ATOM     20  C   UNL     1      -3.494  12.089  19.005  0.00  0.00    +0.000 A 
ATOM     21  C   UNL     1      -2.235  11.919  18.407  0.00  0.00    +0.000 A 
ATOM     22  C   UNL     1      -2.138  11.082  17.287  0.00  0.00    +0.000 A 
BRANCH  17  23
ATOM     23  C   UNL     1      -3.135   9.536  15.556  0.00  0.00    +0.000 C 
BRANCH  23  25
ATOM     24  C   UNL     1      -4.113   9.844  13.219  0.00  0.00    +0.000 C 
ATOM     25  C   UNL     1      -2.985  10.189  14.179  0.00  0.00    +0.000 C 
ENDBRANCH  23  25
ENDBRANCH  17  23
ENDBRANCH   1  21
BRANCH   8  26
ATOM     26  C   UNL     1      -0.245  11.151  20.879  0.00  0.00    +0.000 A 
ATOM     27  C   UNL     1      -0.446  11.372  22.264  0.00  0.00    +0.000 A 
ATOM     28  C   UNL     1      -0.542  10.317  23.172  0.00  0.00    +0.000 A 
ATOM     29  C   UNL     1      -0.440   9.014  22.711  0.00  0.00    +0.000 A 
ATOM     30  C   UNL     1      -0.181   8.783  21.359  0.00  0.00    +0.000 A 
ATOM     31  C   UNL     1      -0.024   9.839  20.439  0.00  0.00    +0.000 A 
BRANCH  31  32
ATOM     32  O   UNL     1       0.373   9.373  19.219  0.00  0.00    +0.000 OA
BRANCH  32  33
ATOM     33  C   UNL     1       1.755   9.346  18.854  0.00  0.00    +0.000 C 
ATOM     34  C   UNL     1       2.227   8.067  18.180  0.00  0.00    +0.000 C 
ATOM     35  C   UNL     1       1.989  10.562  17.956  0.00  0.00    +0.000 C 
ENDBRANCH  32  33
ENDBRANCH  31  32
ENDBRANCH   8  26
TORSDOF 7
ENDMDL
MODEL 7
REMARK VINA RESULT:      -7.3      0.866      1.971
REMARK  Name = 
REMARK  10 active torsions:
REMARK  status: ('A' for Active; 'I' for Inactive)
REMARK    1  A    between atoms: C_1  and  C_2
REMARK    2  A    between atoms: C_2  and  C_3
REMARK    3  A    between atoms: C_3  and  C_4
REMARK    4  A    between atoms: C_8  and  C_9
REMARK    5  A    between atoms: C_13  and  C_15
REMARK    6  A    between atoms: N_22  and  C_23
REMARK    7  A    between atoms: C_28  and  O_29
REMARK    8  A    between atoms: O_29  and  C_30
REMARK    9  A    between atoms: C_30  and  C_31
REMARK   10  A    between atoms: C_30  and  C_32
REMARK                            x       y       z     vdW  Elec       q    Type
REMARK                         _______ _______ _______ _____ _____    ______ ____
ROOT
ATOM      1  C   UNL     1      -0.510  10.895  22.072  0.00  0.00    +0.000 A 
ATOM      2  C   UNL     1      -0.160   9.621  22.510  0.00  0.00    +0.000 A 
ATOM      3  C   UNL     1       0.554   9.019  21.459  0.00  0.00    +0.000 A 
ATOM      4  N   UNL     1       1.100   7.745  21.481  0.00  0.00    +0.000 N 
ATOM      5  C   UNL     1       1.799   7.197  20.417  0.00  0.00    +0.000 C 
ATOM      6  O   UNL     1       2.001   7.725  19.329  0.00  0.00    +0.000 OA
ATOM      7  N   UNL     1       0.629   9.843  20.425  0.00  0.00    +0.000 NA
ATOM      8  N   UNL     1       0.186  11.048  20.865  0.00  0.00    +0.000 N 
ATOM      9  H   UNL     1       1.011   7.236  22.348  0.00  0.00    +0.000 HD
ENDROOT
BRANCH   5  10
ATOM     10  C   UNL     1       2.400   5.837  20.722  0.00  0.00    +0.000 C 
ATOM     11  C   UNL     1       3.450   5.467  19.677  0.00  0.00    +0.000 C 
ATOM     12  N   UNL     1       3.448   4.044  19.689  0.00  0.00    +0.000 N 
ATOM     13  C   UNL     1       2.240   3.539  20.113  0.00  0.00    +0.000 C 
ATOM     14  O   UNL     1       1.898   2.375  20.043  0.00  0.00    +0.000 OA
ATOM     15  C   UNL     1       1.407   4.679  20.645  0.00  0.00    +0.000 C 
ATOM     16  H   UNL     1       4.079   3.450  19.150  0.00  0.00    +0.000 HD
ENDBRANCH   5  10
BRANCH   1  21
ATOM     17  C   UNL     1      -1.545  14.114  23.814  0.00  0.00    +0.000 A 
ATOM     18  C   UNL     1      -2.809  13.743  24.292  0.00  0.00    +0.000 A 
ATOM     19  C   UNL     1      -3.338  12.492  23.988  0.00  0.00    +0.000 A 
ATOM     20  C   UNL     1      -2.604  11.596  23.211  0.00  0.00    +0.000 A 
ATOM     21  C   UNL     1      -1.311  11.915  22.768  0.00  0.00    +0.000 A 
ATOM     22  C   UNL     1      -0.806  13.191  23.050  0.00  0.00    +0.000 A 
BRANCH  17  23
ATOM     23  C   UNL     1      -0.999  15.502  24.053  0.00  0.00    +0.000 C 
BRANCH  23  25
ATOM     24  C   UNL     1      -2.234  17.268  25.421  0.00  0.00    +0.000 C 
ATOM     25  C   UNL     1      -1.258  16.102  25.438  0.00  0.00    +0.000 C 
ENDBRANCH  23  25
ENDBRANCH  17  23
ENDBRANCH   1  21
BRANCH   8  26
ATOM     26  C   UNL     1       0.495  12.188  20.062  0.00  0.00    +0.000 A 
ATOM     27  C   UNL     1       1.756  12.786  20.308  0.00  0.00    +0.000 A 
ATOM     28  C   UNL     1       2.243  13.828  19.518  0.00  0.00    +0.000 A 
ATOM     29  C   UNL     1       1.478  14.292  18.460  0.00  0.00    +0.000 A 
ATOM     30  C   UNL     1       0.209  13.754  18.243  0.00  0.00    +0.000 A 
ATOM     31  C   UNL     1      -0.322  12.740  19.067  0.00  0.00    +0.000 A 
BRANCH  31  32
ATOM     32  O   UNL     1      -1.627  12.487  18.756  0.00  0.00    +0.000 OA
BRANCH  32  33
ATOM     33  C   UNL     1      -1.971  11.654  17.646  0.00  0.00    +0.000 C 
ATOM     34  C   UNL     1      -1.317  10.280  17.634  0.00  0.00    +0.000 C 
ATOM     35  C   UNL     1      -3.496  11.539  17.648  0.00  0.00    +0.000 C 
ENDBRANCH  32  33
ENDBRANCH  31  32
ENDBRANCH   8  26
TORSDOF 7
ENDMDL
MODEL 8
REMARK VINA RESULT:      -7.3      3.758      7.667
REMARK  Name = 
REMARK  10 active torsions:
REMARK  status: ('A' for Active; 'I' for Inactive)
REMARK    1  A    between atoms: C_1  and  C_2
REMARK    2  A    between atoms: C_2  and  C_3
REMARK    3  A    between atoms: C_3  and  C_4
REMARK    4  A    between atoms: C_8  and  C_9
REMARK    5  A    between atoms: C_13  and  C_15
REMARK    6  A    between atoms: N_22  and  C_23
REMARK    7  A    between atoms: C_28  and  O_29
REMARK    8  A    between atoms: O_29  and  C_30
REMARK    9  A    between atoms: C_30  and  C_31
REMARK   10  A    between atoms: C_30  and  C_32
REMARK                            x       y       z     vdW  Elec       q    Type
REMARK                         _______ _______ _______ _____ _____    ______ ____
ROOT
ATOM      1  C   UNL     1      -1.029  12.493  18.812  0.00  0.00    +0.000 A 
ATOM      2  C   UNL     1      -0.315  13.536  18.230  0.00  0.00    +0.000 A 
ATOM      3  C   UNL     1       0.493  14.082  19.244  0.00  0.00    +0.000 A 
ATOM      4  N   UNL     1       1.376  15.139  19.089  0.00  0.00    +0.000 N 
ATOM      5  C   UNL     1       2.154  15.639  20.121  0.00  0.00    +0.000 C 
ATOM      6  O   UNL     1       2.151  15.257  21.287  0.00  0.00    +0.000 OA
ATOM      7  N   UNL     1       0.287  13.445  20.386  0.00  0.00    +0.000 NA
ATOM      8  N   UNL     1      -0.459  12.352  20.084  0.00  0.00    +0.000 N 
ATOM      9  H   UNL     1       1.472  15.507  18.155  0.00  0.00    +0.000 HD
ENDROOT
BRANCH   5  10
ATOM     10  C   UNL     1       3.127  16.717  19.680  0.00  0.00    +0.000 C 
ATOM     11  C   UNL     1       4.085  16.176  18.621  0.00  0.00    +0.000 C 
ATOM     12  N   UNL     1       5.243  16.988  18.771  0.00  0.00    +0.000 N 
ATOM     13  C   UNL     1       5.349  17.497  20.045  0.00  0.00    +0.000 C 
ATOM     14  O   UNL     1       6.324  18.062  20.502  0.00  0.00    +0.000 OA
ATOM     15  C   UNL     1       4.065  17.205  20.783  0.00  0.00    +0.000 C 
ATOM     16  H   UNL     1       6.072  16.946  18.178  0.00  0.00    +0.000 HD
ENDBRANCH   5  10
BRANCH   1  21
ATOM     17  C   UNL     1      -4.387  10.964  17.886  0.00  0.00    +0.000 A 
ATOM     18  C   UNL     1      -3.958   9.827  17.188  0.00  0.00    +0.000 A 
ATOM     19  C   UNL     1      -2.602   9.607  16.964  0.00  0.00    +0.000 A 
ATOM     20  C   UNL     1      -1.660  10.516  17.445  0.00  0.00    +0.000 A 
ATOM     21  C   UNL     1      -2.054  11.632  18.200  0.00  0.00    +0.000 A 
ATOM     22  C   UNL     1      -3.424  11.862  18.386  0.00  0.00    +0.000 A 
BRANCH  17  23
ATOM     23  C   UNL     1      -5.857  11.267  18.053  0.00  0.00    +0.000 C 
BRANCH  23  25
ATOM     24  C   UNL     1      -7.308  12.342  19.857  0.00  0.00    +0.000 C 
ATOM     25  C   UNL     1      -6.410  11.175  19.479  0.00  0.00    +0.000 C 
ENDBRANCH  23  25
ENDBRANCH  17  23
ENDBRANCH   1  21
BRANCH   8  26
ATOM     26  C   UNL     1      -0.520  11.315  21.065  0.00  0.00    +0.000 A 
ATOM     27  C   UNL     1       0.046  10.074  20.679  0.00  0.00    +0.000 A 
ATOM     28  C   UNL     1       0.169   9.011  21.574  0.00  0.00    +0.000 A 
ATOM     29  C   UNL     1      -0.271   9.168  22.879  0.00  0.00    +0.000 A 
ATOM     30  C   UNL     1      -0.885  10.363  23.256  0.00  0.00    +0.000 A 
ATOM     31  C   UNL     1      -1.068  11.427  22.349  0.00  0.00    +0.000 A 
BRANCH  31  32
ATOM     32  O   UNL     1      -1.824  12.420  22.902  0.00  0.00    +0.000 OA
BRANCH  32  33
ATOM     33  C   UNL     1      -3.232  12.259  23.087  0.00  0.00    +0.000 C 
ATOM     34  C   UNL     1      -3.800  12.885  24.352  0.00  0.00    +0.000 C 
ATOM     35  C   UNL     1      -3.900  12.835  21.837  0.00  0.00    +0.000 C 
ENDBRANCH  32  33
ENDBRANCH  31  32
ENDBRANCH   8  26
TORSDOF 7
ENDMDL
MODEL 9
REMARK VINA RESULT:      -7.3      3.748      7.442
REMARK  Name = 
REMARK  10 active torsions:
REMARK  status: ('A' for Active; 'I' for Inactive)
REMARK    1  A    between atoms: C_1  and  C_2
REMARK    2  A    between atoms: C_2  and  C_3
REMARK    3  A    between atoms: C_3  and  C_4
REMARK    4  A    between atoms: C_8  and  C_9
REMARK    5  A    between atoms: C_13  and  C_15
REMARK    6  A    between atoms: N_22  and  C_23
REMARK    7  A    between atoms: C_28  and  O_29
REMARK    8  A    between atoms: O_29  and  C_30
REMARK    9  A    between atoms: C_30  and  C_31
REMARK   10  A    between atoms: C_30  and  C_32
REMARK                            x       y       z     vdW  Elec       q    Type
REMARK                         _______ _______ _______ _____ _____    ______ ____
ROOT
ATOM      1  C   UNL     1      -0.710  12.394  18.824  0.00  0.00    +0.000 A 
ATOM      2  C   UNL     1       0.090  13.261  18.087  0.00  0.00    +0.000 A 
ATOM      3  C   UNL     1       1.092  13.721  18.960  0.00  0.00    +0.000 A 
ATOM      4  N   UNL     1       2.111  14.598  18.626  0.00  0.00    +0.000 N 
ATOM      5  C   UNL     1       3.078  15.020  19.525  0.00  0.00    +0.000 C 
ATOM      6  O   UNL     1       3.153  14.716  20.711  0.00  0.00    +0.000 OA
ATOM      7  N   UNL     1       0.923  13.200  20.166  0.00  0.00    +0.000 NA
ATOM      8  N   UNL     1      -0.023  12.235  20.035  0.00  0.00    +0.000 N 
ATOM      9  H   UNL     1       2.154  14.886  17.660  0.00  0.00    +0.000 HD
ENDROOT
BRANCH   5  10
ATOM     10  C   UNL     1       4.156  15.885  18.896  0.00  0.00    +0.000 C 
ATOM     11  C   UNL     1       5.472  15.117  18.795  0.00  0.00    +0.000 C 
ATOM     12  N   UNL     1       6.460  16.140  18.815  0.00  0.00    +0.000 N 
ATOM     13  C   UNL     1       6.011  17.270  19.460  0.00  0.00    +0.000 C 
ATOM     14  O   UNL     1       6.699  18.217  19.786  0.00  0.00    +0.000 OA
ATOM     15  C   UNL     1       4.533  17.115  19.719  0.00  0.00    +0.000 C 
ATOM     16  H   UNL     1       7.463  15.992  18.703  0.00  0.00    +0.000 HD
ENDBRANCH   5  10
BRANCH   1  21
ATOM     17  C   UNL     1      -4.343  11.309  18.514  0.00  0.00    +0.000 A 
ATOM     18  C   UNL     1      -4.193  10.162  17.723  0.00  0.00    +0.000 A 
ATOM     19  C   UNL     1      -2.939   9.795  17.244  0.00  0.00    +0.000 A 
ATOM     20  C   UNL     1      -1.820  10.566  17.559  0.00  0.00    +0.000 A 
ATOM     21  C   UNL     1      -1.928  11.686  18.398  0.00  0.00    +0.000 A 
ATOM     22  C   UNL     1      -3.202  12.065  18.843  0.00  0.00    +0.000 A 
BRANCH  17  23
ATOM     23  C   UNL     1      -5.709  11.774  18.961  0.00  0.00    +0.000 C 
BRANCH  23  25
ATOM     24  C   UNL     1      -7.523  10.766  20.447  0.00  0.00    +0.000 C 
ATOM     25  C   UNL     1      -6.774  10.685  19.126  0.00  0.00    +0.000 C 
ENDBRANCH  23  25
ENDBRANCH  17  23
ENDBRANCH   1  21
BRANCH   8  26
ATOM     26  C   UNL     1      -0.135  11.286  21.097  0.00  0.00    +0.000 A 
ATOM     27  C   UNL     1       0.805  10.225  21.071  0.00  0.00    +0.000 A 
ATOM     28  C   UNL     1       0.895   9.296  22.108  0.00  0.00    +0.000 A 
ATOM     29  C   UNL     1       0.045   9.410  23.197  0.00  0.00    +0.000 A 
ATOM     30  C   UNL     1      -0.925  10.413  23.207  0.00  0.00    +0.000 A 
ATOM     31  C   UNL     1      -1.067  11.325  22.141  0.00  0.00    +0.000 A 
BRANCH  31  32
ATOM     32  O   UNL     1      -2.174  12.107  22.307  0.00  0.00    +0.000 OA
BRANCH  32  33
ATOM     33  C   UNL     1      -2.080  13.534  22.276  0.00  0.00    +0.000 C 
ATOM     34  C   UNL     1      -3.353  14.262  21.872  0.00  0.00    +0.000 C 
ATOM     35  C   UNL     1      -1.613  13.967  23.667  0.00  0.00    +0.000 C 
ENDBRANCH  32  33
ENDBRANCH  31  32
ENDBRANCH   8  26
TORSDOF 7
ENDMDL
