MODEL 1
REMARK VINA RESULT:      -7.4      0.000      0.000
REMARK  Name = 
REMARK  4 active torsions:
REMARK  status: ('A' for Active; 'I' for Inactive)
REMARK    1  A    between atoms: C_1  and  C_2
REMARK    2  A    between atoms: C_2  and  C_4
REMARK    3  A    between atoms: C_9  and  O_10
REMARK    4  A    between atoms: C_15  and  O_16
REMARK                            x       y       z     vdW  Elec       q    Type
REMARK                         _______ _______ _______ _____ _____    ______ ____
ROOT
ATOM      1  C   UNL     1       4.036   3.616  18.334  0.00  0.00    +0.000 C 
ATOM      2  C   UNL     1       4.707   4.185  17.100  0.00  0.00    +0.000 A 
ATOM      3  C   UNL     1       5.508   3.322  16.322  0.00  0.00    +0.000 A 
ATOM      4  C   UNL     1       6.156   3.776  15.178  0.00  0.00    +0.000 A 
ATOM      5  C   UNL     1       6.035   5.108  14.804  0.00  0.00    +0.000 A 
ATOM      6  C   UNL     1       5.260   5.984  15.573  0.00  0.00    +0.000 A 
ATOM      7  C   UNL     1       4.586   5.535  16.726  0.00  0.00    +0.000 A 
ATOM      8  C   UNL     1       3.763   6.458  17.565  0.00  0.00    +0.000 C 
ATOM      9  O   UNL     1       3.626   7.646  17.306  0.00  0.00    +0.000 OA
ATOM     10  C   UNL     1       3.074   5.934  18.774  0.00  0.00    +0.000 A 
ATOM     11  C   UNL     1       2.301   6.797  19.575  0.00  0.00    +0.000 A 
ATOM     12  C   UNL     1       1.650   6.327  20.713  0.00  0.00    +0.000 A 
ATOM     13  C   UNL     1       1.772   4.991  21.076  0.00  0.00    +0.000 A 
ATOM     14  C   UNL     1       2.545   4.130  20.299  0.00  0.00    +0.000 A 
ATOM     15  C   UNL     1       3.190   4.584  19.130  0.00  0.00    +0.000 A 
ENDROOT
BRANCH   1  17
ATOM     16  C   UNL     1       3.762   1.023  18.592  0.00  0.00    +0.000 C 
ATOM     17  C   UNL     1       3.276   2.323  18.000  0.00  0.00    +0.000 C 
ATOM     18  O   UNL     1       2.276   2.347  17.276  0.00  0.00    +0.000 OA
ENDBRANCH   1  17
BRANCH   6  19
ATOM     19  O   UNL     1       5.182   7.287  15.173  0.00  0.00    +0.000 OA
ATOM     20  H   UNL     1       5.333   7.882  15.925  0.00  0.00    +0.000 HD
ENDBRANCH   6  19
BRANCH  11  21
ATOM     21  O   UNL     1       2.139   8.131  19.305  0.00  0.00    +0.000 OA
ATOM     22  H   UNL     1       1.744   8.204  18.404  0.00  0.00    +0.000 HD
ENDBRANCH  11  21
TORSDOF 3
ENDMDL
MODEL 2
REMARK VINA RESULT:      -7.3      2.293      4.016
REMARK  Name = 
REMARK  4 active torsions:
REMARK  status: ('A' for Active; 'I' for Inactive)
REMARK    1  A    between atoms: C_1  and  C_2
REMARK    2  A    between atoms: C_2  and  C_4
REMARK    3  A    between atoms: C_9  and  O_10
REMARK    4  A    between atoms: C_15  and  O_16
REMARK                            x       y       z     vdW  Elec       q    Type
REMARK                         _______ _______ _______ _____ _____    ______ ____
ROOT
ATOM      1  C   UNL     1       2.845   5.863  18.331  0.00  0.00    +0.000 C 
ATOM      2  C   UNL     1       4.292   5.904  17.881  0.00  0.00    +0.000 A 
ATOM      3  C   UNL     1       4.667   6.890  16.941  0.00  0.00    +0.000 A 
ATOM      4  C   UNL     1       5.976   6.985  16.482  0.00  0.00    +0.000 A 
ATOM      5  C   UNL     1       6.930   6.082  16.934  0.00  0.00    +0.000 A 
ATOM      6  C   UNL     1       6.572   5.086  17.850  0.00  0.00    +0.000 A 
ATOM      7  C   UNL     1       5.254   4.987  18.336  0.00  0.00    +0.000 A 
ATOM      8  C   UNL     1       4.852   3.924  19.307  0.00  0.00    +0.000 C 
ATOM      9  O   UNL     1       5.634   3.085  19.734  0.00  0.00    +0.000 OA
ATOM     10  C   UNL     1       3.446   3.860  19.787  0.00  0.00    +0.000 A 
ATOM     11  C   UNL     1       3.056   2.859  20.697  0.00  0.00    +0.000 A 
ATOM     12  C   UNL     1       1.744   2.780  21.156  0.00  0.00    +0.000 A 
ATOM     13  C   UNL     1       0.797   3.692  20.704  0.00  0.00    +0.000 A 
ATOM     14  C   UNL     1       1.168   4.680  19.792  0.00  0.00    +0.000 A 
ATOM     15  C   UNL     1       2.498   4.789  19.337  0.00  0.00    +0.000 A 
ENDROOT
BRANCH   1  17
ATOM     16  C   UNL     1       1.874   8.223  17.737  0.00  0.00    +0.000 C 
ATOM     17  C   UNL     1       2.369   7.253  18.781  0.00  0.00    +0.000 C 
ATOM     18  O   UNL     1       2.374   7.566  19.975  0.00  0.00    +0.000 OA
ENDBRANCH   1  17
BRANCH   6  19
ATOM     19  O   UNL     1       7.542   4.213  18.255  0.00  0.00    +0.000 OA
ATOM     20  H   UNL     1       7.153   3.349  18.464  0.00  0.00    +0.000 HD
ENDBRANCH   6  19
BRANCH  11  21
ATOM     21  O   UNL     1       3.915   1.908  21.184  0.00  0.00    +0.000 OA
ATOM     22  H   UNL     1       4.652   2.380  21.638  0.00  0.00    +0.000 HD
ENDBRANCH  11  21
TORSDOF 3
ENDMDL
MODEL 3
REMARK VINA RESULT:      -7.1      2.548      4.298
REMARK  Name = 
REMARK  4 active torsions:
REMARK  status: ('A' for Active; 'I' for Inactive)
REMARK    1  A    between atoms: C_1  and  C_2
REMARK    2  A    between atoms: C_2  and  C_4
REMARK    3  A    between atoms: C_9  and  O_10
REMARK    4  A    between atoms: C_15  and  O_16
REMARK                            x       y       z     vdW  Elec       q    Type
REMARK                         _______ _______ _______ _____ _____    ______ ____
ROOT
ATOM      1  C   UNL     1       3.622   6.260  17.496  0.00  0.00    +0.000 C 
ATOM      2  C   UNL     1       5.102   6.464  17.757  0.00  0.00    +0.000 A 
ATOM      3  C   UNL     1       5.705   7.643  17.269  0.00  0.00    +0.000 A 
ATOM      4  C   UNL     1       7.058   7.895  17.470  0.00  0.00    +0.000 A 
ATOM      5  C   UNL     1       7.839   6.962  18.140  0.00  0.00    +0.000 A 
ATOM      6  C   UNL     1       7.262   5.777  18.613  0.00  0.00    +0.000 A 
ATOM      7  C   UNL     1       5.890   5.515  18.430  0.00  0.00    +0.000 A 
ATOM      8  C   UNL     1       5.259   4.251  18.920  0.00  0.00    +0.000 C 
ATOM      9  O   UNL     1       5.889   3.378  19.502  0.00  0.00    +0.000 OA
ATOM     10  C   UNL     1       3.807   4.022  18.700  0.00  0.00    +0.000 A 
ATOM     11  C   UNL     1       3.205   2.832  19.152  0.00  0.00    +0.000 A 
ATOM     12  C   UNL     1       1.846   2.596  18.952  0.00  0.00    +0.000 A 
ATOM     13  C   UNL     1       1.072   3.539  18.287  0.00  0.00    +0.000 A 
ATOM     14  C   UNL     1       1.659   4.715  17.823  0.00  0.00    +0.000 A 
ATOM     15  C   UNL     1       3.028   4.980  18.039  0.00  0.00    +0.000 A 
ENDROOT
BRANCH   1  17
ATOM     16  C   UNL     1       2.359   7.615  19.349  0.00  0.00    +0.000 C 
ATOM     17  C   UNL     1       2.815   7.497  17.915  0.00  0.00    +0.000 C 
ATOM     18  O   UNL     1       2.558   8.390  17.101  0.00  0.00    +0.000 OA
ENDBRANCH   1  17
BRANCH   6  19
ATOM     19  O   UNL     1       8.073   4.884  19.253  0.00  0.00    +0.000 OA
ATOM     20  H   UNL     1       8.998   5.171  19.203  0.00  0.00    +0.000 HD
ENDBRANCH   6  19
BRANCH  11  21
ATOM     21  O   UNL     1       3.892   1.839  19.801  0.00  0.00    +0.000 OA
ATOM     22  H   UNL     1       4.474   2.272  20.470  0.00  0.00    +0.000 HD
ENDBRANCH  11  21
TORSDOF 3
ENDMDL
MODEL 4
REMARK VINA RESULT:      -7.1      1.618      5.569
REMARK  Name = 
REMARK  4 active torsions:
REMARK  status: ('A' for Active; 'I' for Inactive)
REMARK    1  A    between atoms: C_1  and  C_2
REMARK    2  A    between atoms: C_2  and  C_4
REMARK    3  A    between atoms: C_9  and  O_10
REMARK    4  A    between atoms: C_15  and  O_16
REMARK                            x       y       z     vdW  Elec       q    Type
REMARK                         _______ _______ _______ _____ _____    ______ ____
ROOT
ATOM      1  C   UNL     1       3.494   6.039  19.186  0.00  0.00    +0.000 C 
ATOM      2  C   UNL     1       2.667   4.806  19.494  0.00  0.00    +0.000 A 
ATOM      3  C   UNL     1       1.680   4.902  20.499  0.00  0.00    +0.000 A 
ATOM      4  C   UNL     1       0.887   3.811  20.835  0.00  0.00    +0.000 A 
ATOM      5  C   UNL     1       1.081   2.596  20.191  0.00  0.00    +0.000 A 
ATOM      6  C   UNL     1       2.068   2.477  19.206  0.00  0.00    +0.000 A 
ATOM      7  C   UNL     1       2.869   3.577  18.844  0.00  0.00    +0.000 A 
ATOM      8  C   UNL     1       3.934   3.465  17.801  0.00  0.00    +0.000 C 
ATOM      9  O   UNL     1       4.172   2.423  17.205  0.00  0.00    +0.000 OA
ATOM     10  C   UNL     1       4.755   4.656  17.458  0.00  0.00    +0.000 A 
ATOM     11  C   UNL     1       5.765   4.560  16.481  0.00  0.00    +0.000 A 
ATOM     12  C   UNL     1       6.547   5.663  16.147  0.00  0.00    +0.000 A 
ATOM     13  C   UNL     1       6.340   6.876  16.793  0.00  0.00    +0.000 A 
ATOM     14  C   UNL     1       5.353   6.981  17.771  0.00  0.00    +0.000 A 
ATOM     15  C   UNL     1       4.536   5.880  18.103  0.00  0.00    +0.000 A 
ENDROOT
BRANCH   1  17
ATOM     16  C   UNL     1       2.169   7.586  17.537  0.00  0.00    +0.000 C 
ATOM     17  C   UNL     1       2.592   7.260  18.949  0.00  0.00    +0.000 C 
ATOM     18  O   UNL     1       2.204   7.953  19.894  0.00  0.00    +0.000 OA
ENDBRANCH   1  17
BRANCH   6  19
ATOM     19  O   UNL     1       2.231   1.258  18.610  0.00  0.00    +0.000 OA
ATOM     20  H   UNL     1       3.135   1.167  18.269  0.00  0.00    +0.000 HD
ENDBRANCH   6  19
BRANCH  11  21
ATOM     21  O   UNL     1       6.051   3.401  15.806  0.00  0.00    +0.000 OA
ATOM     22  H   UNL     1       5.951   3.589  14.843  0.00  0.00    +0.000 HD
ENDBRANCH  11  21
TORSDOF 3
ENDMDL
MODEL 5
REMARK VINA RESULT:      -7.1      1.907      2.867
REMARK  Name = 
REMARK  4 active torsions:
REMARK  status: ('A' for Active; 'I' for Inactive)
REMARK    1  A    between atoms: C_1  and  C_2
REMARK    2  A    between atoms: C_2  and  C_4
REMARK    3  A    between atoms: C_9  and  O_10
REMARK    4  A    between atoms: C_15  and  O_16
REMARK                            x       y       z     vdW  Elec       q    Type
REMARK                         _______ _______ _______ _____ _____    ______ ____
ROOT
ATOM      1  C   UNL     1       3.042   5.937  20.059  0.00  0.00    +0.000 C 
ATOM      2  C   UNL     1       3.952   5.580  18.900  0.00  0.00    +0.000 A 
ATOM      3  C   UNL     1       4.752   4.423  19.016  0.00  0.00    +0.000 A 
ATOM      4  C   UNL     1       5.612   4.036  17.994  0.00  0.00    +0.000 A 
ATOM      5  C   UNL     1       5.707   4.813  16.847  0.00  0.00    +0.000 A 
ATOM      6  C   UNL     1       4.937   5.975  16.722  0.00  0.00    +0.000 A 
ATOM      7  C   UNL     1       4.050   6.371  17.743  0.00  0.00    +0.000 A 
ATOM      8  C   UNL     1       3.227   7.614  17.631  0.00  0.00    +0.000 C 
ATOM      9  O   UNL     1       3.273   8.354  16.658  0.00  0.00    +0.000 OA
ATOM     10  C   UNL     1       2.309   7.988  18.738  0.00  0.00    +0.000 A 
ATOM     11  C   UNL     1       1.533   9.160  18.645  0.00  0.00    +0.000 A 
ATOM     12  C   UNL     1       0.669   9.531  19.673  0.00  0.00    +0.000 A 
ATOM     13  C   UNL     1       0.575   8.743  20.815  0.00  0.00    +0.000 A 
ATOM     14  C   UNL     1       1.347   7.588  20.924  0.00  0.00    +0.000 A 
ATOM     15  C   UNL     1       2.209   7.186  19.882  0.00  0.00    +0.000 A 
ENDROOT
BRANCH   1  17
ATOM     16  C   UNL     1       1.242   4.123  19.479  0.00  0.00    +0.000 C 
ATOM     17  C   UNL     1       2.192   4.729  20.482  0.00  0.00    +0.000 C 
ATOM     18  O   UNL     1       2.296   4.249  21.615  0.00  0.00    +0.000 OA
ENDBRANCH   1  17
BRANCH   6  19
ATOM     19  O   UNL     1       5.075   6.714  15.582  0.00  0.00    +0.000 OA
ATOM     20  H   UNL     1       5.939   6.547  15.173  0.00  0.00    +0.000 HD
ENDBRANCH   6  19
BRANCH  11  21
ATOM     21  O   UNL     1       1.573  10.006  17.567  0.00  0.00    +0.000 OA
ATOM     22  H   UNL     1       0.772  10.580  17.613  0.00  0.00    +0.000 HD
ENDBRANCH  11  21
TORSDOF 3
ENDMDL
MODEL 6
REMARK VINA RESULT:      -6.9      1.812      4.206
REMARK  Name = 
REMARK  4 active torsions:
REMARK  status: ('A' for Active; 'I' for Inactive)
REMARK    1  A    between atoms: C_1  and  C_2
REMARK    2  A    between atoms: C_2  and  C_4
REMARK    3  A    between atoms: C_9  and  O_10
REMARK    4  A    between atoms: C_15  and  O_16
REMARK                            x       y       z     vdW  Elec       q    Type
REMARK                         _______ _______ _______ _____ _____    ______ ____
ROOT
ATOM      1  C   UNL     1       3.472   5.636  17.371  0.00  0.00    +0.000 C 
ATOM      2  C   UNL     1       3.512   4.302  18.091  0.00  0.00    +0.000 A 
ATOM      3  C   UNL     1       4.049   3.193  17.402  0.00  0.00    +0.000 A 
ATOM      4  C   UNL     1       4.116   1.939  17.999  0.00  0.00    +0.000 A 
ATOM      5  C   UNL     1       3.625   1.764  19.287  0.00  0.00    +0.000 A 
ATOM      6  C   UNL     1       3.071   2.848  19.978  0.00  0.00    +0.000 A 
ATOM      7  C   UNL     1       3.010   4.127  19.392  0.00  0.00    +0.000 A 
ATOM      8  C   UNL     1       2.413   5.294  20.110  0.00  0.00    +0.000 C 
ATOM      9  O   UNL     1       1.947   5.210  21.239  0.00  0.00    +0.000 OA
ATOM     10  C   UNL     1       2.371   6.623  19.446  0.00  0.00    +0.000 A 
ATOM     11  C   UNL     1       1.806   7.728  20.112  0.00  0.00    +0.000 A 
ATOM     12  C   UNL     1       1.753   8.981  19.506  0.00  0.00    +0.000 A 
ATOM     13  C   UNL     1       2.253   9.147  18.220  0.00  0.00    +0.000 A 
ATOM     14  C   UNL     1       2.803   8.059  17.545  0.00  0.00    +0.000 A 
ATOM     15  C   UNL     1       2.887   6.790  18.154  0.00  0.00    +0.000 A 
ENDROOT
BRANCH   1  17
ATOM     16  C   UNL     1       6.003   6.226  17.707  0.00  0.00    +0.000 C 
ATOM     17  C   UNL     1       4.844   5.979  16.772  0.00  0.00    +0.000 C 
ATOM     18  O   UNL     1       5.003   6.035  15.549  0.00  0.00    +0.000 OA
ENDBRANCH   1  17
BRANCH   6  19
ATOM     19  O   UNL     1       2.589   2.624  21.236  0.00  0.00    +0.000 OA
ATOM     20  H   UNL     1       2.978   3.253  21.864  0.00  0.00    +0.000 HD
ENDBRANCH   6  19
BRANCH  11  21
ATOM     21  O   UNL     1       1.273   7.654  21.373  0.00  0.00    +0.000 OA
ATOM     22  H   UNL     1       1.269   8.568  21.746  0.00  0.00    +0.000 HD
ENDBRANCH  11  21
TORSDOF 3
ENDMDL
MODEL 7
REMARK VINA RESULT:      -6.9      0.970      4.595
REMARK  Name = 
REMARK  4 active torsions:
REMARK  status: ('A' for Active; 'I' for Inactive)
REMARK    1  A    between atoms: C_1  and  C_2
REMARK    2  A    between atoms: C_2  and  C_4
REMARK    3  A    between atoms: C_9  and  O_10
REMARK    4  A    between atoms: C_15  and  O_16
REMARK                            x       y       z     vdW  Elec       q    Type
REMARK                         _______ _______ _______ _____ _____    ______ ____
ROOT
ATOM      1  C   UNL     1       3.500   3.503  18.086  0.00  0.00    +0.000 C 
ATOM      2  C   UNL     1       2.758   4.478  18.979  0.00  0.00    +0.000 A 
ATOM      3  C   UNL     1       1.919   3.952  19.985  0.00  0.00    +0.000 A 
ATOM      4  C   UNL     1       1.207   4.787  20.838  0.00  0.00    +0.000 A 
ATOM      5  C   UNL     1       1.300   6.164  20.687  0.00  0.00    +0.000 A 
ATOM      6  C   UNL     1       2.112   6.705  19.683  0.00  0.00    +0.000 A 
ATOM      7  C   UNL     1       2.851   5.872  18.820  0.00  0.00    +0.000 A 
ATOM      8  C   UNL     1       3.715   6.431  17.736  0.00  0.00    +0.000 C 
ATOM      9  O   UNL     1       3.831   7.632  17.533  0.00  0.00    +0.000 OA
ATOM     10  C   UNL     1       4.473   5.508  16.851  0.00  0.00    +0.000 A 
ATOM     11  C   UNL     1       5.284   6.024  15.823  0.00  0.00    +0.000 A 
ATOM     12  C   UNL     1       6.000   5.177  14.980  0.00  0.00    +0.000 A 
ATOM     13  C   UNL     1       5.906   3.799  15.144  0.00  0.00    +0.000 A 
ATOM     14  C   UNL     1       5.095   3.275  16.149  0.00  0.00    +0.000 A 
ATOM     15  C   UNL     1       4.384   4.121  17.026  0.00  0.00    +0.000 A 
ENDROOT
BRANCH   1  17
ATOM     16  C   UNL     1       3.893   0.996  18.740  0.00  0.00    +0.000 C 
ATOM     17  C   UNL     1       4.246   2.452  18.922  0.00  0.00    +0.000 C 
ATOM     18  O   UNL     1       5.132   2.787  19.715  0.00  0.00    +0.000 OA
ENDBRANCH   1  17
BRANCH   6  19
ATOM     19  O   UNL     1       2.160   8.065  19.563  0.00  0.00    +0.000 OA
ATOM     20  H   UNL     1       1.879   8.487  20.390  0.00  0.00    +0.000 HD
ENDBRANCH   6  19
BRANCH  11  21
ATOM     21  O   UNL     1       5.425   7.365  15.575  0.00  0.00    +0.000 OA
ATOM     22  H   UNL     1       4.520   7.740  15.456  0.00  0.00    +0.000 HD
ENDBRANCH  11  21
TORSDOF 3
ENDMDL
MODEL 8
REMARK VINA RESULT:      -6.7      1.304      1.732
REMARK  Name = 
REMARK  4 active torsions:
REMARK  status: ('A' for Active; 'I' for Inactive)
REMARK    1  A    between atoms: C_1  and  C_2
REMARK    2  A    between atoms: C_2  and  C_4
REMARK    3  A    between atoms: C_9  and  O_10
REMARK    4  A    between atoms: C_15  and  O_16
REMARK                            x       y       z     vdW  Elec       q    Type
REMARK                         _______ _______ _______ _____ _____    ______ ____
ROOT
ATOM      1  C   UNL     1       3.348   4.830  19.200  0.00  0.00    +0.000 C 
ATOM      2  C   UNL     1       4.154   4.878  17.917  0.00  0.00    +0.000 A 
ATOM      3  C   UNL     1       4.883   3.728  17.547  0.00  0.00    +0.000 A 
ATOM      4  C   UNL     1       5.647   3.701  16.385  0.00  0.00    +0.000 A 
ATOM      5  C   UNL     1       5.715   4.833  15.583  0.00  0.00    +0.000 A 
ATOM      6  C   UNL     1       5.015   5.990  15.944  0.00  0.00    +0.000 A 
ATOM      7  C   UNL     1       4.226   6.027  17.110  0.00  0.00    +0.000 A 
ATOM      8  C   UNL     1       3.479   7.256  17.516  0.00  0.00    +0.000 C 
ATOM      9  O   UNL     1       3.507   8.294  16.867  0.00  0.00    +0.000 OA
ATOM     10  C   UNL     1       2.662   7.244  18.758  0.00  0.00    +0.000 A 
ATOM     11  C   UNL     1       1.960   8.399  19.152  0.00  0.00    +0.000 A 
ATOM     12  C   UNL     1       1.192   8.409  20.314  0.00  0.00    +0.000 A 
ATOM     13  C   UNL     1       1.123   7.269  21.107  0.00  0.00    +0.000 A 
ATOM     14  C   UNL     1       1.825   6.124  20.734  0.00  0.00    +0.000 A 
ATOM     15  C   UNL     1       2.587   6.089  19.548  0.00  0.00    +0.000 A 
ENDROOT
BRANCH   1  17
ATOM     16  C   UNL     1       1.333   3.461  18.234  0.00  0.00    +0.000 C 
ATOM     17  C   UNL     1       2.452   3.582  19.239  0.00  0.00    +0.000 C 
ATOM     18  O   UNL     1       2.653   2.686  20.064  0.00  0.00    +0.000 OA
ENDBRANCH   1  17
BRANCH   6  19
ATOM     19  O   UNL     1       5.124   7.082  15.131  0.00  0.00    +0.000 OA
ATOM     20  H   UNL     1       5.516   6.832  14.279  0.00  0.00    +0.000 HD
ENDBRANCH   6  19
BRANCH  11  21
ATOM     21  O   UNL     1       1.982   9.572  18.444  0.00  0.00    +0.000 OA
ATOM     22  H   UNL     1       1.514   9.411  17.591  0.00  0.00    +0.000 HD
ENDBRANCH  11  21
TORSDOF 3
ENDMDL
MODEL 9
REMARK VINA RESULT:      -6.6      4.604      8.556
REMARK  Name = 
REMARK  4 active torsions:
REMARK  status: ('A' for Active; 'I' for Inactive)
REMARK    1  A    between atoms: C_1  and  C_2
REMARK    2  A    between atoms: C_2  and  C_4
REMARK    3  A    between atoms: C_9  and  O_10
REMARK    4  A    between atoms: C_15  and  O_16
REMARK                            x       y       z     vdW  Elec       q    Type
REMARK                         _______ _______ _______ _____ _____    ______ ____
ROOT
ATOM      1  C   UNL     1       0.042  10.996  19.238  0.00  0.00    +0.000 C 
ATOM      2  C   UNL     1      -0.490  11.149  20.650  0.00  0.00    +0.000 A 
ATOM      3  C   UNL     1      -1.291  12.275  20.939  0.00  0.00    +0.000 A 
ATOM      4  C   UNL     1      -1.811  12.481  22.212  0.00  0.00    +0.000 A 
ATOM      5  C   UNL     1      -1.519  11.579  23.227  0.00  0.00    +0.000 A 
ATOM      6  C   UNL     1      -0.710  10.467  22.964  0.00  0.00    +0.000 A 
ATOM      7  C   UNL     1      -0.189  10.237  21.676  0.00  0.00    +0.000 A 
ATOM      8  C   UNL     1       0.685   9.062  21.380  0.00  0.00    +0.000 C 
ATOM      9  O   UNL     1       0.997   8.236  22.228  0.00  0.00    +0.000 OA
ATOM     10  C   UNL     1       1.212   8.866  20.004  0.00  0.00    +0.000 A 
ATOM     11  C   UNL     1       2.041   7.764  19.716  0.00  0.00    +0.000 A 
ATOM     12  C   UNL     1       2.548   7.565  18.434  0.00  0.00    +0.000 A 
ATOM     13  C   UNL     1       2.245   8.469  17.423  0.00  0.00    +0.000 A 
ATOM     14  C   UNL     1       1.437   9.571  17.698  0.00  0.00    +0.000 A 
ATOM     15  C   UNL     1       0.895   9.774  18.985  0.00  0.00    +0.000 A 
ENDROOT
BRANCH   1  17
ATOM     16  C   UNL     1      -2.075  10.008  18.052  0.00  0.00    +0.000 C 
ATOM     17  C   UNL     1      -1.087  11.138  18.207  0.00  0.00    +0.000 C 
ATOM     18  O   UNL     1      -1.199  12.165  17.530  0.00  0.00    +0.000 OA
ENDBRANCH   1  17
BRANCH   6  19
ATOM     19  O   UNL     1      -0.440   9.616  23.998  0.00  0.00    +0.000 OA
ATOM     20  H   UNL     1      -1.066   9.757  24.725  0.00  0.00    +0.000 HD
ENDBRANCH   6  19
BRANCH  11  21
ATOM     21  O   UNL     1       2.407   6.832  20.652  0.00  0.00    +0.000 OA
ATOM     22  H   UNL     1       2.167   5.945  20.295  0.00  0.00    +0.000 HD
ENDBRANCH  11  21
TORSDOF 3
ENDMDL
