MODEL 1
REMARK VINA RESULT:      -6.7      0.000      0.000
REMARK  Name = 
REMARK  11 active torsions:
REMARK  status: ('A' for Active; 'I' for Inactive)
REMARK    1  A    between atoms: C_1  and  O_2
REMARK    2  A    between atoms: O_2  and  C_3
REMARK    3  A    between atoms: C_3  and  C_4
REMARK    4  A    between atoms: C_4  and  C_5
REMARK    5  A    between atoms: C_5  and  N_6
REMARK    6  A    between atoms: C_8  and  N_9
REMARK    7  A    between atoms: C_10  and  C_12
REMARK    8  A    between atoms: C_15  and  C_16
REMARK    9  A    between atoms: N_20  and  C_21
REMARK   10  A    between atoms: C_21  and  C_22
REMARK   11  A    between atoms: C_21  and  C_23
REMARK                            x       y       z     vdW  Elec       q    Type
REMARK                         _______ _______ _______ _____ _____    ______ ____
ROOT
ATOM      1  N   UNL     1       1.689   8.530  18.973  0.00  0.00    +0.000 N 
ATOM      2  C   UNL     1       1.813   7.673  20.052  0.00  0.00    +0.000 C 
ATOM      3  O   UNL     1       1.346   7.842  21.172  0.00  0.00    +0.000 OA
ATOM      4  H   UNL     1       2.137   8.244  18.109  0.00  0.00    +0.000 HD
ENDROOT
BRANCH   1   7
ATOM      5  N   UNL     1      -0.463  11.335  18.719  0.00  0.00    +0.000 N 
ATOM      6  C   UNL     1      -0.219  10.019  18.462  0.00  0.00    +0.000 A 
ATOM      7  C   UNL     1       1.013   9.735  18.996  0.00  0.00    +0.000 A 
ATOM      8  C   UNL     1       1.425  10.958  19.575  0.00  0.00    +0.000 A 
ATOM      9  N   UNL     1       0.525  11.934  19.411  0.00  0.00    +0.000 NA
BRANCH   5  10
ATOM     10  C   UNL     1      -1.654  12.070  18.338  0.00  0.00    +0.000 C 
BRANCH  10  11
ATOM     11  C   UNL     1      -2.301  11.532  17.065  0.00  0.00    +0.000 C 
BRANCH  11  12
ATOM     12  C   UNL     1      -3.782  11.264  17.284  0.00  0.00    +0.000 C 
BRANCH  12  14
ATOM     13  C   UNL     1      -3.444  10.553  15.062  0.00  0.00    +0.000 C 
ATOM     14  O   UNL     1      -4.392  10.990  16.025  0.00  0.00    +0.000 OA
ENDBRANCH  12  14
ENDBRANCH  11  12
ENDBRANCH  10  11
ENDBRANCH   5  10
ENDBRANCH   1   7
BRANCH   2  15
ATOM     15  C   UNL     1       2.587   6.471  19.731  0.00  0.00    +0.000 A 
ATOM     16  C   UNL     1       2.058   5.189  19.757  0.00  0.00    +0.000 A 
ATOM     17  S   UNL     1       3.262   4.040  19.371  0.00  0.00    +0.000 S 
ATOM     18  C   UNL     1       4.388   5.315  19.124  0.00  0.00    +0.000 A 
ATOM     19  N   UNL     1       3.933   6.530  19.356  0.00  0.00    +0.000 NA
BRANCH  18  20
ATOM     20  C   UNL     1       5.712   5.055  18.642  0.00  0.00    +0.000 A 
ATOM     21  N   UNL     1       6.775   4.885  19.405  0.00  0.00    +0.000 NA
ATOM     22  N   UNL     1       7.843   4.584  18.597  0.00  0.00    +0.000 NA
ATOM     23  C   UNL     1       7.410   4.570  17.359  0.00  0.00    +0.000 A 
ATOM     24  N   UNL     1       6.083   4.892  17.324  0.00  0.00    +0.000 N 
BRANCH  24  25
ATOM     25  C   UNL     1       5.242   5.007  16.141  0.00  0.00    +0.000 C 
ATOM     26  C   UNL     1       5.034   6.472  15.749  0.00  0.00    +0.000 C 
ATOM     27  C   UNL     1       5.747   4.208  14.936  0.00  0.00    +0.000 C 
ENDBRANCH  24  25
ENDBRANCH  18  20
ENDBRANCH   2  15
TORSDOF 8
ENDMDL
MODEL 2
REMARK VINA RESULT:      -6.6      2.170      3.197
REMARK  Name = 
REMARK  11 active torsions:
REMARK  status: ('A' for Active; 'I' for Inactive)
REMARK    1  A    between atoms: C_1  and  O_2
REMARK    2  A    between atoms: O_2  and  C_3
REMARK    3  A    between atoms: C_3  and  C_4
REMARK    4  A    between atoms: C_4  and  C_5
REMARK    5  A    between atoms: C_5  and  N_6
REMARK    6  A    between atoms: C_8  and  N_9
REMARK    7  A    between atoms: C_10  and  C_12
REMARK    8  A    between atoms: C_15  and  C_16
REMARK    9  A    between atoms: N_20  and  C_21
REMARK   10  A    between atoms: C_21  and  C_22
REMARK   11  A    between atoms: C_21  and  C_23
REMARK                            x       y       z     vdW  Elec       q    Type
REMARK                         _______ _______ _______ _____ _____    ______ ____
ROOT
ATOM      1  N   UNL     1       1.616   8.589  19.128  0.00  0.00    +0.000 N 
ATOM      2  C   UNL     1       2.389   8.597  17.981  0.00  0.00    +0.000 C 
ATOM      3  O   UNL     1       2.382   9.454  17.105  0.00  0.00    +0.000 OA
ATOM      4  H   UNL     1       1.740   7.803  19.757  0.00  0.00    +0.000 HD
ENDROOT
BRANCH   1   7
ATOM      5  N   UNL     1      -0.957  11.007  19.443  0.00  0.00    +0.000 N 
ATOM      6  C   UNL     1      -0.327  10.057  18.695  0.00  0.00    +0.000 A 
ATOM      7  C   UNL     1       0.696   9.562  19.466  0.00  0.00    +0.000 A 
ATOM      8  C   UNL     1       0.583  10.276  20.682  0.00  0.00    +0.000 A 
ATOM      9  N   UNL     1      -0.425  11.155  20.672  0.00  0.00    +0.000 NA
BRANCH   5  10
ATOM     10  C   UNL     1      -2.102  11.796  19.030  0.00  0.00    +0.000 C 
BRANCH  10  11
ATOM     11  C   UNL     1      -3.162  10.968  18.309  0.00  0.00    +0.000 C 
BRANCH  11  12
ATOM     12  C   UNL     1      -3.381  11.486  16.895  0.00  0.00    +0.000 C 
BRANCH  12  14
ATOM     13  C   UNL     1      -3.018  10.001  15.100  0.00  0.00    +0.000 C 
ATOM     14  O   UNL     1      -2.417  10.888  16.032  0.00  0.00    +0.000 OA
ENDBRANCH  12  14
ENDBRANCH  11  12
ENDBRANCH  10  11
ENDBRANCH   5  10
ENDBRANCH   1   7
BRANCH   2  15
ATOM     15  C   UNL     1       3.275   7.433  17.890  0.00  0.00    +0.000 A 
ATOM     16  C   UNL     1       4.393   7.383  17.069  0.00  0.00    +0.000 A 
ATOM     17  S   UNL     1       5.153   5.858  17.193  0.00  0.00    +0.000 S 
ATOM     18  C   UNL     1       3.999   5.387  18.375  0.00  0.00    +0.000 A 
ATOM     19  N   UNL     1       3.063   6.275  18.645  0.00  0.00    +0.000 NA
BRANCH  18  20
ATOM     20  C   UNL     1       4.100   4.129  19.053  0.00  0.00    +0.000 A 
ATOM     21  N   UNL     1       5.230   3.559  19.427  0.00  0.00    +0.000 NA
ATOM     22  N   UNL     1       4.929   2.407  20.109  0.00  0.00    +0.000 NA
ATOM     23  C   UNL     1       3.622   2.299  20.144  0.00  0.00    +0.000 A 
ATOM     24  N   UNL     1       3.049   3.337  19.466  0.00  0.00    +0.000 N 
BRANCH  24  25
ATOM     25  C   UNL     1       1.626   3.565  19.256  0.00  0.00    +0.000 C 
ATOM     26  C   UNL     1       0.932   2.301  18.744  0.00  0.00    +0.000 C 
ATOM     27  C   UNL     1       0.892   4.104  20.487  0.00  0.00    +0.000 C 
ENDBRANCH  24  25
ENDBRANCH  18  20
ENDBRANCH   2  15
TORSDOF 8
ENDMDL
MODEL 3
REMARK VINA RESULT:      -6.6      1.797      2.520
REMARK  Name = 
REMARK  11 active torsions:
REMARK  status: ('A' for Active; 'I' for Inactive)
REMARK    1  A    between atoms: C_1  and  O_2
REMARK    2  A    between atoms: O_2  and  C_3
REMARK    3  A    between atoms: C_3  and  C_4
REMARK    4  A    between atoms: C_4  and  C_5
REMARK    5  A    between atoms: C_5  and  N_6
REMARK    6  A    between atoms: C_8  and  N_9
REMARK    7  A    between atoms: C_10  and  C_12
REMARK    8  A    between atoms: C_15  and  C_16
REMARK    9  A    between atoms: N_20  and  C_21
REMARK   10  A    between atoms: C_21  and  C_22
REMARK   11  A    between atoms: C_21  and  C_23
REMARK                            x       y       z     vdW  Elec       q    Type
REMARK                         _______ _______ _______ _____ _____    ______ ____
ROOT
ATOM      1  N   UNL     1       2.305   7.285  20.048  0.00  0.00    +0.000 N 
ATOM      2  C   UNL     1       1.984   5.956  20.256  0.00  0.00    +0.000 C 
ATOM      3  O   UNL     1       0.997   5.529  20.843  0.00  0.00    +0.000 OA
ATOM      4  H   UNL     1       3.163   7.474  19.541  0.00  0.00    +0.000 HD
ENDROOT
BRANCH   1   7
ATOM      5  N   UNL     1       0.301  10.159  20.592  0.00  0.00    +0.000 N 
ATOM      6  C   UNL     1       0.896   9.292  19.724  0.00  0.00    +0.000 A 
ATOM      7  C   UNL     1       1.550   8.357  20.486  0.00  0.00    +0.000 A 
ATOM      8  C   UNL     1       1.269   8.743  21.818  0.00  0.00    +0.000 A 
ATOM      9  N   UNL     1       0.505   9.839  21.885  0.00  0.00    +0.000 NA
BRANCH   5  10
ATOM     10  C   UNL     1      -0.503  11.310  20.230  0.00  0.00    +0.000 C 
BRANCH  10  11
ATOM     11  C   UNL     1      -0.777  11.393  18.731  0.00  0.00    +0.000 C 
BRANCH  11  12
ATOM     12  C   UNL     1      -2.012  10.582  18.363  0.00  0.00    +0.000 C 
BRANCH  12  14
ATOM     13  C   UNL     1      -3.880  11.497  17.254  0.00  0.00    +0.000 C 
ATOM     14  O   UNL     1      -2.532  11.071  17.129  0.00  0.00    +0.000 OA
ENDBRANCH  12  14
ENDBRANCH  11  12
ENDBRANCH  10  11
ENDBRANCH   5  10
ENDBRANCH   1   7
BRANCH   2  15
ATOM     15  C   UNL     1       2.973   5.041  19.680  0.00  0.00    +0.000 A 
ATOM     16  C   UNL     1       3.123   3.722  20.084  0.00  0.00    +0.000 A 
ATOM     17  S   UNL     1       4.398   2.978  19.223  0.00  0.00    +0.000 S 
ATOM     18  C   UNL     1       4.622   4.424  18.321  0.00  0.00    +0.000 A 
ATOM     19  N   UNL     1       3.840   5.431  18.654  0.00  0.00    +0.000 NA
BRANCH  18  20
ATOM     20  C   UNL     1       5.563   4.489  17.243  0.00  0.00    +0.000 A 
ATOM     21  N   UNL     1       5.532   3.730  16.164  0.00  0.00    +0.000 NA
ATOM     22  N   UNL     1       6.542   4.128  15.325  0.00  0.00    +0.000 NA
ATOM     23  C   UNL     1       7.166   5.126  15.905  0.00  0.00    +0.000 A 
ATOM     24  N   UNL     1       6.614   5.374  17.129  0.00  0.00    +0.000 N 
BRANCH  24  25
ATOM     25  C   UNL     1       7.036   6.384  18.090  0.00  0.00    +0.000 C 
ATOM     26  C   UNL     1       7.982   5.792  19.137  0.00  0.00    +0.000 C 
ATOM     27  C   UNL     1       7.669   7.625  17.454  0.00  0.00    +0.000 C 
ENDBRANCH  24  25
ENDBRANCH  18  20
ENDBRANCH   2  15
TORSDOF 8
ENDMDL
MODEL 4
REMARK VINA RESULT:      -6.6      1.498      1.785
REMARK  Name = 
REMARK  11 active torsions:
REMARK  status: ('A' for Active; 'I' for Inactive)
REMARK    1  A    between atoms: C_1  and  O_2
REMARK    2  A    between atoms: O_2  and  C_3
REMARK    3  A    between atoms: C_3  and  C_4
REMARK    4  A    between atoms: C_4  and  C_5
REMARK    5  A    between atoms: C_5  and  N_6
REMARK    6  A    between atoms: C_8  and  N_9
REMARK    7  A    between atoms: C_10  and  C_12
REMARK    8  A    between atoms: C_15  and  C_16
REMARK    9  A    between atoms: N_20  and  C_21
REMARK   10  A    between atoms: C_21  and  C_22
REMARK   11  A    between atoms: C_21  and  C_23
REMARK                            x       y       z     vdW  Elec       q    Type
REMARK                         _______ _______ _______ _____ _____    ______ ____
ROOT
ATOM      1  N   UNL     1       2.127   7.525  20.551  0.00  0.00    +0.000 N 
ATOM      2  C   UNL     1       1.628   6.239  20.447  0.00  0.00    +0.000 C 
ATOM      3  O   UNL     1       0.484   5.881  20.699  0.00  0.00    +0.000 OA
ATOM      4  H   UNL     1       3.102   7.658  20.305  0.00  0.00    +0.000 HD
ENDROOT
BRANCH   1   7
ATOM      5  N   UNL     1       0.142  10.420  21.046  0.00  0.00    +0.000 N 
ATOM      6  C   UNL     1       0.672   9.494  20.198  0.00  0.00    +0.000 A 
ATOM      7  C   UNL     1       1.399   8.623  20.969  0.00  0.00    +0.000 A 
ATOM      8  C   UNL     1       1.225   9.107  22.288  0.00  0.00    +0.000 A 
ATOM      9  N   UNL     1       0.457  10.201  22.337  0.00  0.00    +0.000 NA
BRANCH   5  10
ATOM     10  C   UNL     1      -0.704  11.537  20.668  0.00  0.00    +0.000 C 
BRANCH  10  11
ATOM     11  C   UNL     1      -0.992  11.581  19.170  0.00  0.00    +0.000 C 
BRANCH  11  12
ATOM     12  C   UNL     1      -2.487  11.693  18.912  0.00  0.00    +0.000 C 
BRANCH  12  14
ATOM     13  C   UNL     1      -2.493  10.969  16.669  0.00  0.00    +0.000 C 
ATOM     14  O   UNL     1      -2.876  10.667  18.002  0.00  0.00    +0.000 OA
ENDBRANCH  12  14
ENDBRANCH  11  12
ENDBRANCH  10  11
ENDBRANCH   5  10
ENDBRANCH   1   7
BRANCH   2  15
ATOM     15  C   UNL     1       2.632   5.281  19.979  0.00  0.00    +0.000 A 
ATOM     16  C   UNL     1       2.403   3.916  19.882  0.00  0.00    +0.000 A 
ATOM     17  S   UNL     1       3.811   3.113  19.342  0.00  0.00    +0.000 S 
ATOM     18  C   UNL     1       4.611   4.627  19.202  0.00  0.00    +0.000 A 
ATOM     19  N   UNL     1       3.911   5.679  19.575  0.00  0.00    +0.000 NA
BRANCH  18  20
ATOM     20  C   UNL     1       5.934   4.722  18.659  0.00  0.00    +0.000 A 
ATOM     21  N   UNL     1       7.045   4.737  19.370  0.00  0.00    +0.000 NA
ATOM     22  N   UNL     1       8.111   4.761  18.506  0.00  0.00    +0.000 NA
ATOM     23  C   UNL     1       7.630   4.754  17.286  0.00  0.00    +0.000 A 
ATOM     24  N   UNL     1       6.265   4.764  17.321  0.00  0.00    +0.000 N 
BRANCH  24  25
ATOM     25  C   UNL     1       5.361   4.784  16.179  0.00  0.00    +0.000 C 
ATOM     26  C   UNL     1       5.104   6.215  15.700  0.00  0.00    +0.000 C 
ATOM     27  C   UNL     1       5.818   3.912  15.006  0.00  0.00    +0.000 C 
ENDBRANCH  24  25
ENDBRANCH  18  20
ENDBRANCH   2  15
TORSDOF 8
ENDMDL
MODEL 5
REMARK VINA RESULT:      -6.5      3.450      4.687
REMARK  Name = 
REMARK  11 active torsions:
REMARK  status: ('A' for Active; 'I' for Inactive)
REMARK    1  A    between atoms: C_1  and  O_2
REMARK    2  A    between atoms: O_2  and  C_3
REMARK    3  A    between atoms: C_3  and  C_4
REMARK    4  A    between atoms: C_4  and  C_5
REMARK    5  A    between atoms: C_5  and  N_6
REMARK    6  A    between atoms: C_8  and  N_9
REMARK    7  A    between atoms: C_10  and  C_12
REMARK    8  A    between atoms: C_15  and  C_16
REMARK    9  A    between atoms: N_20  and  C_21
REMARK   10  A    between atoms: C_21  and  C_22
REMARK   11  A    between atoms: C_21  and  C_23
REMARK                            x       y       z     vdW  Elec       q    Type
REMARK                         _______ _______ _______ _____ _____    ______ ____
ROOT
ATOM      1  N   UNL     1       1.404   8.683  20.888  0.00  0.00    +0.000 N 
ATOM      2  C   UNL     1       1.465   8.716  19.506  0.00  0.00    +0.000 C 
ATOM      3  O   UNL     1       0.874   9.496  18.770  0.00  0.00    +0.000 OA
ATOM      4  H   UNL     1       1.957   7.971  21.353  0.00  0.00    +0.000 HD
ENDROOT
BRANCH   1   7
ATOM      5  N   UNL     1      -0.440  11.276  22.451  0.00  0.00    +0.000 N 
ATOM      6  C   UNL     1       0.300  10.838  21.393  0.00  0.00    +0.000 A 
ATOM      7  C   UNL     1       0.645   9.538  21.664  0.00  0.00    +0.000 A 
ATOM      8  C   UNL     1       0.040   9.278  22.917  0.00  0.00    +0.000 A 
ATOM      9  N   UNL     1      -0.625  10.335  23.396  0.00  0.00    +0.000 NA
BRANCH   5  10
ATOM     10  C   UNL     1      -1.021  12.597  22.596  0.00  0.00    +0.000 C 
BRANCH  10  11
ATOM     11  C   UNL     1      -0.501  13.589  21.559  0.00  0.00    +0.000 C 
BRANCH  11  12
ATOM     12  C   UNL     1       0.222  14.746  22.234  0.00  0.00    +0.000 C 
BRANCH  12  14
ATOM     13  C   UNL     1       2.103  14.071  20.985  0.00  0.00    +0.000 C 
ATOM     14  O   UNL     1       1.618  14.464  22.260  0.00  0.00    +0.000 OA
ENDBRANCH  12  14
ENDBRANCH  11  12
ENDBRANCH  10  11
ENDBRANCH   5  10
ENDBRANCH   1   7
BRANCH   2  15
ATOM     15  C   UNL     1       2.352   7.686  18.957  0.00  0.00    +0.000 A 
ATOM     16  C   UNL     1       3.085   7.849  17.790  0.00  0.00    +0.000 A 
ATOM     17  S   UNL     1       3.967   6.428  17.439  0.00  0.00    +0.000 S 
ATOM     18  C   UNL     1       3.380   5.715  18.888  0.00  0.00    +0.000 A 
ATOM     19  N   UNL     1       2.538   6.451  19.586  0.00  0.00    +0.000 NA
BRANCH  18  20
ATOM     20  C   UNL     1       3.835   4.427  19.320  0.00  0.00    +0.000 A 
ATOM     21  N   UNL     1       5.096   4.038  19.343  0.00  0.00    +0.000 NA
ATOM     22  N   UNL     1       5.150   2.778  19.884  0.00  0.00    +0.000 NA
ATOM     23  C   UNL     1       3.924   2.425  20.186  0.00  0.00    +0.000 A 
ATOM     24  N   UNL     1       3.051   3.411  19.823  0.00  0.00    +0.000 N 
BRANCH  24  25
ATOM     25  C   UNL     1       1.602   3.392  19.968  0.00  0.00    +0.000 C 
ATOM     26  C   UNL     1       0.946   2.541  18.878  0.00  0.00    +0.000 C 
ATOM     27  C   UNL     1       1.118   2.939  21.349  0.00  0.00    +0.000 C 
ENDBRANCH  24  25
ENDBRANCH  18  20
ENDBRANCH   2  15
TORSDOF 8
ENDMDL
MODEL 6
REMARK VINA RESULT:      -6.5      2.719      3.057
REMARK  Name = 
REMARK  11 active torsions:
REMARK  status: ('A' for Active; 'I' for Inactive)
REMARK    1  A    between atoms: C_1  and  O_2
REMARK    2  A    between atoms: O_2  and  C_3
REMARK    3  A    between atoms: C_3  and  C_4
REMARK    4  A    between atoms: C_4  and  C_5
REMARK    5  A    between atoms: C_5  and  N_6
REMARK    6  A    between atoms: C_8  and  N_9
REMARK    7  A    between atoms: C_10  and  C_12
REMARK    8  A    between atoms: C_15  and  C_16
REMARK    9  A    between atoms: N_20  and  C_21
REMARK   10  A    between atoms: C_21  and  C_22
REMARK   11  A    between atoms: C_21  and  C_23
REMARK                            x       y       z     vdW  Elec       q    Type
REMARK                         _______ _______ _______ _____ _____    ______ ____
ROOT
ATOM      1  N   UNL     1       2.016   7.565  20.786  0.00  0.00    +0.000 N 
ATOM      2  C   UNL     1       1.500   6.301  20.565  0.00  0.00    +0.000 C 
ATOM      3  O   UNL     1       0.355   5.931  20.795  0.00  0.00    +0.000 OA
ATOM      4  H   UNL     1       2.989   7.711  20.541  0.00  0.00    +0.000 HD
ENDROOT
BRANCH   1   7
ATOM      5  N   UNL     1       0.004  10.371  21.591  0.00  0.00    +0.000 N 
ATOM      6  C   UNL     1       0.460   9.485  20.661  0.00  0.00    +0.000 A 
ATOM      7  C   UNL     1       1.305   8.625  21.317  0.00  0.00    +0.000 A 
ATOM      8  C   UNL     1       1.275   9.073  22.659  0.00  0.00    +0.000 A 
ATOM      9  N   UNL     1       0.480  10.135  22.829  0.00  0.00    +0.000 NA
BRANCH   5  10
ATOM     10  C   UNL     1      -0.919  11.462  21.347  0.00  0.00    +0.000 C 
BRANCH  10  11
ATOM     11  C   UNL     1      -1.080  12.383  22.554  0.00  0.00    +0.000 C 
BRANCH  11  12
ATOM     12  C   UNL     1      -2.514  12.360  23.062  0.00  0.00    +0.000 C 
BRANCH  12  14
ATOM     13  C   UNL     1      -4.499  12.716  21.842  0.00  0.00    +0.000 C 
ATOM     14  O   UNL     1      -3.286  13.289  22.306  0.00  0.00    +0.000 OA
ENDBRANCH  12  14
ENDBRANCH  11  12
ENDBRANCH  10  11
ENDBRANCH   5  10
ENDBRANCH   1   7
BRANCH   2  15
ATOM     15  C   UNL     1       2.488   5.381  19.994  0.00  0.00    +0.000 A 
ATOM     16  C   UNL     1       2.199   4.073  19.633  0.00  0.00    +0.000 A 
ATOM     17  S   UNL     1       3.603   3.294  19.046  0.00  0.00    +0.000 S 
ATOM     18  C   UNL     1       4.485   4.756  19.239  0.00  0.00    +0.000 A 
ATOM     19  N   UNL     1       3.811   5.766  19.753  0.00  0.00    +0.000 NA
BRANCH  18  20
ATOM     20  C   UNL     1       5.847   4.865  18.808  0.00  0.00    +0.000 A 
ATOM     21  N   UNL     1       6.889   4.965  19.611  0.00  0.00    +0.000 NA
ATOM     22  N   UNL     1       8.027   4.973  18.844  0.00  0.00    +0.000 NA
ATOM     23  C   UNL     1       7.658   4.873  17.589  0.00  0.00    +0.000 A 
ATOM     24  N   UNL     1       6.296   4.835  17.504  0.00  0.00    +0.000 N 
BRANCH  24  25
ATOM     25  C   UNL     1       5.497   4.751  16.289  0.00  0.00    +0.000 C 
ATOM     26  C   UNL     1       5.177   6.142  15.738  0.00  0.00    +0.000 C 
ATOM     27  C   UNL     1       6.120   3.883  15.192  0.00  0.00    +0.000 C 
ENDBRANCH  24  25
ENDBRANCH  18  20
ENDBRANCH   2  15
TORSDOF 8
ENDMDL
MODEL 7
REMARK VINA RESULT:      -6.5      3.297      4.272
REMARK  Name = 
REMARK  11 active torsions:
REMARK  status: ('A' for Active; 'I' for Inactive)
REMARK    1  A    between atoms: C_1  and  O_2
REMARK    2  A    between atoms: O_2  and  C_3
REMARK    3  A    between atoms: C_3  and  C_4
REMARK    4  A    between atoms: C_4  and  C_5
REMARK    5  A    between atoms: C_5  and  N_6
REMARK    6  A    between atoms: C_8  and  N_9
REMARK    7  A    between atoms: C_10  and  C_12
REMARK    8  A    between atoms: C_15  and  C_16
REMARK    9  A    between atoms: N_20  and  C_21
REMARK   10  A    between atoms: C_21  and  C_22
REMARK   11  A    between atoms: C_21  and  C_23
REMARK                            x       y       z     vdW  Elec       q    Type
REMARK                         _______ _______ _______ _____ _____    ______ ____
ROOT
ATOM      1  N   UNL     1       1.184   8.725  20.676  0.00  0.00    +0.000 N 
ATOM      2  C   UNL     1       1.513   9.001  19.361  0.00  0.00    +0.000 C 
ATOM      3  O   UNL     1       1.159   9.977  18.712  0.00  0.00    +0.000 OA
ATOM      4  H   UNL     1       1.560   7.870  21.072  0.00  0.00    +0.000 HD
ENDROOT
BRANCH   1   7
ATOM      5  N   UNL     1      -0.973  11.077  22.220  0.00  0.00    +0.000 N 
ATOM      6  C   UNL     1      -0.368  10.606  21.093  0.00  0.00    +0.000 A 
ATOM      7  C   UNL     1       0.384   9.522  21.472  0.00  0.00    +0.000 A 
ATOM      8  C   UNL     1       0.145   9.410  22.863  0.00  0.00    +0.000 A 
ATOM      9  N   UNL     1      -0.685  10.354  23.320  0.00  0.00    +0.000 NA
BRANCH   5  10
ATOM     10  C   UNL     1      -1.868  12.216  22.294  0.00  0.00    +0.000 C 
BRANCH  10  11
ATOM     11  C   UNL     1      -2.960  12.044  23.347  0.00  0.00    +0.000 C 
BRANCH  11  12
ATOM     12  C   UNL     1      -4.093  13.033  23.116  0.00  0.00    +0.000 C 
BRANCH  12  14
ATOM     13  C   UNL     1      -5.437  12.619  21.224  0.00  0.00    +0.000 C 
ATOM     14  O   UNL     1      -5.219  12.330  22.597  0.00  0.00    +0.000 OA
ENDBRANCH  12  14
ENDBRANCH  11  12
ENDBRANCH  10  11
ENDBRANCH   5  10
ENDBRANCH   1   7
BRANCH   2  15
ATOM     15  C   UNL     1       2.376   7.975  18.769  0.00  0.00    +0.000 A 
ATOM     16  C   UNL     1       3.087   8.157  17.592  0.00  0.00    +0.000 A 
ATOM     17  S   UNL     1       3.945   6.735  17.188  0.00  0.00    +0.000 S 
ATOM     18  C   UNL     1       3.379   5.994  18.632  0.00  0.00    +0.000 A 
ATOM     19  N   UNL     1       2.560   6.722  19.364  0.00  0.00    +0.000 NA
BRANCH  18  20
ATOM     20  C   UNL     1       3.827   4.691  19.023  0.00  0.00    +0.000 A 
ATOM     21  N   UNL     1       5.089   4.342  19.188  0.00  0.00    +0.000 NA
ATOM     22  N   UNL     1       5.125   3.045  19.635  0.00  0.00    +0.000 NA
ATOM     23  C   UNL     1       3.885   2.630  19.740  0.00  0.00    +0.000 A 
ATOM     24  N   UNL     1       3.027   3.612  19.336  0.00  0.00    +0.000 N 
BRANCH  24  25
ATOM     25  C   UNL     1       1.574   3.535  19.281  0.00  0.00    +0.000 C 
ATOM     26  C   UNL     1       1.110   2.190  18.717  0.00  0.00    +0.000 C 
ATOM     27  C   UNL     1       0.882   3.808  20.620  0.00  0.00    +0.000 C 
ENDBRANCH  24  25
ENDBRANCH  18  20
ENDBRANCH   2  15
TORSDOF 8
ENDMDL
MODEL 8
REMARK VINA RESULT:      -6.4      2.435      3.525
REMARK  Name = 
REMARK  11 active torsions:
REMARK  status: ('A' for Active; 'I' for Inactive)
REMARK    1  A    between atoms: C_1  and  O_2
REMARK    2  A    between atoms: O_2  and  C_3
REMARK    3  A    between atoms: C_3  and  C_4
REMARK    4  A    between atoms: C_4  and  C_5
REMARK    5  A    between atoms: C_5  and  N_6
REMARK    6  A    between atoms: C_8  and  N_9
REMARK    7  A    between atoms: C_10  and  C_12
REMARK    8  A    between atoms: C_15  and  C_16
REMARK    9  A    between atoms: N_20  and  C_21
REMARK   10  A    between atoms: C_21  and  C_22
REMARK   11  A    between atoms: C_21  and  C_23
REMARK                            x       y       z     vdW  Elec       q    Type
REMARK                         _______ _______ _______ _____ _____    ______ ____
ROOT
ATOM      1  N   UNL     1       1.565   8.666  19.253  0.00  0.00    +0.000 N 
ATOM      2  C   UNL     1       2.310   8.729  18.089  0.00  0.00    +0.000 C 
ATOM      3  O   UNL     1       2.340   9.659  17.294  0.00  0.00    +0.000 OA
ATOM      4  H   UNL     1       1.651   7.820  19.806  0.00  0.00    +0.000 HD
ENDROOT
BRANCH   1   7
ATOM      5  N   UNL     1      -0.838  11.204  19.850  0.00  0.00    +0.000 N 
ATOM      6  C   UNL     1      -0.286  10.288  19.004  0.00  0.00    +0.000 A 
ATOM      7  C   UNL     1       0.716   9.660  19.700  0.00  0.00    +0.000 A 
ATOM      8  C   UNL     1       0.674  10.265  20.979  0.00  0.00    +0.000 A 
ATOM      9  N   UNL     1      -0.274  11.204  21.074  0.00  0.00    +0.000 NA
BRANCH   5  10
ATOM     10  C   UNL     1      -1.936  12.098  19.539  0.00  0.00    +0.000 C 
BRANCH  10  11
ATOM     11  C   UNL     1      -2.880  11.531  18.482  0.00  0.00    +0.000 C 
BRANCH  11  12
ATOM     12  C   UNL     1      -4.326  11.875  18.810  0.00  0.00    +0.000 C 
BRANCH  12  14
ATOM     13  C   UNL     1      -5.714  12.432  20.632  0.00  0.00    +0.000 C 
ATOM     14  O   UNL     1      -4.385  12.401  20.133  0.00  0.00    +0.000 OA
ENDBRANCH  12  14
ENDBRANCH  11  12
ENDBRANCH  10  11
ENDBRANCH   5  10
ENDBRANCH   1   7
BRANCH   2  15
ATOM     15  C   UNL     1       3.117   7.525  17.872  0.00  0.00    +0.000 A 
ATOM     16  C   UNL     1       4.050   7.401  16.852  0.00  0.00    +0.000 A 
ATOM     17  S   UNL     1       4.763   5.848  16.882  0.00  0.00    +0.000 S 
ATOM     18  C   UNL     1       3.845   5.464  18.283  0.00  0.00    +0.000 A 
ATOM     19  N   UNL     1       3.014   6.400  18.696  0.00  0.00    +0.000 NA
BRANCH  18  20
ATOM     20  C   UNL     1       4.029   4.223  18.975  0.00  0.00    +0.000 A 
ATOM     21  N   UNL     1       5.196   3.723  19.336  0.00  0.00    +0.000 NA
ATOM     22  N   UNL     1       4.973   2.565  20.038  0.00  0.00    +0.000 NA
ATOM     23  C   UNL     1       3.675   2.384  20.097  0.00  0.00    +0.000 A 
ATOM     24  N   UNL     1       3.032   3.378  19.416  0.00  0.00    +0.000 N 
BRANCH  24  25
ATOM     25  C   UNL     1       1.595   3.522  19.229  0.00  0.00    +0.000 C 
ATOM     26  C   UNL     1       0.965   2.213  18.747  0.00  0.00    +0.000 C 
ATOM     27  C   UNL     1       0.853   4.037  20.465  0.00  0.00    +0.000 C 
ENDBRANCH  24  25
ENDBRANCH  18  20
ENDBRANCH   2  15
TORSDOF 8
ENDMDL
MODEL 9
REMARK VINA RESULT:      -6.4      2.586      3.333
REMARK  Name = 
REMARK  11 active torsions:
REMARK  status: ('A' for Active; 'I' for Inactive)
REMARK    1  A    between atoms: C_1  and  O_2
REMARK    2  A    between atoms: O_2  and  C_3
REMARK    3  A    between atoms: C_3  and  C_4
REMARK    4  A    between atoms: C_4  and  C_5
REMARK    5  A    between atoms: C_5  and  N_6
REMARK    6  A    between atoms: C_8  and  N_9
REMARK    7  A    between atoms: C_10  and  C_12
REMARK    8  A    between atoms: C_15  and  C_16
REMARK    9  A    between atoms: N_20  and  C_21
REMARK   10  A    between atoms: C_21  and  C_22
REMARK   11  A    between atoms: C_21  and  C_23
REMARK                            x       y       z     vdW  Elec       q    Type
REMARK                         _______ _______ _______ _____ _____    ______ ____
ROOT
ATOM      1  N   UNL     1       1.250   9.162  19.641  0.00  0.00    +0.000 N 
ATOM      2  C   UNL     1       1.873   8.779  18.468  0.00  0.00    +0.000 C 
ATOM      3  O   UNL     1       1.905   9.414  17.420  0.00  0.00    +0.000 OA
ATOM      4  H   UNL     1       1.315   8.520  20.424  0.00  0.00    +0.000 HD
ENDROOT
BRANCH   1   7
ATOM      5  N   UNL     1      -1.035  11.853  19.967  0.00  0.00    +0.000 N 
ATOM      6  C   UNL     1      -0.811  10.527  19.744  0.00  0.00    +0.000 A 
ATOM      7  C   UNL     1       0.547  10.339  19.814  0.00  0.00    +0.000 A 
ATOM      8  C   UNL     1       1.056  11.627  20.107  0.00  0.00    +0.000 A 
ATOM      9  N   UNL     1       0.093  12.550  20.204  0.00  0.00    +0.000 NA
BRANCH   5  10
ATOM     10  C   UNL     1      -2.329  12.506  19.989  0.00  0.00    +0.000 C 
BRANCH  10  11
ATOM     11  C   UNL     1      -2.622  13.196  21.319  0.00  0.00    +0.000 C 
BRANCH  11  12
ATOM     12  C   UNL     1      -2.647  12.185  22.456  0.00  0.00    +0.000 C 
BRANCH  12  14
ATOM     13  C   UNL     1      -4.893  12.898  22.389  0.00  0.00    +0.000 C 
ATOM     14  O   UNL     1      -3.858  12.347  23.190  0.00  0.00    +0.000 OA
ENDBRANCH  12  14
ENDBRANCH  11  12
ENDBRANCH  10  11
ENDBRANCH   5  10
ENDBRANCH   1   7
BRANCH   2  15
ATOM     15  C   UNL     1       2.539   7.478  18.581  0.00  0.00    +0.000 A 
ATOM     16  C   UNL     1       2.170   6.506  19.500  0.00  0.00    +0.000 A 
ATOM     17  S   UNL     1       3.195   5.145  19.369  0.00  0.00    +0.000 S 
ATOM     18  C   UNL     1       4.015   5.898  18.060  0.00  0.00    +0.000 A 
ATOM     19  N   UNL     1       3.602   7.111  17.750  0.00  0.00    +0.000 NA
BRANCH  18  20
ATOM     20  C   UNL     1       5.039   5.212  17.331  0.00  0.00    +0.000 A 
ATOM     21  N   UNL     1       4.826   4.276  16.425  0.00  0.00    +0.000 NA
ATOM     22  N   UNL     1       6.035   3.907  15.891  0.00  0.00    +0.000 NA
ATOM     23  C   UNL     1       6.961   4.628  16.476  0.00  0.00    +0.000 A 
ATOM     24  N   UNL     1       6.396   5.443  17.415  0.00  0.00    +0.000 N 
BRANCH  24  25
ATOM     25  C   UNL     1       7.088   6.376  18.293  0.00  0.00    +0.000 C 
ATOM     26  C   UNL     1       8.133   5.659  19.151  0.00  0.00    +0.000 C 
ATOM     27  C   UNL     1       7.731   7.560  17.564  0.00  0.00    +0.000 C 
ENDBRANCH  24  25
ENDBRANCH  18  20
ENDBRANCH   2  15
TORSDOF 8
ENDMDL
