MODEL 1
REMARK VINA RESULT:      -7.2      0.000      0.000
REMARK  Name = 
REMARK  7 active torsions:
REMARK  status: ('A' for Active; 'I' for Inactive)
REMARK    1  A    between atoms: N_1  and  C_2
REMARK    2  A    between atoms: C_8  and  C_9
REMARK    3  A    between atoms: N_11  and  C_12
REMARK    4  A    between atoms: C_12  and  C_13
REMARK    5  A    between atoms: C_13  and  C_14
REMARK    6  A    between atoms: C_14  and  C_15
REMARK    7  A    between atoms: C_15  and  N_16
REMARK                            x       y       z     vdW  Elec       q    Type
REMARK                         _______ _______ _______ _____ _____    ______ ____
ROOT
ATOM      1  C   UNL     1       4.296   3.301  17.911  0.00  0.00    +0.000 C 
ENDROOT
BRANCH   1   2
ATOM      2  C   UNL     1       5.407   3.893  18.794  0.00  0.00    +0.000 C 
BRANCH   2   3
ATOM      3  C   UNL     1       6.482   4.724  18.081  0.00  0.00    +0.000 C 
BRANCH   3   6
ATOM      4  C   UNL     1       7.001   5.199  15.690  0.00  0.00    +0.000 C 
ATOM      5  O   UNL     1       7.519   6.251  16.016  0.00  0.00    +0.000 OA
ATOM      6  N   UNL     1       6.445   4.400  16.657  0.00  0.00    +0.000 N 
ATOM      7  H   UNL     1       5.943   3.553  16.389  0.00  0.00    +0.000 HD
BRANCH   4  14
ATOM      8  C   UNL     1       7.889   5.203  13.190  0.00  0.00    +0.000 A 
ATOM      9  C   UNL     1       7.661   4.789  11.865  0.00  0.00    +0.000 A 
ATOM     10  C   UNL     1       6.541   4.052  11.513  0.00  0.00    +0.000 A 
ATOM     11  C   UNL     1       5.615   3.696  12.480  0.00  0.00    +0.000 A 
ATOM     12 CL   UNL     1       4.226   2.733  12.004  0.00  0.00    +0.000 Cl
ATOM     13  C   UNL     1       5.798   4.098  13.810  0.00  0.00    +0.000 A 
ATOM     14  C   UNL     1       6.932   4.858  14.212  0.00  0.00    +0.000 A 
BRANCH   8  15
ATOM     15  N   UNL     1       9.049   6.007  13.394  0.00  0.00    +0.000 N 
ATOM     16  H   UNL     1       9.716   5.740  14.142  0.00  0.00    +0.000 HD
ATOM     17  H   UNL     1       9.343   6.755  12.761  0.00  0.00    +0.000 HD
ENDBRANCH   8  15
ENDBRANCH   4  14
ENDBRANCH   3   6
ENDBRANCH   2   3
ENDBRANCH   1   2
BRANCH   1  18
ATOM     18  C   UNL     1       2.986   3.125  18.744  0.00  0.00    +0.000 C 
BRANCH  18  19
ATOM     19  N   UNL     1       1.944   4.174  18.481  0.00  0.00    +0.000 NA
ATOM     20  C   UNL     1       1.225   4.545  19.690  0.00  0.00    +0.000 C 
ATOM     21  C   UNL     1       2.096   5.430  20.588  0.00  0.00    +0.000 C 
ATOM     22  N   UNL     1       2.278   6.669  19.867  0.00  0.00    +0.000 N 
ATOM     23  C   UNL     1       1.735   7.840  20.429  0.00  0.00    +0.000 A 
ATOM     24  N   UNL     1       1.683   7.982  21.798  0.00  0.00    +0.000 NA
ATOM     25  S   UNL     1       0.897   9.401  22.129  0.00  0.00    +0.000 S 
ATOM     26  C   UNL     1       0.576   9.860  20.564  0.00  0.00    +0.000 A 
ATOM     27  C   UNL     1      -0.139  10.960  20.103  0.00  0.00    +0.000 A 
ATOM     28  C   UNL     1      -0.322  11.084  18.720  0.00  0.00    +0.000 A 
ATOM     29  C   UNL     1       0.197  10.125  17.847  0.00  0.00    +0.000 A 
ATOM     30  C   UNL     1       0.905   9.021  18.342  0.00  0.00    +0.000 A 
ATOM     31  C   UNL     1       1.100   8.898  19.728  0.00  0.00    +0.000 A 
ATOM     32  C   UNL     1       2.948   6.547  18.569  0.00  0.00    +0.000 C 
ATOM     33  C   UNL     1       2.327   5.422  17.699  0.00  0.00    +0.000 C 
ENDBRANCH  18  19
ENDBRANCH   1  18
TORSDOF 7
ENDMDL
MODEL 2
REMARK VINA RESULT:      -7.1      3.137      5.208
REMARK  Name = 
REMARK  7 active torsions:
REMARK  status: ('A' for Active; 'I' for Inactive)
REMARK    1  A    between atoms: N_1  and  C_2
REMARK    2  A    between atoms: C_8  and  C_9
REMARK    3  A    between atoms: N_11  and  C_12
REMARK    4  A    between atoms: C_12  and  C_13
REMARK    5  A    between atoms: C_13  and  C_14
REMARK    6  A    between atoms: C_14  and  C_15
REMARK    7  A    between atoms: C_15  and  N_16
REMARK                            x       y       z     vdW  Elec       q    Type
REMARK                         _______ _______ _______ _____ _____    ______ ____
ROOT
ATOM      1  C   UNL     1       2.021   7.057  19.960  0.00  0.00    +0.000 C 
ENDROOT
BRANCH   1   2
ATOM      2  C   UNL     1       1.420   5.761  20.529  0.00  0.00    +0.000 C 
BRANCH   2   3
ATOM      3  C   UNL     1       1.629   4.485  19.702  0.00  0.00    +0.000 C 
BRANCH   3   6
ATOM      4  C   UNL     1       3.937   4.061  18.863  0.00  0.00    +0.000 C 
ATOM      5  O   UNL     1       4.121   3.279  19.778  0.00  0.00    +0.000 OA
ATOM      6  N   UNL     1       2.734   4.714  18.775  0.00  0.00    +0.000 N 
ATOM      7  H   UNL     1       2.594   5.426  18.057  0.00  0.00    +0.000 HD
BRANCH   4  14
ATOM      8  C   UNL     1       6.421   4.753  18.236  0.00  0.00    +0.000 A 
ATOM      9  C   UNL     1       7.360   4.943  17.206  0.00  0.00    +0.000 A 
ATOM     10  C   UNL     1       7.036   4.730  15.876  0.00  0.00    +0.000 A 
ATOM     11  C   UNL     1       5.762   4.309  15.533  0.00  0.00    +0.000 A 
ATOM     12 CL   UNL     1       5.397   4.015  13.840  0.00  0.00    +0.000 Cl
ATOM     13  C   UNL     1       4.793   4.119  16.527  0.00  0.00    +0.000 A 
ATOM     14  C   UNL     1       5.083   4.330  17.904  0.00  0.00    +0.000 A 
BRANCH   8  15
ATOM     15  N   UNL     1       6.875   5.070  19.552  0.00  0.00    +0.000 N 
ATOM     16  H   UNL     1       7.887   5.242  19.702  0.00  0.00    +0.000 HD
ATOM     17  H   UNL     1       6.251   5.275  20.336  0.00  0.00    +0.000 HD
ENDBRANCH   8  15
ENDBRANCH   4  14
ENDBRANCH   3   6
ENDBRANCH   2   3
ENDBRANCH   1   2
BRANCH   1  18
ATOM     18  C   UNL     1       1.613   8.273  20.852  0.00  0.00    +0.000 C 
BRANCH  18  19
ATOM     19  N   UNL     1       0.165   8.655  20.745  0.00  0.00    +0.000 NA
ATOM     20  C   UNL     1      -0.411   8.979  22.041  0.00  0.00    +0.000 C 
ATOM     21  C   UNL     1       0.065  10.355  22.517  0.00  0.00    +0.000 C 
ATOM     22  N   UNL     1      -0.512  11.313  21.603  0.00  0.00    +0.000 N 
ATOM     23  C   UNL     1      -1.444  12.233  22.120  0.00  0.00    +0.000 A 
ATOM     24  N   UNL     1      -1.310  12.691  23.412  0.00  0.00    +0.000 NA
ATOM     25  S   UNL     1      -2.612  13.658  23.742  0.00  0.00    +0.000 S 
ATOM     26  C   UNL     1      -3.392  13.506  22.283  0.00  0.00    +0.000 A 
ATOM     27  C   UNL     1      -4.622  14.022  21.889  0.00  0.00    +0.000 A 
ATOM     28  C   UNL     1      -5.088  13.687  20.612  0.00  0.00    +0.000 A 
ATOM     29  C   UNL     1      -4.337  12.859  19.776  0.00  0.00    +0.000 A 
ATOM     30  C   UNL     1      -3.105  12.344  20.205  0.00  0.00    +0.000 A 
ATOM     31  C   UNL     1      -2.628  12.685  21.482  0.00  0.00    +0.000 A 
ATOM     32  C   UNL     1      -0.114  11.160  20.200  0.00  0.00    +0.000 C 
ATOM     33  C   UNL     1      -0.256   9.693  19.714  0.00  0.00    +0.000 C 
ENDBRANCH  18  19
ENDBRANCH   1  18
TORSDOF 7
ENDMDL
MODEL 3
REMARK VINA RESULT:      -7.1      1.411      1.877
REMARK  Name = 
REMARK  7 active torsions:
REMARK  status: ('A' for Active; 'I' for Inactive)
REMARK    1  A    between atoms: N_1  and  C_2
REMARK    2  A    between atoms: C_8  and  C_9
REMARK    3  A    between atoms: N_11  and  C_12
REMARK    4  A    between atoms: C_12  and  C_13
REMARK    5  A    between atoms: C_13  and  C_14
REMARK    6  A    between atoms: C_14  and  C_15
REMARK    7  A    between atoms: C_15  and  N_16
REMARK                            x       y       z     vdW  Elec       q    Type
REMARK                         _______ _______ _______ _____ _____    ______ ____
ROOT
ATOM      1  C   UNL     1       3.802   4.195  19.631  0.00  0.00    +0.000 C 
ENDROOT
BRANCH   1   2
ATOM      2  C   UNL     1       4.317   3.630  18.297  0.00  0.00    +0.000 C 
BRANCH   2   3
ATOM      3  C   UNL     1       5.688   4.129  17.821  0.00  0.00    +0.000 C 
BRANCH   3   6
ATOM      4  C   UNL     1       6.781   4.502  15.613  0.00  0.00    +0.000 C 
ATOM      5  O   UNL     1       7.717   5.044  16.172  0.00  0.00    +0.000 OA
ATOM      6  N   UNL     1       5.728   4.044  16.364  0.00  0.00    +0.000 N 
ATOM      7  H   UNL     1       4.906   3.655  15.901  0.00  0.00    +0.000 HD
BRANCH   4  14
ATOM      8  C   UNL     1       7.733   5.053  13.198  0.00  0.00    +0.000 A 
ATOM      9  C   UNL     1       7.593   4.860  11.812  0.00  0.00    +0.000 A 
ATOM     10  C   UNL     1       6.580   4.078  11.283  0.00  0.00    +0.000 A 
ATOM     11  C   UNL     1       5.676   3.453  12.125  0.00  0.00    +0.000 A 
ATOM     12 CL   UNL     1       4.425   2.441  11.421  0.00  0.00    +0.000 Cl
ATOM     13  C   UNL     1       5.772   3.628  13.513  0.00  0.00    +0.000 A 
ATOM     14  C   UNL     1       6.795   4.426  14.096  0.00  0.00    +0.000 A 
BRANCH   8  15
ATOM     15  N   UNL     1       8.784   5.932  13.597  0.00  0.00    +0.000 N 
ATOM     16  H   UNL     1       9.748   5.557  13.668  0.00  0.00    +0.000 HD
ATOM     17  H   UNL     1       8.676   6.946  13.684  0.00  0.00    +0.000 HD
ENDBRANCH   8  15
ENDBRANCH   4  14
ENDBRANCH   3   6
ENDBRANCH   2   3
ENDBRANCH   1   2
BRANCH   1  18
ATOM     18  C   UNL     1       3.590   5.738  19.513  0.00  0.00    +0.000 C 
BRANCH  18  19
ATOM     19  N   UNL     1       2.192   6.140  19.138  0.00  0.00    +0.000 NA
ATOM     20  C   UNL     1       1.436   6.617  20.285  0.00  0.00    +0.000 C 
ATOM     21  C   UNL     1       1.887   8.026  20.685  0.00  0.00    +0.000 C 
ATOM     22  N   UNL     1       1.498   8.891  19.596  0.00  0.00    +0.000 N 
ATOM     23  C   UNL     1       0.535   9.883  19.860  0.00  0.00    +0.000 A 
ATOM     24  N   UNL     1       0.485  10.477  21.101  0.00  0.00    +0.000 NA
ATOM     25  S   UNL     1      -0.813  11.505  21.118  0.00  0.00    +0.000 S 
ATOM     26  C   UNL     1      -1.362  11.211  19.577  0.00  0.00    +0.000 A 
ATOM     27  C   UNL     1      -2.493  11.710  18.942  0.00  0.00    +0.000 A 
ATOM     28  C   UNL     1      -2.769  11.249  17.648  0.00  0.00    +0.000 A 
ATOM     29  C   UNL     1      -1.931  10.317  17.033  0.00  0.00    +0.000 A 
ATOM     30  C   UNL     1      -0.802   9.823  17.703  0.00  0.00    +0.000 A 
ATOM     31  C   UNL     1      -0.516  10.291  18.998  0.00  0.00    +0.000 A 
ATOM     32  C   UNL     1       2.103   8.576  18.298  0.00  0.00    +0.000 C 
ATOM     33  C   UNL     1       1.980   7.069  17.951  0.00  0.00    +0.000 C 
ENDBRANCH  18  19
ENDBRANCH   1  18
TORSDOF 7
ENDMDL
MODEL 4
REMARK VINA RESULT:      -7.1      2.115      3.057
REMARK  Name = 
REMARK  7 active torsions:
REMARK  status: ('A' for Active; 'I' for Inactive)
REMARK    1  A    between atoms: N_1  and  C_2
REMARK    2  A    between atoms: C_8  and  C_9
REMARK    3  A    between atoms: N_11  and  C_12
REMARK    4  A    between atoms: C_12  and  C_13
REMARK    5  A    between atoms: C_13  and  C_14
REMARK    6  A    between atoms: C_14  and  C_15
REMARK    7  A    between atoms: C_15  and  N_16
REMARK                            x       y       z     vdW  Elec       q    Type
REMARK                         _______ _______ _______ _____ _____    ______ ____
ROOT
ATOM      1  C   UNL     1       3.353   4.089  20.671  0.00  0.00    +0.000 C 
ENDROOT
BRANCH   1   2
ATOM      2  C   UNL     1       2.426   3.138  19.897  0.00  0.00    +0.000 C 
BRANCH   2   3
ATOM      3  C   UNL     1       3.103   2.022  19.090  0.00  0.00    +0.000 C 
BRANCH   3   6
ATOM      4  C   UNL     1       4.016   3.384  17.213  0.00  0.00    +0.000 C 
ATOM      5  O   UNL     1       2.884   3.569  16.803  0.00  0.00    +0.000 OA
ATOM      6  N   UNL     1       4.203   2.608  18.328  0.00  0.00    +0.000 N 
ATOM      7  H   UNL     1       5.150   2.385  18.639  0.00  0.00    +0.000 HD
BRANCH   4  14
ATOM      8  C   UNL     1       6.240   4.799  16.915  0.00  0.00    +0.000 A 
ATOM      9  C   UNL     1       7.238   5.240  16.027  0.00  0.00    +0.000 A 
ATOM     10  C   UNL     1       7.228   4.890  14.687  0.00  0.00    +0.000 A 
ATOM     11  C   UNL     1       6.222   4.078  14.190  0.00  0.00    +0.000 A 
ATOM     12 CL   UNL     1       6.261   3.626  12.494  0.00  0.00    +0.000 Cl
ATOM     13  C   UNL     1       5.201   3.627  15.038  0.00  0.00    +0.000 A 
ATOM     14  C   UNL     1       5.172   3.966  16.420  0.00  0.00    +0.000 A 
BRANCH   8  15
ATOM     15  N   UNL     1       6.343   5.288  18.251  0.00  0.00    +0.000 N 
ATOM     16  H   UNL     1       6.088   4.657  19.034  0.00  0.00    +0.000 HD
ATOM     17  H   UNL     1       6.784   6.176  18.501  0.00  0.00    +0.000 HD
ENDBRANCH   8  15
ENDBRANCH   4  14
ENDBRANCH   3   6
ENDBRANCH   2   3
ENDBRANCH   1   2
BRANCH   1  18
ATOM     18  C   UNL     1       3.352   5.501  20.002  0.00  0.00    +0.000 C 
BRANCH  18  19
ATOM     19  N   UNL     1       1.999   5.962  19.540  0.00  0.00    +0.000 NA
ATOM     20  C   UNL     1       1.219   6.536  20.625  0.00  0.00    +0.000 C 
ATOM     21  C   UNL     1       1.733   7.936  20.980  0.00  0.00    +0.000 C 
ATOM     22  N   UNL     1       1.447   8.767  19.833  0.00  0.00    +0.000 N 
ATOM     23  C   UNL     1       0.532   9.823  20.003  0.00  0.00    +0.000 A 
ATOM     24  N   UNL     1       0.459  10.479  21.211  0.00  0.00    +0.000 NA
ATOM     25  S   UNL     1      -0.775  11.578  21.115  0.00  0.00    +0.000 S 
ATOM     26  C   UNL     1      -1.269  11.240  19.565  0.00  0.00    +0.000 A 
ATOM     27  C   UNL     1      -2.338  11.769  18.852  0.00  0.00    +0.000 A 
ATOM     28  C   UNL     1      -2.580  11.261  17.569  0.00  0.00    +0.000 A 
ATOM     29  C   UNL     1      -1.770  10.254  17.041  0.00  0.00    +0.000 A 
ATOM     30  C   UNL     1      -0.705   9.731  17.788  0.00  0.00    +0.000 A 
ATOM     31  C   UNL     1      -0.453  10.246  19.072  0.00  0.00    +0.000 A 
ATOM     32  C   UNL     1       2.091   8.354  18.583  0.00  0.00    +0.000 C 
ATOM     33  C   UNL     1       1.896   6.840  18.302  0.00  0.00    +0.000 C 
ENDBRANCH  18  19
ENDBRANCH   1  18
TORSDOF 7
ENDMDL
MODEL 5
REMARK VINA RESULT:      -7.0      4.605      7.514
REMARK  Name = 
REMARK  7 active torsions:
REMARK  status: ('A' for Active; 'I' for Inactive)
REMARK    1  A    between atoms: N_1  and  C_2
REMARK    2  A    between atoms: C_8  and  C_9
REMARK    3  A    between atoms: N_11  and  C_12
REMARK    4  A    between atoms: C_12  and  C_13
REMARK    5  A    between atoms: C_13  and  C_14
REMARK    6  A    between atoms: C_14  and  C_15
REMARK    7  A    between atoms: C_15  and  N_16
REMARK                            x       y       z     vdW  Elec       q    Type
REMARK                         _______ _______ _______ _____ _____    ______ ____
ROOT
ATOM      1  C   UNL     1       0.484   9.797  19.171  0.00  0.00    +0.000 C 
ENDROOT
BRANCH   1   2
ATOM      2  C   UNL     1       1.196   9.304  17.900  0.00  0.00    +0.000 C 
BRANCH   2   3
ATOM      3  C   UNL     1       2.614   8.747  18.078  0.00  0.00    +0.000 C 
BRANCH   3   6
ATOM      4  C   UNL     1       3.359   6.378  17.861  0.00  0.00    +0.000 C 
ATOM      5  O   UNL     1       4.215   6.725  17.068  0.00  0.00    +0.000 OA
ATOM      6  N   UNL     1       2.513   7.322  18.386  0.00  0.00    +0.000 N 
ATOM      7  H   UNL     1       1.745   7.035  18.994  0.00  0.00    +0.000 HD
BRANCH   4  14
ATOM      8  C   UNL     1       3.870   3.800  17.499  0.00  0.00    +0.000 A 
ATOM      9  C   UNL     1       3.631   2.485  17.939  0.00  0.00    +0.000 A 
ATOM     10  C   UNL     1       2.793   2.215  19.009  0.00  0.00    +0.000 A 
ATOM     11  C   UNL     1       2.173   3.254  19.682  0.00  0.00    +0.000 A 
ATOM     12 CL   UNL     1       1.146   2.876  21.055  0.00  0.00    +0.000 Cl
ATOM     13  C   UNL     1       2.375   4.578  19.269  0.00  0.00    +0.000 A 
ATOM     14  C   UNL     1       3.224   4.899  18.174  0.00  0.00    +0.000 A 
BRANCH   8  15
ATOM     15  N   UNL     1       4.705   3.924  16.348  0.00  0.00    +0.000 N 
ATOM     16  H   UNL     1       5.725   3.771  16.453  0.00  0.00    +0.000 HD
ATOM     17  H   UNL     1       4.349   4.019  15.394  0.00  0.00    +0.000 HD
ENDBRANCH   8  15
ENDBRANCH   4  14
ENDBRANCH   3   6
ENDBRANCH   2   3
ENDBRANCH   1   2
BRANCH   1  18
ATOM     18  C   UNL     1      -0.552  10.908  18.808  0.00  0.00    +0.000 C 
BRANCH  18  19
ATOM     19  N   UNL     1      -0.436  12.153  19.640  0.00  0.00    +0.000 NA
ATOM     20  C   UNL     1      -1.578  13.036  19.465  0.00  0.00    +0.000 C 
ATOM     21  C   UNL     1      -2.805  12.486  20.201  0.00  0.00    +0.000 C 
ATOM     22  N   UNL     1      -2.490  12.559  21.608  0.00  0.00    +0.000 N 
ATOM     23  C   UNL     1      -3.265  13.419  22.409  0.00  0.00    +0.000 A 
ATOM     24  N   UNL     1      -4.596  13.614  22.115  0.00  0.00    +0.000 NA
ATOM     25  S   UNL     1      -5.184  14.752  23.165  0.00  0.00    +0.000 S 
ATOM     26  C   UNL     1      -3.777  15.049  23.998  0.00  0.00    +0.000 A 
ATOM     27  C   UNL     1      -3.536  15.975  25.007  0.00  0.00    +0.000 A 
ATOM     28  C   UNL     1      -2.230  16.071  25.503  0.00  0.00    +0.000 A 
ATOM     29  C   UNL     1      -1.214  15.262  24.988  0.00  0.00    +0.000 A 
ATOM     30  C   UNL     1      -1.485  14.345  23.963  0.00  0.00    +0.000 A 
ATOM     31  C   UNL     1      -2.797  14.238  23.469  0.00  0.00    +0.000 A 
ATOM     32  C   UNL     1      -1.324  11.778  22.032  0.00  0.00    +0.000 C 
ATOM     33  C   UNL     1      -0.095  12.029  21.119  0.00  0.00    +0.000 C 
ENDBRANCH  18  19
ENDBRANCH   1  18
TORSDOF 7
ENDMDL
MODEL 6
REMARK VINA RESULT:      -6.9      5.793     11.724
REMARK  Name = 
REMARK  7 active torsions:
REMARK  status: ('A' for Active; 'I' for Inactive)
REMARK    1  A    between atoms: N_1  and  C_2
REMARK    2  A    between atoms: C_8  and  C_9
REMARK    3  A    between atoms: N_11  and  C_12
REMARK    4  A    between atoms: C_12  and  C_13
REMARK    5  A    between atoms: C_13  and  C_14
REMARK    6  A    between atoms: C_14  and  C_15
REMARK    7  A    between atoms: C_15  and  N_16
REMARK                            x       y       z     vdW  Elec       q    Type
REMARK                         _______ _______ _______ _____ _____    ______ ____
ROOT
ATOM      1  C   UNL     1      -0.187  12.231  20.291  0.00  0.00    +0.000 C 
ENDROOT
BRANCH   1   2
ATOM      2  C   UNL     1      -0.822  13.370  19.477  0.00  0.00    +0.000 C 
BRANCH   2   3
ATOM      3  C   UNL     1      -1.514  14.483  20.276  0.00  0.00    +0.000 C 
BRANCH   3   6
ATOM      4  C   UNL     1      -3.305  13.609  21.773  0.00  0.00    +0.000 C 
ATOM      5  O   UNL     1      -2.493  13.502  22.674  0.00  0.00    +0.000 OA
ATOM      6  N   UNL     1      -2.888  14.067  20.549  0.00  0.00    +0.000 N 
ATOM      7  H   UNL     1      -3.542  14.092  19.766  0.00  0.00    +0.000 HD
BRANCH   4  14
ATOM      8  C   UNL     1      -5.495  13.328  23.244  0.00  0.00    +0.000 A 
ATOM      9  C   UNL     1      -6.818  12.851  23.297  0.00  0.00    +0.000 A 
ATOM     10  C   UNL     1      -7.411  12.225  22.213  0.00  0.00    +0.000 A 
ATOM     11  C   UNL     1      -6.703  12.064  21.033  0.00  0.00    +0.000 A 
ATOM     12 CL   UNL     1      -7.500  11.298  19.669  0.00  0.00    +0.000 Cl
ATOM     13  C   UNL     1      -5.379  12.514  20.942  0.00  0.00    +0.000 A 
ATOM     14  C   UNL     1      -4.732  13.159  22.032  0.00  0.00    +0.000 A 
BRANCH   8  15
ATOM     15  N   UNL     1      -4.994  13.895  24.454  0.00  0.00    +0.000 N 
ATOM     16  H   UNL     1      -5.577  13.838  25.310  0.00  0.00    +0.000 HD
ATOM     17  H   UNL     1      -4.036  14.234  24.570  0.00  0.00    +0.000 HD
ENDBRANCH   8  15
ENDBRANCH   4  14
ENDBRANCH   3   6
ENDBRANCH   2   3
ENDBRANCH   1   2
BRANCH   1  18
ATOM     18  C   UNL     1       0.689  11.332  19.361  0.00  0.00    +0.000 C 
BRANCH  18  19
ATOM     19  N   UNL     1       0.229   9.904  19.275  0.00  0.00    +0.000 NA
ATOM     20  C   UNL     1       0.671   9.261  18.048  0.00  0.00    +0.000 C 
ATOM     21  C   UNL     1       2.165   8.927  18.120  0.00  0.00    +0.000 C 
ATOM     22  N   UNL     1       2.297   7.913  19.141  0.00  0.00    +0.000 N 
ATOM     23  C   UNL     1       2.745   6.639  18.744  0.00  0.00    +0.000 A 
ATOM     24  N   UNL     1       3.645   6.521  17.709  0.00  0.00    +0.000 NA
ATOM     25  S   UNL     1       3.879   4.907  17.424  0.00  0.00    +0.000 S 
ATOM     26  C   UNL     1       2.836   4.314  18.574  0.00  0.00    +0.000 A 
ATOM     27  C   UNL     1       2.486   2.995  18.842  0.00  0.00    +0.000 A 
ATOM     28  C   UNL     1       1.523   2.767  19.833  0.00  0.00    +0.000 A 
ATOM     29  C   UNL     1       0.940   3.836  20.516  0.00  0.00    +0.000 A 
ATOM     30  C   UNL     1       1.305   5.156  20.217  0.00  0.00    +0.000 A 
ATOM     31  C   UNL     1       2.278   5.390  19.230  0.00  0.00    +0.000 A 
ATOM     32  C   UNL     1       1.860   8.313  20.482  0.00  0.00    +0.000 C 
ATOM     33  C   UNL     1       0.459   8.979  20.461  0.00  0.00    +0.000 C 
ENDBRANCH  18  19
ENDBRANCH   1  18
TORSDOF 7
ENDMDL
MODEL 7
REMARK VINA RESULT:      -6.9      4.232      6.989
REMARK  Name = 
REMARK  7 active torsions:
REMARK  status: ('A' for Active; 'I' for Inactive)
REMARK    1  A    between atoms: N_1  and  C_2
REMARK    2  A    between atoms: C_8  and  C_9
REMARK    3  A    between atoms: N_11  and  C_12
REMARK    4  A    between atoms: C_12  and  C_13
REMARK    5  A    between atoms: C_13  and  C_14
REMARK    6  A    between atoms: C_14  and  C_15
REMARK    7  A    between atoms: C_15  and  N_16
REMARK                            x       y       z     vdW  Elec       q    Type
REMARK                         _______ _______ _______ _____ _____    ______ ____
ROOT
ATOM      1  C   UNL     1       0.863   9.823  17.852  0.00  0.00    +0.000 C 
ENDROOT
BRANCH   1   2
ATOM      2  C   UNL     1       2.134   9.223  18.475  0.00  0.00    +0.000 C 
BRANCH   2   3
ATOM      3  C   UNL     1       2.974   8.305  17.577  0.00  0.00    +0.000 C 
BRANCH   3   6
ATOM      4  C   UNL     1       3.743   5.941  17.744  0.00  0.00    +0.000 C 
ATOM      5  O   UNL     1       4.631   6.178  16.945  0.00  0.00    +0.000 OA
ATOM      6  N   UNL     1       2.869   6.941  18.087  0.00  0.00    +0.000 N 
ATOM      7  H   UNL     1       2.077   6.736  18.697  0.00  0.00    +0.000 HD
BRANCH   4  14
ATOM      8  C   UNL     1       4.651   3.674  18.781  0.00  0.00    +0.000 A 
ATOM      9  C   UNL     1       4.330   2.381  19.233  0.00  0.00    +0.000 A 
ATOM     10  C   UNL     1       3.032   1.899  19.202  0.00  0.00    +0.000 A 
ATOM     11  C   UNL     1       2.007   2.700  18.726  0.00  0.00    +0.000 A 
ATOM     12 CL   UNL     1       0.368   2.068  18.734  0.00  0.00    +0.000 Cl
ATOM     13  C   UNL     1       2.285   3.990  18.255  0.00  0.00    +0.000 A 
ATOM     14  C   UNL     1       3.604   4.522  18.266  0.00  0.00    +0.000 A 
BRANCH   8  15
ATOM     15  N   UNL     1       6.036   4.013  18.814  0.00  0.00    +0.000 N 
ATOM     16  H   UNL     1       6.374   4.790  18.215  0.00  0.00    +0.000 HD
ATOM     17  H   UNL     1       6.700   3.633  19.493  0.00  0.00    +0.000 HD
ENDBRANCH   8  15
ENDBRANCH   4  14
ENDBRANCH   3   6
ENDBRANCH   2   3
ENDBRANCH   1   2
BRANCH   1  18
ATOM     18  C   UNL     1       0.298  10.954  18.770  0.00  0.00    +0.000 C 
BRANCH  18  19
ATOM     19  N   UNL     1      -1.038  10.640  19.380  0.00  0.00    +0.000 NA
ATOM     20  C   UNL     1      -0.980  10.604  20.833  0.00  0.00    +0.000 C 
ATOM     21  C   UNL     1      -0.890  12.022  21.407  0.00  0.00    +0.000 C 
ATOM     22  N   UNL     1      -2.151  12.656  21.100  0.00  0.00    +0.000 N 
ATOM     23  C   UNL     1      -2.978  13.025  22.178  0.00  0.00    +0.000 A 
ATOM     24  N   UNL     1      -2.414  13.431  23.366  0.00  0.00    +0.000 NA
ATOM     25  S   UNL     1      -3.641  13.684  24.448  0.00  0.00    +0.000 S 
ATOM     26  C   UNL     1      -4.911  13.264  23.462  0.00  0.00    +0.000 A 
ATOM     27  C   UNL     1      -6.265  13.183  23.766  0.00  0.00    +0.000 A 
ATOM     28  C   UNL     1      -7.131  12.735  22.760  0.00  0.00    +0.000 A 
ATOM     29  C   UNL     1      -6.636  12.380  21.503  0.00  0.00    +0.000 A 
ATOM     30  C   UNL     1      -5.264  12.461  21.230  0.00  0.00    +0.000 A 
ATOM     31  C   UNL     1      -4.392  12.920  22.233  0.00  0.00    +0.000 A 
ATOM     32  C   UNL     1      -2.466  12.767  19.673  0.00  0.00    +0.000 C 
ATOM     33  C   UNL     1      -2.263  11.422  18.927  0.00  0.00    +0.000 C 
ENDBRANCH  18  19
ENDBRANCH   1  18
TORSDOF 7
ENDMDL
MODEL 8
REMARK VINA RESULT:      -6.9      4.516      7.347
REMARK  Name = 
REMARK  7 active torsions:
REMARK  status: ('A' for Active; 'I' for Inactive)
REMARK    1  A    between atoms: N_1  and  C_2
REMARK    2  A    between atoms: C_8  and  C_9
REMARK    3  A    between atoms: N_11  and  C_12
REMARK    4  A    between atoms: C_12  and  C_13
REMARK    5  A    between atoms: C_13  and  C_14
REMARK    6  A    between atoms: C_14  and  C_15
REMARK    7  A    between atoms: C_15  and  N_16
REMARK                            x       y       z     vdW  Elec       q    Type
REMARK                         _______ _______ _______ _____ _____    ______ ____
ROOT
ATOM      1  C   UNL     1      -0.202   9.920  21.981  0.00  0.00    +0.000 C 
ENDROOT
BRANCH   1   2
ATOM      2  C   UNL     1       0.291   8.570  21.435  0.00  0.00    +0.000 C 
BRANCH   2   3
ATOM      3  C   UNL     1       1.810   8.392  21.311  0.00  0.00    +0.000 C 
BRANCH   3   6
ATOM      4  C   UNL     1       2.365   7.056  19.281  0.00  0.00    +0.000 C 
ATOM      5  O   UNL     1       2.377   8.078  18.618  0.00  0.00    +0.000 OA
ATOM      6  N   UNL     1       2.070   7.132  20.618  0.00  0.00    +0.000 N 
ATOM      7  H   UNL     1       1.984   6.277  21.169  0.00  0.00    +0.000 HD
BRANCH   4  14
ATOM      8  C   UNL     1       3.675   5.420  17.654  0.00  0.00    +0.000 A 
ATOM      9  C   UNL     1       3.747   4.129  17.100  0.00  0.00    +0.000 A 
ATOM     10  C   UNL     1       2.823   3.147  17.416  0.00  0.00    +0.000 A 
ATOM     11  C   UNL     1       1.798   3.422  18.307  0.00  0.00    +0.000 A 
ATOM     12 CL   UNL     1       0.666   2.142  18.710  0.00  0.00    +0.000 Cl
ATOM     13  C   UNL     1       1.683   4.698  18.873  0.00  0.00    +0.000 A 
ATOM     14  C   UNL     1       2.609   5.736  18.573  0.00  0.00    +0.000 A 
BRANCH   8  15
ATOM     15  N   UNL     1       4.657   6.347  17.191  0.00  0.00    +0.000 N 
ATOM     16  H   UNL     1       5.571   5.983  16.865  0.00  0.00    +0.000 HD
ATOM     17  H   UNL     1       4.471   7.339  17.028  0.00  0.00    +0.000 HD
ENDBRANCH   8  15
ENDBRANCH   4  14
ENDBRANCH   3   6
ENDBRANCH   2   3
ENDBRANCH   1   2
BRANCH   1  18
ATOM     18  C   UNL     1      -1.153  10.602  20.945  0.00  0.00    +0.000 C 
BRANCH  18  19
ATOM     19  N   UNL     1      -0.441  11.290  19.816  0.00  0.00    +0.000 NA
ATOM     20  C   UNL     1      -1.293  12.257  19.142  0.00  0.00    +0.000 C 
ATOM     21  C   UNL     1      -1.461  13.519  19.996  0.00  0.00    +0.000 C 
ATOM     22  N   UNL     1      -0.158  14.141  20.046  0.00  0.00    +0.000 N 
ATOM     23  C   UNL     1      -0.014  15.409  19.451  0.00  0.00    +0.000 A 
ATOM     24  N   UNL     1      -1.067  16.296  19.467  0.00  0.00    +0.000 NA
ATOM     25  S   UNL     1      -0.615  17.632  18.600  0.00  0.00    +0.000 S 
ATOM     26  C   UNL     1       0.903  17.120  18.159  0.00  0.00    +0.000 A 
ATOM     27  C   UNL     1       1.835  17.748  17.340  0.00  0.00    +0.000 A 
ATOM     28  C   UNL     1       3.029  17.066  17.071  0.00  0.00    +0.000 A 
ATOM     29  C   UNL     1       3.258  15.798  17.608  0.00  0.00    +0.000 A 
ATOM     30  C   UNL     1       2.294  15.184  18.421  0.00  0.00    +0.000 A 
ATOM     31  C   UNL     1       1.100  15.869  18.702  0.00  0.00    +0.000 A 
ATOM     32  C   UNL     1       0.902  13.328  20.649  0.00  0.00    +0.000 C 
ATOM     33  C   UNL     1       0.935  11.891  20.063  0.00  0.00    +0.000 C 
ENDBRANCH  18  19
ENDBRANCH   1  18
TORSDOF 7
ENDMDL
MODEL 9
REMARK VINA RESULT:      -6.9      6.778      8.370
REMARK  Name = 
REMARK  7 active torsions:
REMARK  status: ('A' for Active; 'I' for Inactive)
REMARK    1  A    between atoms: N_1  and  C_2
REMARK    2  A    between atoms: C_8  and  C_9
REMARK    3  A    between atoms: N_11  and  C_12
REMARK    4  A    between atoms: C_12  and  C_13
REMARK    5  A    between atoms: C_13  and  C_14
REMARK    6  A    between atoms: C_14  and  C_15
REMARK    7  A    between atoms: C_15  and  N_16
REMARK                            x       y       z     vdW  Elec       q    Type
REMARK                         _______ _______ _______ _____ _____    ______ ____
ROOT
ATOM      1  C   UNL     1       8.239   7.894  18.285  0.00  0.00    +0.000 C 
ENDROOT
BRANCH   1   2
ATOM      2  C   UNL     1       8.363   9.372  17.879  0.00  0.00    +0.000 C 
BRANCH   2   3
ATOM      3  C   UNL     1       9.092  10.296  18.864  0.00  0.00    +0.000 C 
BRANCH   3   6
ATOM      4  C   UNL     1      10.134  12.556  18.718  0.00  0.00    +0.000 C 
ATOM      5  O   UNL     1      10.687  12.364  19.786  0.00  0.00    +0.000 OA
ATOM      6  N   UNL     1       9.310  11.584  18.209  0.00  0.00    +0.000 N 
ATOM      7  H   UNL     1       8.784  11.761  17.353  0.00  0.00    +0.000 HD
BRANCH   4  14
ATOM      8  C   UNL     1      11.259  14.214  16.980  0.00  0.00    +0.000 A 
ATOM      9  C   UNL     1      11.293  15.521  16.460  0.00  0.00    +0.000 A 
ATOM     10  C   UNL     1      10.452  16.516  16.933  0.00  0.00    +0.000 A 
ATOM     11  C   UNL     1       9.541  16.233  17.937  0.00  0.00    +0.000 A 
ATOM     12 CL   UNL     1       8.468  17.509  18.487  0.00  0.00    +0.000 Cl
ATOM     13  C   UNL     1       9.483  14.946  18.491  0.00  0.00    +0.000 A 
ATOM     14  C   UNL     1      10.330  13.898  18.036  0.00  0.00    +0.000 A 
BRANCH   8  15
ATOM     15  N   UNL     1      12.223  13.311  16.441  0.00  0.00    +0.000 N 
ATOM     16  H   UNL     1      12.129  13.011  15.453  0.00  0.00    +0.000 HD
ATOM     17  H   UNL     1      13.085  13.043  16.923  0.00  0.00    +0.000 HD
ENDBRANCH   8  15
ENDBRANCH   4  14
ENDBRANCH   3   6
ENDBRANCH   2   3
ENDBRANCH   1   2
BRANCH   1  18
ATOM     18  C   UNL     1       7.690   7.054  17.087  0.00  0.00    +0.000 C 
BRANCH  18  19
ATOM     19  N   UNL     1       7.053   5.754  17.488  0.00  0.00    +0.000 NA
ATOM     20  C   UNL     1       6.539   5.795  18.847  0.00  0.00    +0.000 C 
ATOM     21  C   UNL     1       5.246   6.616  18.913  0.00  0.00    +0.000 C 
ATOM     22  N   UNL     1       4.262   5.868  18.165  0.00  0.00    +0.000 N 
ATOM     23  C   UNL     1       3.151   5.362  18.867  0.00  0.00    +0.000 A 
ATOM     24  N   UNL     1       2.638   6.064  19.934  0.00  0.00    +0.000 NA
ATOM     25  S   UNL     1       1.423   5.156  20.599  0.00  0.00    +0.000 S 
ATOM     26  C   UNL     1       1.528   3.846  19.582  0.00  0.00    +0.000 A 
ATOM     27  C   UNL     1       0.820   2.651  19.618  0.00  0.00    +0.000 A 
ATOM     28  C   UNL     1       1.149   1.671  18.672  0.00  0.00    +0.000 A 
ATOM     29  C   UNL     1       2.159   1.899  17.736  0.00  0.00    +0.000 A 
ATOM     30  C   UNL     1       2.864   3.111  17.731  0.00  0.00    +0.000 A 
ATOM     31  C   UNL     1       2.531   4.101  18.671  0.00  0.00    +0.000 A 
ATOM     32  C   UNL     1       4.584   5.647  16.752  0.00  0.00    +0.000 C 
ATOM     33  C   UNL     1       6.028   5.114  16.562  0.00  0.00    +0.000 C 
ENDBRANCH  18  19
ENDBRANCH   1  18
TORSDOF 7
ENDMDL
