MODEL 1
REMARK VINA RESULT:      -7.5      0.000      0.000
REMARK  Name = 
REMARK  14 active torsions:
REMARK  status: ('A' for Active; 'I' for Inactive)
REMARK    1  A    between atoms: C_2  and  C_3
REMARK    2  A    between atoms: C_3  and  O_4
REMARK    3  A    between atoms: O_4  and  C_5
REMARK    4  A    between atoms: C_5  and  C_7
REMARK    5  A    between atoms: C_7  and  C_8
REMARK    6  A    between atoms: C_7  and  O_19
REMARK    7  A    between atoms: C_8  and  C_9
REMARK    8  A    between atoms: C_12  and  O_13
REMARK    9  A    between atoms: O_13  and  C_14
REMARK   10  A    between atoms: C_15  and  O_16
REMARK   11  A    between atoms: O_16  and  C_17
REMARK   12  A    between atoms: O_19  and  C_20
REMARK   13  A    between atoms: C_20  and  C_22
REMARK   14  A    between atoms: C_23  and  C_24
REMARK                            x       y       z     vdW  Elec       q    Type
REMARK                         _______ _______ _______ _____ _____    ______ ____
ROOT
ATOM      1  C   UNL     1       5.197   5.391  17.421  0.00  0.00    +0.000 C 
ENDROOT
BRANCH   1   2
ATOM      2  C   UNL     1       5.366   4.289  18.464  0.00  0.00    +0.000 C 
ATOM      3  O   UNL     1       6.126   4.346  19.426  0.00  0.00    +0.000 OA
BRANCH   2   4
ATOM      4  O   UNL     1       4.590   3.212  18.152  0.00  0.00    +0.000 OA
BRANCH   4   5
ATOM      5  C   UNL     1       3.995   2.524  19.261  0.00  0.00    +0.000 C 
BRANCH   5   7
ATOM      6  C   UNL     1       1.641   2.718  18.388  0.00  0.00    +0.000 C 
ATOM      7  C   UNL     1       2.658   1.984  18.858  0.00  0.00    +0.000 C 
ENDBRANCH   5   7
ENDBRANCH   4   5
ENDBRANCH   2   4
ENDBRANCH   1   2
BRANCH   1   8
ATOM      8  C   UNL     1       3.720   5.723  17.176  0.00  0.00    +0.000 C 
BRANCH   8   9
ATOM      9  C   UNL     1       3.063   6.541  18.269  0.00  0.00    +0.000 A 
ATOM     10  C   UNL     1       2.851   6.000  19.537  0.00  0.00    +0.000 A 
ATOM     11  C   UNL     1       2.213   6.756  20.519  0.00  0.00    +0.000 A 
ATOM     12  C   UNL     1       1.778   8.061  20.259  0.00  0.00    +0.000 A 
ATOM     13  C   UNL     1       1.985   8.622  18.987  0.00  0.00    +0.000 A 
ATOM     14  C   UNL     1       2.645   7.856  18.012  0.00  0.00    +0.000 A 
BRANCH  12  15
ATOM     15  O   UNL     1       1.112   8.619  21.321  0.00  0.00    +0.000 OA
ATOM     16  C   UNL     1      -0.292   8.408  21.390  0.00  0.00    +0.000 C 
ENDBRANCH  12  15
BRANCH  13  17
ATOM     17  O   UNL     1       1.495   9.878  18.745  0.00  0.00    +0.000 OA
ATOM     18  C   UNL     1       0.237   9.991  18.091  0.00  0.00    +0.000 C 
ENDBRANCH  13  17
ENDBRANCH   8   9
ENDBRANCH   1   8
BRANCH   1  19
ATOM     19  O   UNL     1       5.888   6.582  17.845  0.00  0.00    +0.000 OA
BRANCH  19  20
ATOM     20  C   UNL     1       7.090   6.826  17.273  0.00  0.00    +0.000 C 
ATOM     21  O   UNL     1       7.545   6.289  16.279  0.00  0.00    +0.000 OA
BRANCH  20  22
ATOM     22  C   UNL     1       7.773   7.869  18.066  0.00  0.00    +0.000 C 
ATOM     23  C   UNL     1       7.955   9.100  17.561  0.00  0.00    +0.000 C 
BRANCH  23  24
ATOM     24  C   UNL     1       8.665  10.171  18.278  0.00  0.00    +0.000 A 
ATOM     25  C   UNL     1       8.771  11.464  17.745  0.00  0.00    +0.000 A 
ATOM     26  C   UNL     1       9.450  12.469  18.437  0.00  0.00    +0.000 A 
ATOM     27  C   UNL     1      10.014  12.194  19.680  0.00  0.00    +0.000 A 
ATOM     28 CL   UNL     1      10.873  13.426  20.519  0.00  0.00    +0.000 Cl
ATOM     29  C   UNL     1       9.886  10.926  20.244  0.00  0.00    +0.000 A 
ATOM     30  C   UNL     1       9.206   9.920  19.547  0.00  0.00    +0.000 A 
ENDBRANCH  23  24
ENDBRANCH  20  22
ENDBRANCH  19  20
ENDBRANCH   1  19
TORSDOF 12
ENDMDL
MODEL 2
REMARK VINA RESULT:      -7.3      0.906      1.241
REMARK  Name = 
REMARK  14 active torsions:
REMARK  status: ('A' for Active; 'I' for Inactive)
REMARK    1  A    between atoms: C_2  and  C_3
REMARK    2  A    between atoms: C_3  and  O_4
REMARK    3  A    between atoms: O_4  and  C_5
REMARK    4  A    between atoms: C_5  and  C_7
REMARK    5  A    between atoms: C_7  and  C_8
REMARK    6  A    between atoms: C_7  and  O_19
REMARK    7  A    between atoms: C_8  and  C_9
REMARK    8  A    between atoms: C_12  and  O_13
REMARK    9  A    between atoms: O_13  and  C_14
REMARK   10  A    between atoms: C_15  and  O_16
REMARK   11  A    between atoms: O_16  and  C_17
REMARK   12  A    between atoms: O_19  and  C_20
REMARK   13  A    between atoms: C_20  and  C_22
REMARK   14  A    between atoms: C_23  and  C_24
REMARK                            x       y       z     vdW  Elec       q    Type
REMARK                         _______ _______ _______ _____ _____    ______ ____
ROOT
ATOM      1  C   UNL     1       5.510   5.808  17.576  0.00  0.00    +0.000 C 
ENDROOT
BRANCH   1   2
ATOM      2  C   UNL     1       5.730   4.877  18.766  0.00  0.00    +0.000 C 
ATOM      3  O   UNL     1       6.403   5.150  19.755  0.00  0.00    +0.000 OA
BRANCH   2   4
ATOM      4  O   UNL     1       5.113   3.679  18.556  0.00  0.00    +0.000 OA
BRANCH   4   5
ATOM      5  C   UNL     1       4.478   3.091  19.699  0.00  0.00    +0.000 C 
BRANCH   5   7
ATOM      6  C   UNL     1       1.990   2.699  19.750  0.00  0.00    +0.000 C 
ATOM      7  C   UNL     1       3.210   2.414  19.276  0.00  0.00    +0.000 C 
ENDBRANCH   5   7
ENDBRANCH   4   5
ENDBRANCH   2   4
ENDBRANCH   1   2
BRANCH   1   8
ATOM      8  C   UNL     1       4.030   5.902  17.190  0.00  0.00    +0.000 C 
BRANCH   8   9
ATOM      9  C   UNL     1       3.192   6.779  18.096  0.00  0.00    +0.000 A 
ATOM     10  C   UNL     1       2.832   6.350  19.375  0.00  0.00    +0.000 A 
ATOM     11  C   UNL     1       2.031   7.157  20.181  0.00  0.00    +0.000 A 
ATOM     12  C   UNL     1       1.576   8.404  19.732  0.00  0.00    +0.000 A 
ATOM     13  C   UNL     1       1.929   8.851  18.448  0.00  0.00    +0.000 A 
ATOM     14  C   UNL     1       2.752   8.036  17.652  0.00  0.00    +0.000 A 
BRANCH  12  15
ATOM     15  O   UNL     1       0.745   9.019  20.634  0.00  0.00    +0.000 OA
ATOM     16  C   UNL     1       1.254   9.235  21.943  0.00  0.00    +0.000 C 
ENDBRANCH  12  15
BRANCH  13  17
ATOM     17  O   UNL     1       1.419  10.047  18.016  0.00  0.00    +0.000 OA
ATOM     18  C   UNL     1       2.168  11.228  18.281  0.00  0.00    +0.000 C 
ENDBRANCH  13  17
ENDBRANCH   8   9
ENDBRANCH   1   8
BRANCH   1  19
ATOM     19  O   UNL     1       6.007   7.126  17.883  0.00  0.00    +0.000 OA
BRANCH  19  20
ATOM     20  C   UNL     1       7.164   7.496  17.287  0.00  0.00    +0.000 C 
ATOM     21  O   UNL     1       7.788   6.863  16.453  0.00  0.00    +0.000 OA
BRANCH  20  22
ATOM     22  C   UNL     1       7.554   8.817  17.822  0.00  0.00    +0.000 C 
ATOM     23  C   UNL     1       8.806   9.034  18.257  0.00  0.00    +0.000 C 
BRANCH  23  24
ATOM     24  C   UNL     1       9.249  10.310  18.842  0.00  0.00    +0.000 A 
ATOM     25  C   UNL     1       9.262  10.513  20.229  0.00  0.00    +0.000 A 
ATOM     26  C   UNL     1       9.683  11.731  20.769  0.00  0.00    +0.000 A 
ATOM     27  C   UNL     1      10.112  12.751  19.924  0.00  0.00    +0.000 A 
ATOM     28 CL   UNL     1      10.604  14.259  20.589  0.00  0.00    +0.000 Cl
ATOM     29  C   UNL     1      10.141  12.554  18.545  0.00  0.00    +0.000 A 
ATOM     30  C   UNL     1       9.718  11.333  18.006  0.00  0.00    +0.000 A 
ENDBRANCH  23  24
ENDBRANCH  20  22
ENDBRANCH  19  20
ENDBRANCH   1  19
TORSDOF 12
ENDMDL
MODEL 3
REMARK VINA RESULT:      -7.1      3.892      7.728
REMARK  Name = 
REMARK  14 active torsions:
REMARK  status: ('A' for Active; 'I' for Inactive)
REMARK    1  A    between atoms: C_2  and  C_3
REMARK    2  A    between atoms: C_3  and  O_4
REMARK    3  A    between atoms: O_4  and  C_5
REMARK    4  A    between atoms: C_5  and  C_7
REMARK    5  A    between atoms: C_7  and  C_8
REMARK    6  A    between atoms: C_7  and  O_19
REMARK    7  A    between atoms: C_8  and  C_9
REMARK    8  A    between atoms: C_12  and  O_13
REMARK    9  A    between atoms: O_13  and  C_14
REMARK   10  A    between atoms: C_15  and  O_16
REMARK   11  A    between atoms: O_16  and  C_17
REMARK   12  A    between atoms: O_19  and  C_20
REMARK   13  A    between atoms: C_20  and  C_22
REMARK   14  A    between atoms: C_23  and  C_24
REMARK                            x       y       z     vdW  Elec       q    Type
REMARK                         _______ _______ _______ _____ _____    ______ ____
ROOT
ATOM      1  C   UNL     1       2.364   5.731  18.753  0.00  0.00    +0.000 C 
ENDROOT
BRANCH   1   2
ATOM      2  C   UNL     1       1.433   4.563  18.436  0.00  0.00    +0.000 C 
ATOM      3  O   UNL     1       1.282   4.070  17.323  0.00  0.00    +0.000 OA
BRANCH   2   4
ATOM      4  O   UNL     1       0.757   4.174  19.555  0.00  0.00    +0.000 OA
BRANCH   4   5
ATOM      5  C   UNL     1       0.916   2.801  19.939  0.00  0.00    +0.000 C 
BRANCH   5   7
ATOM      6  C   UNL     1       2.787   2.538  21.604  0.00  0.00    +0.000 C 
ATOM      7  C   UNL     1       1.493   2.729  21.319  0.00  0.00    +0.000 C 
ENDBRANCH   5   7
ENDBRANCH   4   5
ENDBRANCH   2   4
ENDBRANCH   1   2
BRANCH   1   8
ATOM      8  C   UNL     1       3.770   5.254  19.137  0.00  0.00    +0.000 C 
BRANCH   8   9
ATOM      9  C   UNL     1       4.751   5.181  17.986  0.00  0.00    +0.000 A 
ATOM     10  C   UNL     1       4.701   4.131  17.069  0.00  0.00    +0.000 A 
ATOM     11  C   UNL     1       5.636   4.063  16.036  0.00  0.00    +0.000 A 
ATOM     12  C   UNL     1       6.634   5.036  15.898  0.00  0.00    +0.000 A 
ATOM     13  C   UNL     1       6.698   6.100  16.813  0.00  0.00    +0.000 A 
ATOM     14  C   UNL     1       5.739   6.168  17.838  0.00  0.00    +0.000 A 
BRANCH  12  15
ATOM     15  O   UNL     1       7.500   4.762  14.870  0.00  0.00    +0.000 OA
ATOM     16  C   UNL     1       6.931   4.482  13.599  0.00  0.00    +0.000 C 
ENDBRANCH  12  15
BRANCH  13  17
ATOM     17  O   UNL     1       7.720   7.003  16.686  0.00  0.00    +0.000 OA
ATOM     18  C   UNL     1       7.781   8.080  17.613  0.00  0.00    +0.000 C 
ENDBRANCH  13  17
ENDBRANCH   8   9
ENDBRANCH   1   8
BRANCH   1  19
ATOM     19  O   UNL     1       2.454   6.612  17.616  0.00  0.00    +0.000 OA
BRANCH  19  20
ATOM     20  C   UNL     1       2.475   7.940  17.874  0.00  0.00    +0.000 C 
ATOM     21  O   UNL     1       3.459   8.623  18.095  0.00  0.00    +0.000 OA
BRANCH  20  22
ATOM     22  C   UNL     1       1.083   8.435  17.842  0.00  0.00    +0.000 C 
ATOM     23  C   UNL     1       0.806   9.712  18.157  0.00  0.00    +0.000 C 
BRANCH  23  24
ATOM     24  C   UNL     1      -0.560  10.258  18.188  0.00  0.00    +0.000 A 
ATOM     25  C   UNL     1      -0.912  11.302  19.056  0.00  0.00    +0.000 A 
ATOM     26  C   UNL     1      -2.214  11.807  19.076  0.00  0.00    +0.000 A 
ATOM     27  C   UNL     1      -3.172  11.284  18.213  0.00  0.00    +0.000 A 
ATOM     28 CL   UNL     1      -4.782  11.890  18.258  0.00  0.00    +0.000 Cl
ATOM     29  C   UNL     1      -2.833  10.272  17.317  0.00  0.00    +0.000 A 
ATOM     30  C   UNL     1      -1.527   9.766  17.300  0.00  0.00    +0.000 A 
ENDBRANCH  23  24
ENDBRANCH  20  22
ENDBRANCH  19  20
ENDBRANCH   1  19
TORSDOF 12
ENDMDL
MODEL 4
REMARK VINA RESULT:      -7.1      4.113      6.421
REMARK  Name = 
REMARK  14 active torsions:
REMARK  status: ('A' for Active; 'I' for Inactive)
REMARK    1  A    between atoms: C_2  and  C_3
REMARK    2  A    between atoms: C_3  and  O_4
REMARK    3  A    between atoms: O_4  and  C_5
REMARK    4  A    between atoms: C_5  and  C_7
REMARK    5  A    between atoms: C_7  and  C_8
REMARK    6  A    between atoms: C_7  and  O_19
REMARK    7  A    between atoms: C_8  and  C_9
REMARK    8  A    between atoms: C_12  and  O_13
REMARK    9  A    between atoms: O_13  and  C_14
REMARK   10  A    between atoms: C_15  and  O_16
REMARK   11  A    between atoms: O_16  and  C_17
REMARK   12  A    between atoms: O_19  and  C_20
REMARK   13  A    between atoms: C_20  and  C_22
REMARK   14  A    between atoms: C_23  and  C_24
REMARK                            x       y       z     vdW  Elec       q    Type
REMARK                         _______ _______ _______ _____ _____    ______ ____
ROOT
ATOM      1  C   UNL     1       5.200   4.724  15.099  0.00  0.00    +0.000 C 
ENDROOT
BRANCH   1   2
ATOM      2  C   UNL     1       5.906   4.239  13.835  0.00  0.00    +0.000 C 
ATOM      3  O   UNL     1       7.077   4.471  13.554  0.00  0.00    +0.000 OA
BRANCH   2   4
ATOM      4  O   UNL     1       5.039   3.552  13.037  0.00  0.00    +0.000 OA
BRANCH   4   5
ATOM      5  C   UNL     1       5.478   3.312  11.693  0.00  0.00    +0.000 C 
BRANCH   5   7
ATOM      6  C   UNL     1       6.852   1.308  11.026  0.00  0.00    +0.000 C 
ATOM      7  C   UNL     1       5.720   1.847  11.498  0.00  0.00    +0.000 C 
ENDBRANCH   5   7
ENDBRANCH   4   5
ENDBRANCH   2   4
ENDBRANCH   1   2
BRANCH   1   8
ATOM      8  C   UNL     1       5.673   3.965  16.344  0.00  0.00    +0.000 C 
BRANCH   8   9
ATOM      9  C   UNL     1       4.566   3.539  17.286  0.00  0.00    +0.000 A 
ATOM     10  C   UNL     1       3.229   3.593  16.890  0.00  0.00    +0.000 A 
ATOM     11  C   UNL     1       2.223   3.230  17.783  0.00  0.00    +0.000 A 
ATOM     12  C   UNL     1       2.527   2.805  19.083  0.00  0.00    +0.000 A 
ATOM     13  C   UNL     1       3.868   2.744  19.498  0.00  0.00    +0.000 A 
ATOM     14  C   UNL     1       4.874   3.095  18.582  0.00  0.00    +0.000 A 
BRANCH  12  15
ATOM     15  O   UNL     1       1.406   2.560  19.835  0.00  0.00    +0.000 OA
ATOM     16  C   UNL     1       0.840   3.659  20.534  0.00  0.00    +0.000 C 
ENDBRANCH  12  15
BRANCH  13  17
ATOM     17  O   UNL     1       4.129   2.381  20.792  0.00  0.00    +0.000 OA
ATOM     18  C   UNL     1       4.996   1.275  21.015  0.00  0.00    +0.000 C 
ENDBRANCH  13  17
ENDBRANCH   8   9
ENDBRANCH   1   8
BRANCH   1  19
ATOM     19  O   UNL     1       5.433   6.134  15.284  0.00  0.00    +0.000 OA
BRANCH  19  20
ATOM     20  C   UNL     1       6.177   6.494  16.355  0.00  0.00    +0.000 C 
ATOM     21  O   UNL     1       7.388   6.417  16.459  0.00  0.00    +0.000 OA
BRANCH  20  22
ATOM     22  C   UNL     1       5.263   7.006  17.397  0.00  0.00    +0.000 C 
ATOM     23  C   UNL     1       3.944   7.097  17.163  0.00  0.00    +0.000 C 
BRANCH  23  24
ATOM     24  C   UNL     1       2.985   7.639  18.140  0.00  0.00    +0.000 A 
ATOM     25  C   UNL     1       2.285   8.829  17.896  0.00  0.00    +0.000 A 
ATOM     26  C   UNL     1       1.380   9.332  18.834  0.00  0.00    +0.000 A 
ATOM     27  C   UNL     1       1.154   8.637  20.018  0.00  0.00    +0.000 A 
ATOM     28 CL   UNL     1       0.060   9.271  21.184  0.00  0.00    +0.000 Cl
ATOM     29  C   UNL     1       1.812   7.433  20.262  0.00  0.00    +0.000 A 
ATOM     30  C   UNL     1       2.719   6.932  19.321  0.00  0.00    +0.000 A 
ENDBRANCH  23  24
ENDBRANCH  20  22
ENDBRANCH  19  20
ENDBRANCH   1  19
TORSDOF 12
ENDMDL
MODEL 5
REMARK VINA RESULT:      -7.1      1.947      3.101
REMARK  Name = 
REMARK  14 active torsions:
REMARK  status: ('A' for Active; 'I' for Inactive)
REMARK    1  A    between atoms: C_2  and  C_3
REMARK    2  A    between atoms: C_3  and  O_4
REMARK    3  A    between atoms: O_4  and  C_5
REMARK    4  A    between atoms: C_5  and  C_7
REMARK    5  A    between atoms: C_7  and  C_8
REMARK    6  A    between atoms: C_7  and  O_19
REMARK    7  A    between atoms: C_8  and  C_9
REMARK    8  A    between atoms: C_12  and  O_13
REMARK    9  A    between atoms: O_13  and  C_14
REMARK   10  A    between atoms: C_15  and  O_16
REMARK   11  A    between atoms: O_16  and  C_17
REMARK   12  A    between atoms: O_19  and  C_20
REMARK   13  A    between atoms: C_20  and  C_22
REMARK   14  A    between atoms: C_23  and  C_24
REMARK                            x       y       z     vdW  Elec       q    Type
REMARK                         _______ _______ _______ _____ _____    ______ ____
ROOT
ATOM      1  C   UNL     1       5.757   6.099  16.807  0.00  0.00    +0.000 C 
ENDROOT
BRANCH   1   2
ATOM      2  C   UNL     1       5.993   4.661  17.262  0.00  0.00    +0.000 C 
ATOM      3  O   UNL     1       6.266   4.325  18.409  0.00  0.00    +0.000 OA
BRANCH   2   4
ATOM      4  O   UNL     1       5.905   3.805  16.204  0.00  0.00    +0.000 OA
BRANCH   4   5
ATOM      5  C   UNL     1       6.655   4.169  15.037  0.00  0.00    +0.000 C 
BRANCH   5   7
ATOM      6  C   UNL     1       6.376   3.714  12.575  0.00  0.00    +0.000 C 
ATOM      7  C   UNL     1       5.867   3.833  13.808  0.00  0.00    +0.000 C 
ENDBRANCH   5   7
ENDBRANCH   4   5
ENDBRANCH   2   4
ENDBRANCH   1   2
BRANCH   1   8
ATOM      8  C   UNL     1       4.263   6.431  16.713  0.00  0.00    +0.000 C 
BRANCH   8   9
ATOM      9  C   UNL     1       3.409   5.826  17.808  0.00  0.00    +0.000 A 
ATOM     10  C   UNL     1       2.968   4.504  17.723  0.00  0.00    +0.000 A 
ATOM     11  C   UNL     1       2.154   3.976  18.723  0.00  0.00    +0.000 A 
ATOM     12  C   UNL     1       1.764   4.750  19.824  0.00  0.00    +0.000 A 
ATOM     13  C   UNL     1       2.200   6.082  19.925  0.00  0.00    +0.000 A 
ATOM     14  C   UNL     1       3.035   6.597  18.920  0.00  0.00    +0.000 A 
BRANCH  12  15
ATOM     15  O   UNL     1       0.909   4.083  20.663  0.00  0.00    +0.000 OA
ATOM     16  C   UNL     1       1.345   2.831  21.174  0.00  0.00    +0.000 C 
ENDBRANCH  12  15
BRANCH  13  17
ATOM     17  O   UNL     1       1.754   6.831  20.982  0.00  0.00    +0.000 OA
ATOM     18  C   UNL     1       1.409   8.189  20.741  0.00  0.00    +0.000 C 
ENDBRANCH  13  17
ENDBRANCH   8   9
ENDBRANCH   1   8
BRANCH   1  19
ATOM     19  O   UNL     1       6.392   7.016  17.720  0.00  0.00    +0.000 OA
BRANCH  19  20
ATOM     20  C   UNL     1       7.568   7.554  17.324  0.00  0.00    +0.000 C 
ATOM     21  O   UNL     1       8.267   7.177  16.401  0.00  0.00    +0.000 OA
BRANCH  20  22
ATOM     22  C   UNL     1       7.872   8.696  18.212  0.00  0.00    +0.000 C 
ATOM     23  C   UNL     1       8.729   9.654  17.822  0.00  0.00    +0.000 C 
BRANCH  23  24
ATOM     24  C   UNL     1       9.109  10.793  18.673  0.00  0.00    +0.000 A 
ATOM     25  C   UNL     1       9.511  10.610  20.004  0.00  0.00    +0.000 A 
ATOM     26  C   UNL     1       9.867  11.702  20.800  0.00  0.00    +0.000 A 
ATOM     27  C   UNL     1       9.841  12.986  20.264  0.00  0.00    +0.000 A 
ATOM     28 CL   UNL     1      10.255  14.332  21.253  0.00  0.00    +0.000 Cl
ATOM     29  C   UNL     1       9.481  13.184  18.932  0.00  0.00    +0.000 A 
ATOM     30  C   UNL     1       9.124  12.089  18.137  0.00  0.00    +0.000 A 
ENDBRANCH  23  24
ENDBRANCH  20  22
ENDBRANCH  19  20
ENDBRANCH   1  19
TORSDOF 12
ENDMDL
MODEL 6
REMARK VINA RESULT:      -7.1      2.191      3.919
REMARK  Name = 
REMARK  14 active torsions:
REMARK  status: ('A' for Active; 'I' for Inactive)
REMARK    1  A    between atoms: C_2  and  C_3
REMARK    2  A    between atoms: C_3  and  O_4
REMARK    3  A    between atoms: O_4  and  C_5
REMARK    4  A    between atoms: C_5  and  C_7
REMARK    5  A    between atoms: C_7  and  C_8
REMARK    6  A    between atoms: C_7  and  O_19
REMARK    7  A    between atoms: C_8  and  C_9
REMARK    8  A    between atoms: C_12  and  O_13
REMARK    9  A    between atoms: O_13  and  C_14
REMARK   10  A    between atoms: C_15  and  O_16
REMARK   11  A    between atoms: O_16  and  C_17
REMARK   12  A    between atoms: O_19  and  C_20
REMARK   13  A    between atoms: C_20  and  C_22
REMARK   14  A    between atoms: C_23  and  C_24
REMARK                            x       y       z     vdW  Elec       q    Type
REMARK                         _______ _______ _______ _____ _____    ______ ____
ROOT
ATOM      1  C   UNL     1       6.435   6.475  16.558  0.00  0.00    +0.000 C 
ENDROOT
BRANCH   1   2
ATOM      2  C   UNL     1       7.183   5.186  16.230  0.00  0.00    +0.000 C 
ATOM      3  O   UNL     1       7.264   4.214  16.973  0.00  0.00    +0.000 OA
BRANCH   2   4
ATOM      4  O   UNL     1       7.791   5.283  15.012  0.00  0.00    +0.000 OA
BRANCH   4   5
ATOM      5  C   UNL     1       6.920   5.273  13.873  0.00  0.00    +0.000 C 
BRANCH   5   7
ATOM      6  C   UNL     1       5.951   3.369  12.539  0.00  0.00    +0.000 C 
ATOM      7  C   UNL     1       6.326   3.909  13.706  0.00  0.00    +0.000 C 
ENDBRANCH   5   7
ENDBRANCH   4   5
ENDBRANCH   2   4
ENDBRANCH   1   2
BRANCH   1   8
ATOM      8  C   UNL     1       4.945   6.377  16.209  0.00  0.00    +0.000 C 
BRANCH   8   9
ATOM      9  C   UNL     1       4.063   5.870  17.332  0.00  0.00    +0.000 A 
ATOM     10  C   UNL     1       3.196   6.732  18.005  0.00  0.00    +0.000 A 
ATOM     11  C   UNL     1       2.418   6.254  19.058  0.00  0.00    +0.000 A 
ATOM     12  C   UNL     1       2.487   4.914  19.459  0.00  0.00    +0.000 A 
ATOM     13  C   UNL     1       3.354   4.033  18.792  0.00  0.00    +0.000 A 
ATOM     14  C   UNL     1       4.120   4.522  17.720  0.00  0.00    +0.000 A 
BRANCH  12  15
ATOM     15  O   UNL     1       1.704   4.649  20.554  0.00  0.00    +0.000 OA
ATOM     16  C   UNL     1       0.712   3.641  20.414  0.00  0.00    +0.000 C 
ENDBRANCH  12  15
BRANCH  13  17
ATOM     17  O   UNL     1       3.442   2.743  19.245  0.00  0.00    +0.000 OA
ATOM     18  C   UNL     1       3.320   1.691  18.296  0.00  0.00    +0.000 C 
ENDBRANCH  13  17
ENDBRANCH   8   9
ENDBRANCH   1   8
BRANCH   1  19
ATOM     19  O   UNL     1       6.577   6.785  17.958  0.00  0.00    +0.000 OA
BRANCH  19  20
ATOM     20  C   UNL     1       7.821   7.091  18.393  0.00  0.00    +0.000 C 
ATOM     21  O   UNL     1       8.583   6.355  18.994  0.00  0.00    +0.000 OA
BRANCH  20  22
ATOM     22  C   UNL     1       8.110   8.489  18.011  0.00  0.00    +0.000 C 
ATOM     23  C   UNL     1       8.906   9.254  18.777  0.00  0.00    +0.000 C 
BRANCH  23  24
ATOM     24  C   UNL     1       9.198  10.666  18.479  0.00  0.00    +0.000 A 
ATOM     25  C   UNL     1       8.290  11.469  17.775  0.00  0.00    +0.000 A 
ATOM     26  C   UNL     1       8.583  12.807  17.499  0.00  0.00    +0.000 A 
ATOM     27  C   UNL     1       9.782  13.358  17.941  0.00  0.00    +0.000 A 
ATOM     28 CL   UNL     1      10.154  14.997  17.577  0.00  0.00    +0.000 Cl
ATOM     29  C   UNL     1      10.681  12.586  18.675  0.00  0.00    +0.000 A 
ATOM     30  C   UNL     1      10.385  11.245  18.950  0.00  0.00    +0.000 A 
ENDBRANCH  23  24
ENDBRANCH  20  22
ENDBRANCH  19  20
ENDBRANCH   1  19
TORSDOF 12
ENDMDL
MODEL 7
REMARK VINA RESULT:      -6.9      1.035      2.066
REMARK  Name = 
REMARK  14 active torsions:
REMARK  status: ('A' for Active; 'I' for Inactive)
REMARK    1  A    between atoms: C_2  and  C_3
REMARK    2  A    between atoms: C_3  and  O_4
REMARK    3  A    between atoms: O_4  and  C_5
REMARK    4  A    between atoms: C_5  and  C_7
REMARK    5  A    between atoms: C_7  and  C_8
REMARK    6  A    between atoms: C_7  and  O_19
REMARK    7  A    between atoms: C_8  and  C_9
REMARK    8  A    between atoms: C_12  and  O_13
REMARK    9  A    between atoms: O_13  and  C_14
REMARK   10  A    between atoms: C_15  and  O_16
REMARK   11  A    between atoms: O_16  and  C_17
REMARK   12  A    between atoms: O_19  and  C_20
REMARK   13  A    between atoms: C_20  and  C_22
REMARK   14  A    between atoms: C_23  and  C_24
REMARK                            x       y       z     vdW  Elec       q    Type
REMARK                         _______ _______ _______ _____ _____    ______ ____
ROOT
ATOM      1  C   UNL     1       4.570   5.539  18.181  0.00  0.00    +0.000 C 
ENDROOT
BRANCH   1   2
ATOM      2  C   UNL     1       4.640   4.023  18.022  0.00  0.00    +0.000 C 
ATOM      3  O   UNL     1       5.475   3.299  18.555  0.00  0.00    +0.000 OA
BRANCH   2   4
ATOM      4  O   UNL     1       3.672   3.587  17.165  0.00  0.00    +0.000 OA
BRANCH   4   5
ATOM      5  C   UNL     1       2.791   2.577  17.674  0.00  0.00    +0.000 C 
BRANCH   5   7
ATOM      6  C   UNL     1       0.808   2.799  19.212  0.00  0.00    +0.000 C 
ATOM      7  C   UNL     1       1.524   3.213  18.159  0.00  0.00    +0.000 C 
ENDBRANCH   5   7
ENDBRANCH   4   5
ENDBRANCH   2   4
ENDBRANCH   1   2
BRANCH   1   8
ATOM      8  C   UNL     1       3.729   5.949  19.396  0.00  0.00    +0.000 C 
BRANCH   8   9
ATOM      9  C   UNL     1       2.804   7.124  19.160  0.00  0.00    +0.000 A 
ATOM     10  C   UNL     1       2.775   7.776  17.926  0.00  0.00    +0.000 A 
ATOM     11  C   UNL     1       1.941   8.877  17.739  0.00  0.00    +0.000 A 
ATOM     12  C   UNL     1       1.122   9.348  18.774  0.00  0.00    +0.000 A 
ATOM     13  C   UNL     1       1.138   8.703  20.021  0.00  0.00    +0.000 A 
ATOM     14  C   UNL     1       1.969   7.583  20.191  0.00  0.00    +0.000 A 
BRANCH  12  15
ATOM     15  O   UNL     1       0.429  10.480  18.425  0.00  0.00    +0.000 OA
ATOM     16  C   UNL     1      -0.930  10.317  18.045  0.00  0.00    +0.000 C 
ENDBRANCH  12  15
BRANCH  13  17
ATOM     17  O   UNL     1       0.371   9.224  21.030  0.00  0.00    +0.000 OA
ATOM     18  C   UNL     1       0.810  10.424  21.653  0.00  0.00    +0.000 C 
ENDBRANCH  13  17
ENDBRANCH   8   9
ENDBRANCH   1   8
BRANCH   1  19
ATOM     19  O   UNL     1       5.899   6.082  18.317  0.00  0.00    +0.000 OA
BRANCH  19  20
ATOM     20  C   UNL     1       6.413   6.715  17.237  0.00  0.00    +0.000 C 
ATOM     21  O   UNL     1       6.532   6.258  16.114  0.00  0.00    +0.000 OA
BRANCH  20  22
ATOM     22  C   UNL     1       6.813   8.076  17.650  0.00  0.00    +0.000 C 
ATOM     23  C   UNL     1       8.107   8.377  17.844  0.00  0.00    +0.000 C 
BRANCH  23  24
ATOM     24  C   UNL     1       8.570   9.699  18.298  0.00  0.00    +0.000 A 
ATOM     25  C   UNL     1       9.252   9.858  19.513  0.00  0.00    +0.000 A 
ATOM     26  C   UNL     1       9.682  11.120  19.931  0.00  0.00    +0.000 A 
ATOM     27  C   UNL     1       9.450  12.232  19.126  0.00  0.00    +0.000 A 
ATOM     28 CL   UNL     1       9.958  13.788  19.655  0.00  0.00    +0.000 Cl
ATOM     29  C   UNL     1       8.809  12.088  17.898  0.00  0.00    +0.000 A 
ATOM     30  C   UNL     1       8.376  10.823  17.482  0.00  0.00    +0.000 A 
ENDBRANCH  23  24
ENDBRANCH  20  22
ENDBRANCH  19  20
ENDBRANCH   1  19
TORSDOF 12
ENDMDL
MODEL 8
REMARK VINA RESULT:      -6.9      3.510      7.091
REMARK  Name = 
REMARK  14 active torsions:
REMARK  status: ('A' for Active; 'I' for Inactive)
REMARK    1  A    between atoms: C_2  and  C_3
REMARK    2  A    between atoms: C_3  and  O_4
REMARK    3  A    between atoms: O_4  and  C_5
REMARK    4  A    between atoms: C_5  and  C_7
REMARK    5  A    between atoms: C_7  and  C_8
REMARK    6  A    between atoms: C_7  and  O_19
REMARK    7  A    between atoms: C_8  and  C_9
REMARK    8  A    between atoms: C_12  and  O_13
REMARK    9  A    between atoms: O_13  and  C_14
REMARK   10  A    between atoms: C_15  and  O_16
REMARK   11  A    between atoms: O_16  and  C_17
REMARK   12  A    between atoms: O_19  and  C_20
REMARK   13  A    between atoms: C_20  and  C_22
REMARK   14  A    between atoms: C_23  and  C_24
REMARK                            x       y       z     vdW  Elec       q    Type
REMARK                         _______ _______ _______ _____ _____    ______ ____
ROOT
ATOM      1  C   UNL     1       2.338   5.615  18.860  0.00  0.00    +0.000 C 
ENDROOT
BRANCH   1   2
ATOM      2  C   UNL     1       1.391   4.454  18.569  0.00  0.00    +0.000 C 
ATOM      3  O   UNL     1       1.143   4.015  17.451  0.00  0.00    +0.000 OA
BRANCH   2   4
ATOM      4  O   UNL     1       0.821   4.002  19.723  0.00  0.00    +0.000 OA
BRANCH   4   5
ATOM      5  C   UNL     1       1.001   2.609  20.009  0.00  0.00    +0.000 C 
BRANCH   5   7
ATOM      6  C   UNL     1       2.287   3.368  22.037  0.00  0.00    +0.000 C 
ATOM      7  C   UNL     1       2.006   2.447  21.107  0.00  0.00    +0.000 C 
ENDBRANCH   5   7
ENDBRANCH   4   5
ENDBRANCH   2   4
ENDBRANCH   1   2
BRANCH   1   8
ATOM      8  C   UNL     1       3.737   5.127  19.255  0.00  0.00    +0.000 C 
BRANCH   8   9
ATOM      9  C   UNL     1       4.739   5.087  18.120  0.00  0.00    +0.000 A 
ATOM     10  C   UNL     1       4.649   4.118  17.120  0.00  0.00    +0.000 A 
ATOM     11  C   UNL     1       5.601   4.076  16.103  0.00  0.00    +0.000 A 
ATOM     12  C   UNL     1       6.657   4.997  16.061  0.00  0.00    +0.000 A 
ATOM     13  C   UNL     1       6.761   5.980  17.059  0.00  0.00    +0.000 A 
ATOM     14  C   UNL     1       5.785   6.022  18.069  0.00  0.00    +0.000 A 
BRANCH  12  15
ATOM     15  O   UNL     1       7.529   4.754  15.030  0.00  0.00    +0.000 OA
ATOM     16  C   UNL     1       7.003   4.798  13.711  0.00  0.00    +0.000 C 
ENDBRANCH  12  15
BRANCH  13  17
ATOM     17  O   UNL     1       7.837   6.827  17.024  0.00  0.00    +0.000 OA
ATOM     18  C   UNL     1       7.659   8.154  17.505  0.00  0.00    +0.000 C 
ENDBRANCH  13  17
ENDBRANCH   8   9
ENDBRANCH   1   8
BRANCH   1  19
ATOM     19  O   UNL     1       2.441   6.470  17.704  0.00  0.00    +0.000 OA
BRANCH  19  20
ATOM     20  C   UNL     1       2.739   7.769  17.930  0.00  0.00    +0.000 C 
ATOM     21  O   UNL     1       3.557   8.444  17.329  0.00  0.00    +0.000 OA
BRANCH  20  22
ATOM     22  C   UNL     1       1.896   8.247  19.046  0.00  0.00    +0.000 C 
ATOM     23  C   UNL     1       1.251   9.422  18.960  0.00  0.00    +0.000 C 
BRANCH  23  24
ATOM     24  C   UNL     1       0.433   9.976  20.050  0.00  0.00    +0.000 A 
ATOM     25  C   UNL     1      -0.332  11.138  19.873  0.00  0.00    +0.000 A 
ATOM     26  C   UNL     1      -1.102  11.653  20.918  0.00  0.00    +0.000 A 
ATOM     27  C   UNL     1      -1.129  10.998  22.146  0.00  0.00    +0.000 A 
ATOM     28 CL   UNL     1      -2.057  11.649  23.440  0.00  0.00    +0.000 Cl
ATOM     29  C   UNL     1      -0.406   9.821  22.329  0.00  0.00    +0.000 A 
ATOM     30  C   UNL     1       0.367   9.307  21.281  0.00  0.00    +0.000 A 
ENDBRANCH  23  24
ENDBRANCH  20  22
ENDBRANCH  19  20
ENDBRANCH   1  19
TORSDOF 12
ENDMDL
MODEL 9
REMARK VINA RESULT:      -6.9      3.625      6.508
REMARK  Name = 
REMARK  14 active torsions:
REMARK  status: ('A' for Active; 'I' for Inactive)
REMARK    1  A    between atoms: C_2  and  C_3
REMARK    2  A    between atoms: C_3  and  O_4
REMARK    3  A    between atoms: O_4  and  C_5
REMARK    4  A    between atoms: C_5  and  C_7
REMARK    5  A    between atoms: C_7  and  C_8
REMARK    6  A    between atoms: C_7  and  O_19
REMARK    7  A    between atoms: C_8  and  C_9
REMARK    8  A    between atoms: C_12  and  O_13
REMARK    9  A    between atoms: O_13  and  C_14
REMARK   10  A    between atoms: C_15  and  O_16
REMARK   11  A    between atoms: O_16  and  C_17
REMARK   12  A    between atoms: O_19  and  C_20
REMARK   13  A    between atoms: C_20  and  C_22
REMARK   14  A    between atoms: C_23  and  C_24
REMARK                            x       y       z     vdW  Elec       q    Type
REMARK                         _______ _______ _______ _____ _____    ______ ____
ROOT
ATOM      1  C   UNL     1       5.381   6.194  16.449  0.00  0.00    +0.000 C 
ENDROOT
BRANCH   1   2
ATOM      2  C   UNL     1       6.814   6.706  16.564  0.00  0.00    +0.000 C 
ATOM      3  O   UNL     1       7.731   6.396  15.811  0.00  0.00    +0.000 OA
BRANCH   2   4
ATOM      4  O   UNL     1       6.945   7.520  17.651  0.00  0.00    +0.000 OA
BRANCH   4   5
ATOM      5  C   UNL     1       8.027   7.212  18.540  0.00  0.00    +0.000 C 
BRANCH   5   7
ATOM      6  C   UNL     1       6.703   5.352  19.604  0.00  0.00    +0.000 C 
ATOM      7  C   UNL     1       7.844   5.833  19.095  0.00  0.00    +0.000 C 
ENDBRANCH   5   7
ENDBRANCH   4   5
ENDBRANCH   2   4
ENDBRANCH   1   2
BRANCH   1   8
ATOM      8  C   UNL     1       4.372   7.342  16.326  0.00  0.00    +0.000 C 
BRANCH   8   9
ATOM      9  C   UNL     1       3.488   7.544  17.540  0.00  0.00    +0.000 A 
ATOM     10  C   UNL     1       3.405   6.569  18.534  0.00  0.00    +0.000 A 
ATOM     11  C   UNL     1       2.560   6.758  19.626  0.00  0.00    +0.000 A 
ATOM     12  C   UNL     1       1.785   7.918  19.749  0.00  0.00    +0.000 A 
ATOM     13  C   UNL     1       1.858   8.911  18.758  0.00  0.00    +0.000 A 
ATOM     14  C   UNL     1       2.727   8.716  17.671  0.00  0.00    +0.000 A 
BRANCH  12  15
ATOM     15  O   UNL     1       0.966   7.892  20.850  0.00  0.00    +0.000 OA
ATOM     16  C   UNL     1       1.300   8.755  21.928  0.00  0.00    +0.000 C 
ENDBRANCH  12  15
BRANCH  13  17
ATOM     17  O   UNL     1       1.045  10.006  18.877  0.00  0.00    +0.000 OA
ATOM     18  C   UNL     1      -0.179  10.013  18.152  0.00  0.00    +0.000 C 
ENDBRANCH  13  17
ENDBRANCH   8   9
ENDBRANCH   1   8
BRANCH   1  19
ATOM     19  O   UNL     1       5.256   5.327  15.305  0.00  0.00    +0.000 OA
BRANCH  19  20
ATOM     20  C   UNL     1       5.346   3.997  15.534  0.00  0.00    +0.000 C 
ATOM     21  O   UNL     1       5.791   3.155  14.774  0.00  0.00    +0.000 OA
BRANCH  20  22
ATOM     22  C   UNL     1       4.806   3.727  16.883  0.00  0.00    +0.000 C 
ATOM     23  C   UNL     1       3.536   3.318  17.040  0.00  0.00    +0.000 C 
BRANCH  23  24
ATOM     24  C   UNL     1       2.923   3.074  18.356  0.00  0.00    +0.000 A 
ATOM     25  C   UNL     1       3.697   2.719  19.470  0.00  0.00    +0.000 A 
ATOM     26  C   UNL     1       3.099   2.489  20.712  0.00  0.00    +0.000 A 
ATOM     27  C   UNL     1       1.722   2.630  20.853  0.00  0.00    +0.000 A 
ATOM     28 CL   UNL     1       0.984   2.320  22.376  0.00  0.00    +0.000 Cl
ATOM     29  C   UNL     1       0.940   3.019  19.767  0.00  0.00    +0.000 A 
ATOM     30  C   UNL     1       1.541   3.248  18.523  0.00  0.00    +0.000 A 
ENDBRANCH  23  24
ENDBRANCH  20  22
ENDBRANCH  19  20
ENDBRANCH   1  19
TORSDOF 12
ENDMDL
