MODEL 1
REMARK VINA RESULT:      -8.0      0.000      0.000
REMARK  Name = 
REMARK  2 active torsions:
REMARK  status: ('A' for Active; 'I' for Inactive)
REMARK    1  A    between atoms: N_1  and  C_2
REMARK    2  A    between atoms: C_10  and  C_11
REMARK                            x       y       z     vdW  Elec       q    Type
REMARK                         _______ _______ _______ _____ _____    ______ ____
ROOT
ATOM      1  C   UNL     1       7.032   5.271  18.724  0.00  0.00    +0.000 A 
ATOM      2  N   UNL     1       7.858   5.490  17.675  0.00  0.00    +0.000 NA
ATOM      3  C   UNL     1       7.178   5.119  16.613  0.00  0.00    +0.000 A 
ATOM      4  N   UNL     1       7.586   5.131  15.306  0.00  0.00    +0.000 NA
ATOM      5  C   UNL     1       6.706   4.774  14.429  0.00  0.00    +0.000 A 
ATOM      6  C   UNL     1       5.303   4.362  14.702  0.00  0.00    +0.000 A 
ATOM      7  C   UNL     1       4.952   4.360  15.995  0.00  0.00    +0.000 A 
ATOM      8  N   UNL     1       5.890   4.706  16.972  0.00  0.00    +0.000 N 
ATOM      9  C   UNL     1       5.804   4.744  18.366  0.00  0.00    +0.000 A 
ENDROOT
BRANCH   9  10
ATOM     10  C   UNL     1       4.642   4.355  19.184  0.00  0.00    +0.000 A 
ATOM     11  C   UNL     1       4.455   3.009  19.555  0.00  0.00    +0.000 A 
ATOM     12  C   UNL     1       3.363   2.616  20.336  0.00  0.00    +0.000 A 
ATOM     13  C   UNL     1       2.464   3.573  20.785  0.00  0.00    +0.000 A 
ATOM     14  F   UNL     1       1.440   3.202  21.565  0.00  0.00    +0.000 F 
ATOM     15  C   UNL     1       2.627   4.901  20.426  0.00  0.00    +0.000 A 
ATOM     16  F   UNL     1       1.772   5.832  20.869  0.00  0.00    +0.000 F 
ATOM     17  C   UNL     1       3.687   5.291  19.606  0.00  0.00    +0.000 A 
ENDBRANCH   9  10
BRANCH   1  18
ATOM     18  N   UNL     1       7.488   5.556  19.948  0.00  0.00    +0.000 N 
ATOM     19  H   UNL     1       7.233   6.470  20.310  0.00  0.00    +0.000 HD
ATOM     20  H   UNL     1       8.407   5.253  20.240  0.00  0.00    +0.000 HD
ENDBRANCH   1  18
TORSDOF 2
ENDMDL
MODEL 2
REMARK VINA RESULT:      -7.8      0.837      1.613
REMARK  Name = 
REMARK  2 active torsions:
REMARK  status: ('A' for Active; 'I' for Inactive)
REMARK    1  A    between atoms: N_1  and  C_2
REMARK    2  A    between atoms: C_10  and  C_11
REMARK                            x       y       z     vdW  Elec       q    Type
REMARK                         _______ _______ _______ _____ _____    ______ ____
ROOT
ATOM      1  C   UNL     1       6.821   5.176  18.569  0.00  0.00    +0.000 A 
ATOM      2  N   UNL     1       7.743   5.341  17.593  0.00  0.00    +0.000 NA
ATOM      3  C   UNL     1       7.125   5.036  16.474  0.00  0.00    +0.000 A 
ATOM      4  N   UNL     1       7.637   5.030  15.204  0.00  0.00    +0.000 NA
ATOM      5  C   UNL     1       6.805   4.751  14.254  0.00  0.00    +0.000 A 
ATOM      6  C   UNL     1       5.358   4.446  14.408  0.00  0.00    +0.000 A 
ATOM      7  C   UNL     1       4.905   4.457  15.669  0.00  0.00    +0.000 A 
ATOM      8  N   UNL     1       5.785   4.719  16.722  0.00  0.00    +0.000 N 
ATOM      9  C   UNL     1       5.590   4.749  18.105  0.00  0.00    +0.000 A 
ENDROOT
BRANCH   9  10
ATOM     10  C   UNL     1       4.340   4.441  18.822  0.00  0.00    +0.000 A 
ATOM     11  C   UNL     1       3.634   5.463  19.487  0.00  0.00    +0.000 A 
ATOM     12  C   UNL     1       2.442   5.197  20.169  0.00  0.00    +0.000 A 
ATOM     13  C   UNL     1       1.924   3.910  20.162  0.00  0.00    +0.000 A 
ATOM     14  F   UNL     1       0.762   3.663  20.782  0.00  0.00    +0.000 F 
ATOM     15  C   UNL     1       2.605   2.890  19.519  0.00  0.00    +0.000 A 
ATOM     16  F   UNL     1       2.102   1.649  19.495  0.00  0.00    +0.000 F 
ATOM     17  C   UNL     1       3.821   3.140  18.879  0.00  0.00    +0.000 A 
ENDBRANCH   9  10
BRANCH   1  18
ATOM     18  N   UNL     1       7.198   5.411  19.830  0.00  0.00    +0.000 N 
ATOM     19  H   UNL     1       6.905   6.303  20.217  0.00  0.00    +0.000 HD
ATOM     20  H   UNL     1       8.103   5.109  20.164  0.00  0.00    +0.000 HD
ENDBRANCH   1  18
TORSDOF 2
ENDMDL
MODEL 3
REMARK VINA RESULT:      -7.7      1.148      1.158
REMARK  Name = 
REMARK  2 active torsions:
REMARK  status: ('A' for Active; 'I' for Inactive)
REMARK    1  A    between atoms: N_1  and  C_2
REMARK    2  A    between atoms: C_10  and  C_11
REMARK                            x       y       z     vdW  Elec       q    Type
REMARK                         _______ _______ _______ _____ _____    ______ ____
ROOT
ATOM      1  C   UNL     1       6.516   4.959  18.270  0.00  0.00    +0.000 A 
ATOM      2  N   UNL     1       7.515   5.265  17.411  0.00  0.00    +0.000 NA
ATOM      3  C   UNL     1       7.053   4.965  16.218  0.00  0.00    +0.000 A 
ATOM      4  N   UNL     1       7.695   5.079  15.014  0.00  0.00    +0.000 NA
ATOM      5  C   UNL     1       7.002   4.774  13.966  0.00  0.00    +0.000 A 
ATOM      6  C   UNL     1       5.585   4.324  13.944  0.00  0.00    +0.000 A 
ATOM      7  C   UNL     1       5.001   4.221  15.146  0.00  0.00    +0.000 A 
ATOM      8  N   UNL     1       5.733   4.508  16.301  0.00  0.00    +0.000 N 
ATOM      9  C   UNL     1       5.391   4.442  17.654  0.00  0.00    +0.000 A 
ENDROOT
BRANCH   9  10
ATOM     10  C   UNL     1       4.109   3.977  18.213  0.00  0.00    +0.000 A 
ATOM     11  C   UNL     1       3.696   2.643  18.025  0.00  0.00    +0.000 A 
ATOM     12  C   UNL     1       2.486   2.177  18.550  0.00  0.00    +0.000 A 
ATOM     13  C   UNL     1       1.693   3.032  19.301  0.00  0.00    +0.000 A 
ATOM     14  F   UNL     1       0.553   2.575  19.837  0.00  0.00    +0.000 F 
ATOM     15  C   UNL     1       2.078   4.349  19.493  0.00  0.00    +0.000 A 
ATOM     16  F   UNL     1       1.324   5.175  20.230  0.00  0.00    +0.000 F 
ATOM     17  C   UNL     1       3.260   4.833  18.929  0.00  0.00    +0.000 A 
ENDBRANCH   9  10
BRANCH   1  18
ATOM     18  N   UNL     1       6.731   5.159  19.574  0.00  0.00    +0.000 N 
ATOM     19  H   UNL     1       5.900   5.304  20.140  0.00  0.00    +0.000 HD
ATOM     20  H   UNL     1       7.527   5.695  19.891  0.00  0.00    +0.000 HD
ENDBRANCH   1  18
TORSDOF 2
ENDMDL
MODEL 4
REMARK VINA RESULT:      -7.5      1.768      2.253
REMARK  Name = 
REMARK  2 active torsions:
REMARK  status: ('A' for Active; 'I' for Inactive)
REMARK    1  A    between atoms: N_1  and  C_2
REMARK    2  A    between atoms: C_10  and  C_11
REMARK                            x       y       z     vdW  Elec       q    Type
REMARK                         _______ _______ _______ _____ _____    ______ ____
ROOT
ATOM      1  C   UNL     1       6.313   5.006  18.062  0.00  0.00    +0.000 A 
ATOM      2  N   UNL     1       7.366   5.334  17.278  0.00  0.00    +0.000 NA
ATOM      3  C   UNL     1       7.008   5.003  16.057  0.00  0.00    +0.000 A 
ATOM      4  N   UNL     1       7.738   5.123  14.905  0.00  0.00    +0.000 NA
ATOM      5  C   UNL     1       7.138   4.783  13.811  0.00  0.00    +0.000 A 
ATOM      6  C   UNL     1       5.743   4.286  13.686  0.00  0.00    +0.000 A 
ATOM      7  C   UNL     1       5.070   4.180  14.841  0.00  0.00    +0.000 A 
ATOM      8  N   UNL     1       5.701   4.505  16.045  0.00  0.00    +0.000 N 
ATOM      9  C   UNL     1       5.256   4.445  17.368  0.00  0.00    +0.000 A 
ENDROOT
BRANCH   9  10
ATOM     10  C   UNL     1       3.950   3.946  17.833  0.00  0.00    +0.000 A 
ATOM     11  C   UNL     1       2.810   4.771  17.764  0.00  0.00    +0.000 A 
ATOM     12  C   UNL     1       1.559   4.317  18.194  0.00  0.00    +0.000 A 
ATOM     13  C   UNL     1       1.427   3.018  18.664  0.00  0.00    +0.000 A 
ATOM     14  F   UNL     1       0.221   2.571  19.038  0.00  0.00    +0.000 F 
ATOM     15  C   UNL     1       2.536   2.193  18.744  0.00  0.00    +0.000 A 
ATOM     16  F   UNL     1       2.412   0.933  19.182  0.00  0.00    +0.000 F 
ATOM     17  C   UNL     1       3.797   2.657  18.364  0.00  0.00    +0.000 A 
ENDBRANCH   9  10
BRANCH   1  18
ATOM     18  N   UNL     1       6.419   5.230  19.375  0.00  0.00    +0.000 N 
ATOM     19  H   UNL     1       6.451   4.401  19.961  0.00  0.00    +0.000 HD
ATOM     20  H   UNL     1       5.937   6.006  19.808  0.00  0.00    +0.000 HD
ENDBRANCH   1  18
TORSDOF 2
ENDMDL
MODEL 5
REMARK VINA RESULT:      -7.5      2.156      2.742
REMARK  Name = 
REMARK  2 active torsions:
REMARK  status: ('A' for Active; 'I' for Inactive)
REMARK    1  A    between atoms: N_1  and  C_2
REMARK    2  A    between atoms: C_10  and  C_11
REMARK                            x       y       z     vdW  Elec       q    Type
REMARK                         _______ _______ _______ _____ _____    ______ ____
ROOT
ATOM      1  C   UNL     1       3.501   7.012  17.627  0.00  0.00    +0.000 A 
ATOM      2  N   UNL     1       4.373   7.417  16.675  0.00  0.00    +0.000 NA
ATOM      3  C   UNL     1       4.997   6.327  16.288  0.00  0.00    +0.000 A 
ATOM      4  N   UNL     1       5.989   6.213  15.351  0.00  0.00    +0.000 NA
ATOM      5  C   UNL     1       6.403   5.014  15.100  0.00  0.00    +0.000 A 
ATOM      6  C   UNL     1       5.904   3.759  15.721  0.00  0.00    +0.000 A 
ATOM      7  C   UNL     1       4.938   3.921  16.636  0.00  0.00    +0.000 A 
ATOM      8  N   UNL     1       4.493   5.206  16.957  0.00  0.00    +0.000 N 
ATOM      9  C   UNL     1       3.550   5.654  17.886  0.00  0.00    +0.000 A 
ENDROOT
BRANCH   9  10
ATOM     10  C   UNL     1       2.793   4.822  18.837  0.00  0.00    +0.000 A 
ATOM     11  C   UNL     1       3.008   4.955  20.223  0.00  0.00    +0.000 A 
ATOM     12  C   UNL     1       2.298   4.181  21.146  0.00  0.00    +0.000 A 
ATOM     13  C   UNL     1       1.336   3.289  20.694  0.00  0.00    +0.000 A 
ATOM     14  F   UNL     1       0.628   2.576  21.579  0.00  0.00    +0.000 F 
ATOM     15  C   UNL     1       1.112   3.139  19.335  0.00  0.00    +0.000 A 
ATOM     16  F   UNL     1       0.175   2.292  18.892  0.00  0.00    +0.000 F 
ATOM     17  C   UNL     1       1.854   3.873  18.407  0.00  0.00    +0.000 A 
ENDBRANCH   9  10
BRANCH   1  18
ATOM     18  N   UNL     1       2.735   7.941  18.208  0.00  0.00    +0.000 N 
ATOM     19  H   UNL     1       1.742   7.882  18.004  0.00  0.00    +0.000 HD
ATOM     20  H   UNL     1       3.065   8.890  18.314  0.00  0.00    +0.000 HD
ENDBRANCH   1  18
TORSDOF 2
ENDMDL
MODEL 6
REMARK VINA RESULT:      -7.4      3.708      6.014
REMARK  Name = 
REMARK  2 active torsions:
REMARK  status: ('A' for Active; 'I' for Inactive)
REMARK    1  A    between atoms: N_1  and  C_2
REMARK    2  A    between atoms: C_10  and  C_11
REMARK                            x       y       z     vdW  Elec       q    Type
REMARK                         _______ _______ _______ _____ _____    ______ ____
ROOT
ATOM      1  C   UNL     1       3.742   2.311  18.765  0.00  0.00    +0.000 A 
ATOM      2  N   UNL     1       2.842   2.334  19.775  0.00  0.00    +0.000 NA
ATOM      3  C   UNL     1       2.582   3.606  19.982  0.00  0.00    +0.000 A 
ATOM      4  N   UNL     1       1.742   4.153  20.914  0.00  0.00    +0.000 NA
ATOM      5  C   UNL     1       1.608   5.438  20.878  0.00  0.00    +0.000 A 
ATOM      6  C   UNL     1       2.267   6.369  19.925  0.00  0.00    +0.000 A 
ATOM      7  C   UNL     1       3.085   5.789  19.035  0.00  0.00    +0.000 A 
ATOM      8  N   UNL     1       3.281   4.406  19.070  0.00  0.00    +0.000 N 
ATOM      9  C   UNL     1       4.094   3.566  18.304  0.00  0.00    +0.000 A 
ENDROOT
BRANCH   9  10
ATOM     10  C   UNL     1       5.033   3.981  17.247  0.00  0.00    +0.000 A 
ATOM     11  C   UNL     1       6.320   4.443  17.582  0.00  0.00    +0.000 A 
ATOM     12  C   UNL     1       7.230   4.837  16.596  0.00  0.00    +0.000 A 
ATOM     13  C   UNL     1       6.874   4.738  15.259  0.00  0.00    +0.000 A 
ATOM     14  F   UNL     1       7.760   5.078  14.313  0.00  0.00    +0.000 F 
ATOM     15  C   UNL     1       5.611   4.291  14.908  0.00  0.00    +0.000 A 
ATOM     16  F   UNL     1       5.267   4.179  13.618  0.00  0.00    +0.000 F 
ATOM     17  C   UNL     1       4.681   3.945  15.890  0.00  0.00    +0.000 A 
ENDBRANCH   9  10
BRANCH   1  18
ATOM     18  N   UNL     1       4.193   1.120  18.358  0.00  0.00    +0.000 N 
ATOM     19  H   UNL     1       3.513   0.365  18.371  0.00  0.00    +0.000 HD
ATOM     20  H   UNL     1       5.130   0.818  18.584  0.00  0.00    +0.000 HD
ENDBRANCH   1  18
TORSDOF 2
ENDMDL
MODEL 7
REMARK VINA RESULT:      -7.2      1.899      1.960
REMARK  Name = 
REMARK  2 active torsions:
REMARK  status: ('A' for Active; 'I' for Inactive)
REMARK    1  A    between atoms: N_1  and  C_2
REMARK    2  A    between atoms: C_10  and  C_11
REMARK                            x       y       z     vdW  Elec       q    Type
REMARK                         _______ _______ _______ _____ _____    ______ ____
ROOT
ATOM      1  C   UNL     1       6.329   5.210  17.733  0.00  0.00    +0.000 A 
ATOM      2  N   UNL     1       7.329   5.670  16.947  0.00  0.00    +0.000 NA
ATOM      3  C   UNL     1       7.083   5.187  15.750  0.00  0.00    +0.000 A 
ATOM      4  N   UNL     1       7.819   5.355  14.607  0.00  0.00    +0.000 NA
ATOM      5  C   UNL     1       7.332   4.827  13.532  0.00  0.00    +0.000 A 
ATOM      6  C   UNL     1       6.059   4.068  13.418  0.00  0.00    +0.000 A 
ATOM      7  C   UNL     1       5.377   3.924  14.564  0.00  0.00    +0.000 A 
ATOM      8  N   UNL     1       5.893   4.452  15.751  0.00  0.00    +0.000 N 
ATOM      9  C   UNL     1       5.421   4.409  17.065  0.00  0.00    +0.000 A 
ENDROOT
BRANCH   9  10
ATOM     10  C   UNL     1       4.215   3.709  17.541  0.00  0.00    +0.000 A 
ATOM     11  C   UNL     1       4.322   2.438  18.141  0.00  0.00    +0.000 A 
ATOM     12  C   UNL     1       3.193   1.757  18.606  0.00  0.00    +0.000 A 
ATOM     13  C   UNL     1       1.945   2.355  18.507  0.00  0.00    +0.000 A 
ATOM     14  F   UNL     1       0.868   1.719  18.988  0.00  0.00    +0.000 F 
ATOM     15  C   UNL     1       1.817   3.601  17.916  0.00  0.00    +0.000 A 
ATOM     16  F   UNL     1       0.617   4.191  17.832  0.00  0.00    +0.000 F 
ATOM     17  C   UNL     1       2.934   4.264  17.405  0.00  0.00    +0.000 A 
ENDBRANCH   9  10
BRANCH   1  18
ATOM     18  N   UNL     1       6.345   5.548  19.026  0.00  0.00    +0.000 N 
ATOM     19  H   UNL     1       7.256   5.784  19.408  0.00  0.00    +0.000 HD
ATOM     20  H   UNL     1       5.743   5.080  19.690  0.00  0.00    +0.000 HD
ENDBRANCH   1  18
TORSDOF 2
ENDMDL
MODEL 8
REMARK VINA RESULT:      -7.1      3.798      5.697
REMARK  Name = 
REMARK  2 active torsions:
REMARK  status: ('A' for Active; 'I' for Inactive)
REMARK    1  A    between atoms: N_1  and  C_2
REMARK    2  A    between atoms: C_10  and  C_11
REMARK                            x       y       z     vdW  Elec       q    Type
REMARK                         _______ _______ _______ _____ _____    ______ ____
ROOT
ATOM      1  C   UNL     1       2.361   5.851  19.981  0.00  0.00    +0.000 A 
ATOM      2  N   UNL     1       1.295   5.066  20.257  0.00  0.00    +0.000 NA
ATOM      3  C   UNL     1       1.509   3.946  19.603  0.00  0.00    +0.000 A 
ATOM      4  N   UNL     1       0.707   2.838  19.547  0.00  0.00    +0.000 NA
ATOM      5  C   UNL     1       1.169   1.831  18.882  0.00  0.00    +0.000 A 
ATOM      6  C   UNL     1       2.480   1.759  18.184  0.00  0.00    +0.000 A 
ATOM      7  C   UNL     1       3.227   2.869  18.261  0.00  0.00    +0.000 A 
ATOM      8  N   UNL     1       2.742   3.989  18.942  0.00  0.00    +0.000 N 
ATOM      9  C   UNL     1       3.283   5.262  19.134  0.00  0.00    +0.000 A 
ENDROOT
BRANCH   9  10
ATOM     10  C   UNL     1       4.553   5.767  18.584  0.00  0.00    +0.000 A 
ATOM     11  C   UNL     1       4.552   6.615  17.459  0.00  0.00    +0.000 A 
ATOM     12  C   UNL     1       5.744   7.111  16.923  0.00  0.00    +0.000 A 
ATOM     13  C   UNL     1       6.951   6.794  17.529  0.00  0.00    +0.000 A 
ATOM     14  F   UNL     1       8.090   7.301  17.039  0.00  0.00    +0.000 F 
ATOM     15  C   UNL     1       6.975   5.958  18.633  0.00  0.00    +0.000 A 
ATOM     16  F   UNL     1       8.135   5.660  19.233  0.00  0.00    +0.000 F 
ATOM     17  C   UNL     1       5.792   5.419  19.142  0.00  0.00    +0.000 A 
ENDBRANCH   9  10
BRANCH   1  18
ATOM     18  N   UNL     1       2.391   7.075  20.519  0.00  0.00    +0.000 N 
ATOM     19  H   UNL     1       2.830   7.794  19.952  0.00  0.00    +0.000 HD
ATOM     20  H   UNL     1       2.544   7.200  21.510  0.00  0.00    +0.000 HD
ENDBRANCH   1  18
TORSDOF 2
ENDMDL
MODEL 9
REMARK VINA RESULT:      -7.0      3.573      5.916
REMARK  Name = 
REMARK  2 active torsions:
REMARK  status: ('A' for Active; 'I' for Inactive)
REMARK    1  A    between atoms: N_1  and  C_2
REMARK    2  A    between atoms: C_10  and  C_11
REMARK                            x       y       z     vdW  Elec       q    Type
REMARK                         _______ _______ _______ _____ _____    ______ ____
ROOT
ATOM      1  C   UNL     1       3.695   2.502  18.714  0.00  0.00    +0.000 A 
ATOM      2  N   UNL     1       2.767   2.525  19.698  0.00  0.00    +0.000 NA
ATOM      3  C   UNL     1       2.522   3.797  19.917  0.00  0.00    +0.000 A 
ATOM      4  N   UNL     1       1.664   4.344  20.833  0.00  0.00    +0.000 NA
ATOM      5  C   UNL     1       1.552   5.632  20.814  0.00  0.00    +0.000 A 
ATOM      6  C   UNL     1       2.253   6.566  19.894  0.00  0.00    +0.000 A 
ATOM      7  C   UNL     1       3.087   5.986  19.020  0.00  0.00    +0.000 A 
ATOM      8  N   UNL     1       3.259   4.599  19.038  0.00  0.00    +0.000 N 
ATOM      9  C   UNL     1       4.081   3.758  18.284  0.00  0.00    +0.000 A 
ENDROOT
BRANCH   9  10
ATOM     10  C   UNL     1       5.057   4.173  17.260  0.00  0.00    +0.000 A 
ATOM     11  C   UNL     1       5.044   3.575  15.985  0.00  0.00    +0.000 A 
ATOM     12  C   UNL     1       5.956   3.956  14.995  0.00  0.00    +0.000 A 
ATOM     13  C   UNL     1       6.869   4.967  15.259  0.00  0.00    +0.000 A 
ATOM     14  F   UNL     1       7.717   5.359  14.299  0.00  0.00    +0.000 F 
ATOM     15  C   UNL     1       6.902   5.564  16.509  0.00  0.00    +0.000 A 
ATOM     16  F   UNL     1       7.770   6.551  16.765  0.00  0.00    +0.000 F 
ATOM     17  C   UNL     1       6.027   5.152  17.516  0.00  0.00    +0.000 A 
ENDBRANCH   9  10
BRANCH   1  18
ATOM     18  N   UNL     1       4.138   1.310  18.302  0.00  0.00    +0.000 N 
ATOM     19  H   UNL     1       3.447   0.566  18.285  0.00  0.00    +0.000 HD
ATOM     20  H   UNL     1       5.065   0.989  18.548  0.00  0.00    +0.000 HD
ENDBRANCH   1  18
TORSDOF 2
ENDMDL
