MODEL 1
REMARK VINA RESULT:      -7.3      0.000      0.000
REMARK  Name = 
REMARK  9 active torsions:
REMARK  status: ('A' for Active; 'I' for Inactive)
REMARK    1  A    between atoms: C_1  and  C_2
REMARK    2  A    between atoms: C_2  and  C_3
REMARK    3  A    between atoms: C_2  and  C_4
REMARK    4  A    between atoms: C_4  and  N_5
REMARK    5  A    between atoms: C_7  and  C_8
REMARK    6  A    between atoms: C_11  and  C_12
REMARK    7  A    between atoms: C_19  and  C_20
REMARK    8  A    between atoms: C_20  and  C_21
REMARK    9  A    between atoms: C_20  and  C_22
REMARK                            x       y       z     vdW  Elec       q    Type
REMARK                         _______ _______ _______ _____ _____    ______ ____
ROOT
ATOM      1  C   UNL     1       2.706   6.027  18.376  0.00  0.00    +0.000 A 
ATOM      2  N   UNL     1       1.760   5.076  18.801  0.00  0.00    +0.000 N 
ATOM      3  C   UNL     1       2.067   3.756  18.665  0.00  0.00    +0.000 A 
ATOM      4  C   UNL     1       2.362   2.725  19.544  0.00  0.00    +0.000 A 
ATOM      5  C   UNL     1       2.797   1.663  18.710  0.00  0.00    +0.000 A 
ATOM      6  N   UNL     1       2.966   2.070  17.446  0.00  0.00    +0.000 NA
ATOM      7  N   UNL     1       2.880   3.415  17.594  0.00  0.00    +0.000 N 
ATOM      8  C   UNL     1       3.822   4.316  17.082  0.00  0.00    +0.000 A 
ATOM      9  O   UNL     1       4.548   4.046  16.132  0.00  0.00    +0.000 OA
ATOM     10  C   UNL     1       3.886   5.587  17.875  0.00  0.00    +0.000 A 
ATOM     11  H   UNL     1       0.800   5.394  18.611  0.00  0.00    +0.000 HD
ENDROOT
BRANCH   1  14
ATOM     12  N   UNL     1       1.614   9.417  18.860  0.00  0.00    +0.000 N 
ATOM     13  C   UNL     1       1.729   8.147  19.373  0.00  0.00    +0.000 A 
ATOM     14  C   UNL     1       2.404   7.429  18.419  0.00  0.00    +0.000 A 
ATOM     15  C   UNL     1       2.619   8.341  17.363  0.00  0.00    +0.000 A 
ATOM     16  N   UNL     1       2.149   9.562  17.641  0.00  0.00    +0.000 NA
BRANCH  12  17
ATOM     17  C   UNL     1       0.926  10.553  19.447  0.00  0.00    +0.000 C 
BRANCH  17  19
ATOM     18  C   UNL     1      -1.242  11.540  20.310  0.00  0.00    +0.000 C 
ATOM     19  C   UNL     1      -0.596  10.387  19.541  0.00  0.00    +0.000 C 
ATOM     20  C   UNL     1      -1.183  10.292  18.135  0.00  0.00    +0.000 C 
ENDBRANCH  17  19
ENDBRANCH  12  17
ENDBRANCH   1  14
BRANCH  10  21
ATOM     21  C   UNL     1       5.208   5.995  18.503  0.00  0.00    +0.000 C 
ATOM     22  C   UNL     1       5.878   4.827  19.263  0.00  0.00    +0.000 C 
ATOM     23  C   UNL     1       6.207   6.618  17.545  0.00  0.00    +0.000 C 
ENDBRANCH  10  21
BRANCH   4  24
ATOM     24  C   UNL     1       2.501   2.817  20.960  0.00  0.00    +0.000 C 
ATOM     25  N   UNL     1       2.555   2.743  22.119  0.00  0.00    +0.000 NA
ENDBRANCH   4  24
TORSDOF 5
ENDMDL
MODEL 2
REMARK VINA RESULT:      -7.2      3.242      6.355
REMARK  Name = 
REMARK  9 active torsions:
REMARK  status: ('A' for Active; 'I' for Inactive)
REMARK    1  A    between atoms: C_1  and  C_2
REMARK    2  A    between atoms: C_2  and  C_3
REMARK    3  A    between atoms: C_2  and  C_4
REMARK    4  A    between atoms: C_4  and  N_5
REMARK    5  A    between atoms: C_7  and  C_8
REMARK    6  A    between atoms: C_11  and  C_12
REMARK    7  A    between atoms: C_19  and  C_20
REMARK    8  A    between atoms: C_20  and  C_21
REMARK    9  A    between atoms: C_20  and  C_22
REMARK                            x       y       z     vdW  Elec       q    Type
REMARK                         _______ _______ _______ _____ _____    ______ ____
ROOT
ATOM      1  C   UNL     1       4.445   4.466  17.343  0.00  0.00    +0.000 A 
ATOM      2  N   UNL     1       3.082   4.702  17.601  0.00  0.00    +0.000 N 
ATOM      3  C   UNL     1       2.622   4.505  18.868  0.00  0.00    +0.000 A 
ATOM      4  C   UNL     1       2.169   5.334  19.883  0.00  0.00    +0.000 A 
ATOM      5  C   UNL     1       2.056   4.482  21.011  0.00  0.00    +0.000 A 
ATOM      6  N   UNL     1       2.599   3.281  20.775  0.00  0.00    +0.000 NA
ATOM      7  N   UNL     1       3.253   3.517  19.611  0.00  0.00    +0.000 N 
ATOM      8  C   UNL     1       4.597   3.192  19.393  0.00  0.00    +0.000 A 
ATOM      9  O   UNL     1       5.178   2.318  20.027  0.00  0.00    +0.000 OA
ATOM     10  C   UNL     1       5.240   4.079  18.370  0.00  0.00    +0.000 A 
ATOM     11  H   UNL     1       2.497   4.421  16.802  0.00  0.00    +0.000 HD
ENDROOT
BRANCH   1  14
ATOM     12  N   UNL     1       5.875   4.238  14.054  0.00  0.00    +0.000 N 
ATOM     13  C   UNL     1       5.316   3.587  15.127  0.00  0.00    +0.000 A 
ATOM     14  C   UNL     1       4.968   4.576  16.012  0.00  0.00    +0.000 A 
ATOM     15  C   UNL     1       5.386   5.776  15.398  0.00  0.00    +0.000 A 
ATOM     16  N   UNL     1       5.927   5.569  14.192  0.00  0.00    +0.000 NA
BRANCH  12  17
ATOM     17  C   UNL     1       6.467   3.648  12.867  0.00  0.00    +0.000 C 
BRANCH  17  19
ATOM     18  C   UNL     1       4.417   3.313  11.414  0.00  0.00    +0.000 C 
ATOM     19  C   UNL     1       5.567   2.629  12.156  0.00  0.00    +0.000 C 
ATOM     20  C   UNL     1       6.407   1.802  11.185  0.00  0.00    +0.000 C 
ENDBRANCH  17  19
ENDBRANCH  12  17
ENDBRANCH   1  14
BRANCH  10  21
ATOM     21  C   UNL     1       6.462   4.891  18.767  0.00  0.00    +0.000 C 
ATOM     22  C   UNL     1       7.706   4.521  17.926  0.00  0.00    +0.000 C 
ATOM     23  C   UNL     1       6.265   6.396  18.750  0.00  0.00    +0.000 C 
ENDBRANCH  10  21
BRANCH   4  24
ATOM     24  C   UNL     1       2.133   6.759  19.877  0.00  0.00    +0.000 C 
ATOM     25  N   UNL     1       2.087   7.909  19.712  0.00  0.00    +0.000 NA
ENDBRANCH   4  24
TORSDOF 5
ENDMDL
MODEL 3
REMARK VINA RESULT:      -7.0      3.569      6.700
REMARK  Name = 
REMARK  9 active torsions:
REMARK  status: ('A' for Active; 'I' for Inactive)
REMARK    1  A    between atoms: C_1  and  C_2
REMARK    2  A    between atoms: C_2  and  C_3
REMARK    3  A    between atoms: C_2  and  C_4
REMARK    4  A    between atoms: C_4  and  N_5
REMARK    5  A    between atoms: C_7  and  C_8
REMARK    6  A    between atoms: C_11  and  C_12
REMARK    7  A    between atoms: C_19  and  C_20
REMARK    8  A    between atoms: C_20  and  C_21
REMARK    9  A    between atoms: C_20  and  C_22
REMARK                            x       y       z     vdW  Elec       q    Type
REMARK                         _______ _______ _______ _____ _____    ______ ____
ROOT
ATOM      1  C   UNL     1       5.195   3.947  16.869  0.00  0.00    +0.000 A 
ATOM      2  N   UNL     1       4.639   2.719  17.273  0.00  0.00    +0.000 N 
ATOM      3  C   UNL     1       4.218   2.595  18.562  0.00  0.00    +0.000 A 
ATOM      4  C   UNL     1       2.982   2.482  19.181  0.00  0.00    +0.000 A 
ATOM      5  C   UNL     1       3.266   2.610  20.565  0.00  0.00    +0.000 A 
ATOM      6  N   UNL     1       4.534   2.987  20.772  0.00  0.00    +0.000 NA
ATOM      7  N   UNL     1       4.912   3.327  19.515  0.00  0.00    +0.000 N 
ATOM      8  C   UNL     1       5.529   4.541  19.190  0.00  0.00    +0.000 A 
ATOM      9  O   UNL     1       6.155   5.205  20.007  0.00  0.00    +0.000 OA
ATOM     10  C   UNL     1       5.264   4.954  17.773  0.00  0.00    +0.000 A 
ATOM     11  H   UNL     1       5.113   1.927  16.818  0.00  0.00    +0.000 HD
ENDROOT
BRANCH   1  14
ATOM     12  N   UNL     1       6.286   3.910  13.445  0.00  0.00    +0.000 N 
ATOM     13  C   UNL     1       5.376   3.481  14.381  0.00  0.00    +0.000 A 
ATOM     14  C   UNL     1       5.731   4.108  15.548  0.00  0.00    +0.000 A 
ATOM     15  C   UNL     1       6.878   4.861  15.221  0.00  0.00    +0.000 A 
ATOM     16  N   UNL     1       7.208   4.752  13.929  0.00  0.00    +0.000 NA
BRANCH  12  17
ATOM     17  C   UNL     1       6.396   3.498  12.057  0.00  0.00    +0.000 C 
BRANCH  17  19
ATOM     18  C   UNL     1       4.239   2.886  10.877  0.00  0.00    +0.000 C 
ATOM     19  C   UNL     1       5.443   2.362  11.661  0.00  0.00    +0.000 C 
ATOM     20  C   UNL     1       6.204   1.327  10.837  0.00  0.00    +0.000 C 
ENDBRANCH  17  19
ENDBRANCH  12  17
ENDBRANCH   1  14
BRANCH  10  21
ATOM     21  C   UNL     1       4.590   6.291  17.512  0.00  0.00    +0.000 C 
ATOM     22  C   UNL     1       3.437   6.567  18.505  0.00  0.00    +0.000 C 
ATOM     23  C   UNL     1       5.527   7.485  17.476  0.00  0.00    +0.000 C 
ENDBRANCH  10  21
BRANCH   4  24
ATOM     24  C   UNL     1       1.701   2.546  18.558  0.00  0.00    +0.000 C 
ATOM     25  N   UNL     1       0.613   2.689  18.175  0.00  0.00    +0.000 NA
ENDBRANCH   4  24
TORSDOF 5
ENDMDL
MODEL 4
REMARK VINA RESULT:      -7.0      3.569      6.979
REMARK  Name = 
REMARK  9 active torsions:
REMARK  status: ('A' for Active; 'I' for Inactive)
REMARK    1  A    between atoms: C_1  and  C_2
REMARK    2  A    between atoms: C_2  and  C_3
REMARK    3  A    between atoms: C_2  and  C_4
REMARK    4  A    between atoms: C_4  and  N_5
REMARK    5  A    between atoms: C_7  and  C_8
REMARK    6  A    between atoms: C_11  and  C_12
REMARK    7  A    between atoms: C_19  and  C_20
REMARK    8  A    between atoms: C_20  and  C_21
REMARK    9  A    between atoms: C_20  and  C_22
REMARK                            x       y       z     vdW  Elec       q    Type
REMARK                         _______ _______ _______ _____ _____    ______ ____
ROOT
ATOM      1  C   UNL     1       5.284   5.243  16.474  0.00  0.00    +0.000 A 
ATOM      2  N   UNL     1       3.896   5.447  16.575  0.00  0.00    +0.000 N 
ATOM      3  C   UNL     1       3.356   5.610  17.815  0.00  0.00    +0.000 A 
ATOM      4  C   UNL     1       2.788   6.672  18.503  0.00  0.00    +0.000 A 
ATOM      5  C   UNL     1       2.638   6.195  19.829  0.00  0.00    +0.000 A 
ATOM      6  N   UNL     1       3.259   5.021  20.001  0.00  0.00    +0.000 NA
ATOM      7  N   UNL     1       3.982   4.941  18.857  0.00  0.00    +0.000 N 
ATOM      8  C   UNL     1       5.354   4.662  18.821  0.00  0.00    +0.000 A 
ATOM      9  O   UNL     1       5.932   4.065  19.722  0.00  0.00    +0.000 OA
ATOM     10  C   UNL     1       6.022   5.243  17.611  0.00  0.00    +0.000 A 
ATOM     11  H   UNL     1       3.386   4.898  15.870  0.00  0.00    +0.000 HD
ENDROOT
BRANCH   1  14
ATOM     12  N   UNL     1       6.500   4.180  13.264  0.00  0.00    +0.000 N 
ATOM     13  C   UNL     1       5.491   4.144  14.196  0.00  0.00    +0.000 A 
ATOM     14  C   UNL     1       5.896   4.984  15.203  0.00  0.00    +0.000 A 
ATOM     15  C   UNL     1       7.166   5.446  14.800  0.00  0.00    +0.000 A 
ATOM     16  N   UNL     1       7.528   4.966  13.605  0.00  0.00    +0.000 NA
BRANCH  12  17
ATOM     17  C   UNL     1       6.598   3.419  12.031  0.00  0.00    +0.000 C 
BRANCH  17  19
ATOM     18  C   UNL     1       4.280   3.027  11.085  0.00  0.00    +0.000 C 
ATOM     19  C   UNL     1       5.465   2.405  11.825  0.00  0.00    +0.000 C 
ATOM     20  C   UNL     1       5.998   1.199  11.056  0.00  0.00    +0.000 C 
ENDBRANCH  17  19
ENDBRANCH  12  17
ENDBRANCH   1  14
BRANCH  10  21
ATOM     21  C   UNL     1       7.168   6.222  17.805  0.00  0.00    +0.000 C 
ATOM     22  C   UNL     1       6.724   7.689  17.598  0.00  0.00    +0.000 C 
ATOM     23  C   UNL     1       7.904   6.094  19.127  0.00  0.00    +0.000 C 
ENDBRANCH  10  21
BRANCH   4  24
ATOM     24  C   UNL     1       2.679   8.023  18.058  0.00  0.00    +0.000 C 
ATOM     25  N   UNL     1       2.480   9.068  17.592  0.00  0.00    +0.000 NA
ENDBRANCH   4  24
TORSDOF 5
ENDMDL
MODEL 5
REMARK VINA RESULT:      -7.0      0.738      1.084
REMARK  Name = 
REMARK  9 active torsions:
REMARK  status: ('A' for Active; 'I' for Inactive)
REMARK    1  A    between atoms: C_1  and  C_2
REMARK    2  A    between atoms: C_2  and  C_3
REMARK    3  A    between atoms: C_2  and  C_4
REMARK    4  A    between atoms: C_4  and  N_5
REMARK    5  A    between atoms: C_7  and  C_8
REMARK    6  A    between atoms: C_11  and  C_12
REMARK    7  A    between atoms: C_19  and  C_20
REMARK    8  A    between atoms: C_20  and  C_21
REMARK    9  A    between atoms: C_20  and  C_22
REMARK                            x       y       z     vdW  Elec       q    Type
REMARK                         _______ _______ _______ _____ _____    ______ ____
ROOT
ATOM      1  C   UNL     1       2.700   6.045  18.404  0.00  0.00    +0.000 A 
ATOM      2  N   UNL     1       1.774   5.076  18.829  0.00  0.00    +0.000 N 
ATOM      3  C   UNL     1       2.098   3.762  18.673  0.00  0.00    +0.000 A 
ATOM      4  C   UNL     1       2.419   2.725  19.537  0.00  0.00    +0.000 A 
ATOM      5  C   UNL     1       2.858   1.680  18.685  0.00  0.00    +0.000 A 
ATOM      6  N   UNL     1       3.006   2.104  17.424  0.00  0.00    +0.000 NA
ATOM      7  N   UNL     1       2.903   3.445  17.588  0.00  0.00    +0.000 N 
ATOM      8  C   UNL     1       3.825   4.366  17.076  0.00  0.00    +0.000 A 
ATOM      9  O   UNL     1       4.542   4.118  16.113  0.00  0.00    +0.000 OA
ATOM     10  C   UNL     1       3.880   5.629  17.883  0.00  0.00    +0.000 A 
ATOM     11  H   UNL     1       0.807   5.382  18.655  0.00  0.00    +0.000 HD
ENDROOT
BRANCH   1  14
ATOM     12  N   UNL     1       1.586   9.417  18.959  0.00  0.00    +0.000 N 
ATOM     13  C   UNL     1       1.755   8.149  19.463  0.00  0.00    +0.000 A 
ATOM     14  C   UNL     1       2.379   7.442  18.466  0.00  0.00    +0.000 A 
ATOM     15  C   UNL     1       2.510   8.357  17.400  0.00  0.00    +0.000 A 
ATOM     16  N   UNL     1       2.039   9.570  17.708  0.00  0.00    +0.000 NA
BRANCH  12  17
ATOM     17  C   UNL     1       0.919  10.542  19.589  0.00  0.00    +0.000 C 
BRANCH  17  19
ATOM     18  C   UNL     1      -0.354  12.494  18.594  0.00  0.00    +0.000 C 
ATOM     19  C   UNL     1       1.020  11.855  18.801  0.00  0.00    +0.000 C 
ATOM     20  C   UNL     1       1.947  12.817  19.538  0.00  0.00    +0.000 C 
ENDBRANCH  17  19
ENDBRANCH  12  17
ENDBRANCH   1  14
BRANCH  10  21
ATOM     21  C   UNL     1       5.204   6.048  18.499  0.00  0.00    +0.000 C 
ATOM     22  C   UNL     1       5.888   4.887  19.257  0.00  0.00    +0.000 C 
ATOM     23  C   UNL     1       6.191   6.676  17.531  0.00  0.00    +0.000 C 
ENDBRANCH  10  21
BRANCH   4  24
ATOM     24  C   UNL     1       2.574   2.803  20.952  0.00  0.00    +0.000 C 
ATOM     25  N   UNL     1       2.561   2.789  22.114  0.00  0.00    +0.000 NA
ENDBRANCH   4  24
TORSDOF 5
ENDMDL
MODEL 6
REMARK VINA RESULT:      -6.9      2.229      3.968
REMARK  Name = 
REMARK  9 active torsions:
REMARK  status: ('A' for Active; 'I' for Inactive)
REMARK    1  A    between atoms: C_1  and  C_2
REMARK    2  A    between atoms: C_2  and  C_3
REMARK    3  A    between atoms: C_2  and  C_4
REMARK    4  A    between atoms: C_4  and  N_5
REMARK    5  A    between atoms: C_7  and  C_8
REMARK    6  A    between atoms: C_11  and  C_12
REMARK    7  A    between atoms: C_19  and  C_20
REMARK    8  A    between atoms: C_20  and  C_21
REMARK    9  A    between atoms: C_20  and  C_22
REMARK                            x       y       z     vdW  Elec       q    Type
REMARK                         _______ _______ _______ _____ _____    ______ ____
ROOT
ATOM      1  C   UNL     1       3.694   6.570  18.326  0.00  0.00    +0.000 A 
ATOM      2  N   UNL     1       4.897   6.992  17.731  0.00  0.00    +0.000 N 
ATOM      3  C   UNL     1       5.890   6.075  17.565  0.00  0.00    +0.000 A 
ATOM      4  C   UNL     1       6.465   5.442  16.473  0.00  0.00    +0.000 A 
ATOM      5  C   UNL     1       7.298   4.444  17.040  0.00  0.00    +0.000 A 
ATOM      6  N   UNL     1       7.091   4.323  18.358  0.00  0.00    +0.000 NA
ATOM      7  N   UNL     1       5.964   5.062  18.511  0.00  0.00    +0.000 N 
ATOM      8  C   UNL     1       4.821   4.608  19.180  0.00  0.00    +0.000 A 
ATOM      9  O   UNL     1       4.857   3.722  20.026  0.00  0.00    +0.000 OA
ATOM     10  C   UNL     1       3.570   5.269  18.684  0.00  0.00    +0.000 A 
ATOM     11  H   UNL     1       5.137   7.951  18.015  0.00  0.00    +0.000 HD
ENDROOT
BRANCH   1  14
ATOM     12  N   UNL     1       1.239   9.181  18.599  0.00  0.00    +0.000 N 
ATOM     13  C   UNL     1       2.132   8.501  17.805  0.00  0.00    +0.000 A 
ATOM     14  C   UNL     1       2.645   7.509  18.602  0.00  0.00    +0.000 A 
ATOM     15  C   UNL     1       2.028   7.697  19.857  0.00  0.00    +0.000 A 
ATOM     16  N   UNL     1       1.156   8.711  19.849  0.00  0.00    +0.000 NA
BRANCH  12  17
ATOM     17  C   UNL     1       0.468  10.363  18.258  0.00  0.00    +0.000 C 
BRANCH  17  19
ATOM     18  C   UNL     1      -1.590  11.484  19.223  0.00  0.00    +0.000 C 
ATOM     19  C   UNL     1      -1.036  10.235  18.536  0.00  0.00    +0.000 C 
ATOM     20  C   UNL     1      -1.773   9.979  17.224  0.00  0.00    +0.000 C 
ENDBRANCH  17  19
ENDBRANCH  12  17
ENDBRANCH   1  14
BRANCH  10  21
ATOM     21  C   UNL     1       2.456   4.402  18.122  0.00  0.00    +0.000 C 
ATOM     22  C   UNL     1       2.996   3.279  17.207  0.00  0.00    +0.000 C 
ATOM     23  C   UNL     1       1.521   3.807  19.160  0.00  0.00    +0.000 C 
ENDBRANCH  10  21
BRANCH   4  24
ATOM     24  C   UNL     1       6.068   5.556  15.108  0.00  0.00    +0.000 C 
ATOM     25  N   UNL     1       5.797   5.498  13.980  0.00  0.00    +0.000 NA
ENDBRANCH   4  24
TORSDOF 5
ENDMDL
MODEL 7
REMARK VINA RESULT:      -6.8      0.698      1.026
REMARK  Name = 
REMARK  9 active torsions:
REMARK  status: ('A' for Active; 'I' for Inactive)
REMARK    1  A    between atoms: C_1  and  C_2
REMARK    2  A    between atoms: C_2  and  C_3
REMARK    3  A    between atoms: C_2  and  C_4
REMARK    4  A    between atoms: C_4  and  N_5
REMARK    5  A    between atoms: C_7  and  C_8
REMARK    6  A    between atoms: C_11  and  C_12
REMARK    7  A    between atoms: C_19  and  C_20
REMARK    8  A    between atoms: C_20  and  C_21
REMARK    9  A    between atoms: C_20  and  C_22
REMARK                            x       y       z     vdW  Elec       q    Type
REMARK                         _______ _______ _______ _____ _____    ______ ____
ROOT
ATOM      1  C   UNL     1       2.696   6.035  18.356  0.00  0.00    +0.000 A 
ATOM      2  N   UNL     1       1.781   5.057  18.785  0.00  0.00    +0.000 N 
ATOM      3  C   UNL     1       2.131   3.746  18.659  0.00  0.00    +0.000 A 
ATOM      4  C   UNL     1       2.458   2.731  19.547  0.00  0.00    +0.000 A 
ATOM      5  C   UNL     1       2.930   1.679  18.722  0.00  0.00    +0.000 A 
ATOM      6  N   UNL     1       3.089   2.082  17.455  0.00  0.00    +0.000 NA
ATOM      7  N   UNL     1       2.959   3.424  17.593  0.00  0.00    +0.000 N 
ATOM      8  C   UNL     1       3.872   4.352  17.077  0.00  0.00    +0.000 A 
ATOM      9  O   UNL     1       4.609   4.099  16.131  0.00  0.00    +0.000 OA
ATOM     10  C   UNL     1       3.891   5.630  17.861  0.00  0.00    +0.000 A 
ATOM     11  H   UNL     1       0.812   5.341  18.590  0.00  0.00    +0.000 HD
ENDROOT
BRANCH   1  14
ATOM     12  N   UNL     1       1.443   9.379  18.758  0.00  0.00    +0.000 N 
ATOM     13  C   UNL     1       1.525   8.100  19.253  0.00  0.00    +0.000 A 
ATOM     14  C   UNL     1       2.349   7.426  18.387  0.00  0.00    +0.000 A 
ATOM     15  C   UNL     1       2.680   8.371  17.393  0.00  0.00    +0.000 A 
ATOM     16  N   UNL     1       2.139   9.571  17.630  0.00  0.00    +0.000 NA
BRANCH  12  17
ATOM     17  C   UNL     1       0.646  10.480  19.267  0.00  0.00    +0.000 C 
BRANCH  17  19
ATOM     18  C   UNL     1       1.222  12.428  20.783  0.00  0.00    +0.000 C 
ATOM     19  C   UNL     1       1.012  10.915  20.692  0.00  0.00    +0.000 C 
ATOM     20  C   UNL     1      -0.088  10.474  21.655  0.00  0.00    +0.000 C 
ENDBRANCH  17  19
ENDBRANCH  12  17
ENDBRANCH   1  14
BRANCH  10  21
ATOM     21  C   UNL     1       5.198   6.086  18.489  0.00  0.00    +0.000 C 
ATOM     22  C   UNL     1       5.890   4.953  19.283  0.00  0.00    +0.000 C 
ATOM     23  C   UNL     1       6.190   6.711  17.525  0.00  0.00    +0.000 C 
ENDBRANCH  10  21
BRANCH   4  24
ATOM     24  C   UNL     1       2.589   2.839  20.962  0.00  0.00    +0.000 C 
ATOM     25  N   UNL     1       2.562   2.840  22.124  0.00  0.00    +0.000 NA
ENDBRANCH   4  24
TORSDOF 5
ENDMDL
MODEL 8
REMARK VINA RESULT:      -6.6      2.317      3.992
REMARK  Name = 
REMARK  9 active torsions:
REMARK  status: ('A' for Active; 'I' for Inactive)
REMARK    1  A    between atoms: C_1  and  C_2
REMARK    2  A    between atoms: C_2  and  C_3
REMARK    3  A    between atoms: C_2  and  C_4
REMARK    4  A    between atoms: C_4  and  N_5
REMARK    5  A    between atoms: C_7  and  C_8
REMARK    6  A    between atoms: C_11  and  C_12
REMARK    7  A    between atoms: C_19  and  C_20
REMARK    8  A    between atoms: C_20  and  C_21
REMARK    9  A    between atoms: C_20  and  C_22
REMARK                            x       y       z     vdW  Elec       q    Type
REMARK                         _______ _______ _______ _____ _____    ______ ____
ROOT
ATOM      1  C   UNL     1       3.561   6.783  18.376  0.00  0.00    +0.000 A 
ATOM      2  N   UNL     1       4.796   7.114  17.790  0.00  0.00    +0.000 N 
ATOM      3  C   UNL     1       5.732   6.133  17.660  0.00  0.00    +0.000 A 
ATOM      4  C   UNL     1       6.281   5.441  16.590  0.00  0.00    +0.000 A 
ATOM      5  C   UNL     1       7.041   4.406  17.192  0.00  0.00    +0.000 A 
ATOM      6  N   UNL     1       6.809   4.329  18.508  0.00  0.00    +0.000 NA
ATOM      7  N   UNL     1       5.729   5.139  18.628  0.00  0.00    +0.000 N 
ATOM      8  C   UNL     1       4.551   4.774  19.290  0.00  0.00    +0.000 A 
ATOM      9  O   UNL     1       4.519   3.906  20.156  0.00  0.00    +0.000 OA
ATOM     10  C   UNL     1       3.350   5.500  18.760  0.00  0.00    +0.000 A 
ATOM     11  H   UNL     1       5.092   8.063  18.057  0.00  0.00    +0.000 HD
ENDROOT
BRANCH   1  14
ATOM     12  N   UNL     1       0.950   9.033  19.396  0.00  0.00    +0.000 N 
ATOM     13  C   UNL     1       1.837   8.044  19.748  0.00  0.00    +0.000 A 
ATOM     14  C   UNL     1       2.569   7.792  18.615  0.00  0.00    +0.000 A 
ATOM     15  C   UNL     1       2.028   8.650  17.635  0.00  0.00    +0.000 A 
ATOM     16  N   UNL     1       1.047   9.421  18.118  0.00  0.00    +0.000 NA
BRANCH  12  17
ATOM     17  C   UNL     1      -0.096   9.620  20.213  0.00  0.00    +0.000 C 
BRANCH  17  19
ATOM     18  C   UNL     1      -0.120  11.707  21.650  0.00  0.00    +0.000 C 
ATOM     19  C   UNL     1       0.409  10.279  21.504  0.00  0.00    +0.000 C 
ATOM     20  C   UNL     1      -0.011   9.432  22.702  0.00  0.00    +0.000 C 
ENDBRANCH  17  19
ENDBRANCH  12  17
ENDBRANCH   1  14
BRANCH  10  21
ATOM     21  C   UNL     1       2.191   4.692  18.201  0.00  0.00    +0.000 C 
ATOM     22  C   UNL     1       2.664   3.605  17.207  0.00  0.00    +0.000 C 
ATOM     23  C   UNL     1       1.283   4.067  19.245  0.00  0.00    +0.000 C 
ENDBRANCH  10  21
BRANCH   4  24
ATOM     24  C   UNL     1       5.910   5.549  15.218  0.00  0.00    +0.000 C 
ATOM     25  N   UNL     1       5.682   5.495  14.079  0.00  0.00    +0.000 NA
ENDBRANCH   4  24
TORSDOF 5
ENDMDL
MODEL 9
REMARK VINA RESULT:      -6.6      0.944      1.434
REMARK  Name = 
REMARK  9 active torsions:
REMARK  status: ('A' for Active; 'I' for Inactive)
REMARK    1  A    between atoms: C_1  and  C_2
REMARK    2  A    between atoms: C_2  and  C_3
REMARK    3  A    between atoms: C_2  and  C_4
REMARK    4  A    between atoms: C_4  and  N_5
REMARK    5  A    between atoms: C_7  and  C_8
REMARK    6  A    between atoms: C_11  and  C_12
REMARK    7  A    between atoms: C_19  and  C_20
REMARK    8  A    between atoms: C_20  and  C_21
REMARK    9  A    between atoms: C_20  and  C_22
REMARK                            x       y       z     vdW  Elec       q    Type
REMARK                         _______ _______ _______ _____ _____    ______ ____
ROOT
ATOM      1  C   UNL     1       2.679   5.934  18.450  0.00  0.00    +0.000 A 
ATOM      2  N   UNL     1       1.816   4.897  18.851  0.00  0.00    +0.000 N 
ATOM      3  C   UNL     1       2.210   3.611  18.636  0.00  0.00    +0.000 A 
ATOM      4  C   UNL     1       2.605   2.559  19.449  0.00  0.00    +0.000 A 
ATOM      5  C   UNL     1       3.086   1.576  18.548  0.00  0.00    +0.000 A 
ATOM      6  N   UNL     1       3.185   2.058  17.303  0.00  0.00    +0.000 NA
ATOM      7  N   UNL     1       3.010   3.384  17.525  0.00  0.00    +0.000 N 
ATOM      8  C   UNL     1       3.869   4.375  17.035  0.00  0.00    +0.000 A 
ATOM      9  O   UNL     1       4.581   4.207  16.051  0.00  0.00    +0.000 OA
ATOM     10  C   UNL     1       3.869   5.605  17.892  0.00  0.00    +0.000 A 
ATOM     11  H   UNL     1       0.831   5.154  18.706  0.00  0.00    +0.000 HD
ENDROOT
BRANCH   1  14
ATOM     12  N   UNL     1       1.981   9.457  18.348  0.00  0.00    +0.000 N 
ATOM     13  C   UNL     1       2.403   8.335  17.677  0.00  0.00    +0.000 A 
ATOM     14  C   UNL     1       2.281   7.306  18.576  0.00  0.00    +0.000 A 
ATOM     15  C   UNL     1       1.814   7.913  19.761  0.00  0.00    +0.000 A 
ATOM     16  N   UNL     1       1.615   9.228  19.615  0.00  0.00    +0.000 NA
BRANCH  12  17
ATOM     17  C   UNL     1       1.969  10.828  17.868  0.00  0.00    +0.000 C 
BRANCH  17  19
ATOM     18  C   UNL     1       2.415  13.081  18.938  0.00  0.00    +0.000 C 
ATOM     19  C   UNL     1       1.502  11.854  18.909  0.00  0.00    +0.000 C 
ATOM     20  C   UNL     1       0.065  12.269  18.602  0.00  0.00    +0.000 C 
ENDBRANCH  17  19
ENDBRANCH  12  17
ENDBRANCH   1  14
BRANCH  10  21
ATOM     21  C   UNL     1       5.179   6.074  18.503  0.00  0.00    +0.000 C 
ATOM     22  C   UNL     1       5.901   4.945  19.274  0.00  0.00    +0.000 C 
ATOM     23  C   UNL     1       6.146   6.722  17.527  0.00  0.00    +0.000 C 
ENDBRANCH  10  21
BRANCH   4  24
ATOM     24  C   UNL     1       2.783   2.589  20.864  0.00  0.00    +0.000 C 
ATOM     25  N   UNL     1       2.787   2.538  22.025  0.00  0.00    +0.000 NA
ENDBRANCH   4  24
TORSDOF 5
ENDMDL
