MODEL 1
REMARK VINA RESULT:      -8.7      0.000      0.000
REMARK  Name = 
REMARK  7 active torsions:
REMARK  status: ('A' for Active; 'I' for Inactive)
REMARK    1  A    between atoms: C_1  and  O_2
REMARK    2  A    between atoms: O_2  and  C_3
REMARK    3  A    between atoms: C_9  and  C_10
REMARK    4  A    between atoms: N_12  and  C_13
REMARK    5  A    between atoms: N_21  and  N_22
REMARK    6  A    between atoms: N_22  and  S_23
REMARK    7  A    between atoms: S_23  and  C_26
REMARK                            x       y       z     vdW  Elec       q    Type
REMARK                         _______ _______ _______ _____ _____    ______ ____
ROOT
ATOM      1  C   UNL     1      -0.026   9.483  21.083  0.00  0.00    +0.000 A 
ATOM      2  C   UNL     1      -0.660  10.690  20.767  0.00  0.00    +0.000 A 
ATOM      3  C   UNL     1      -0.364  11.366  19.583  0.00  0.00    +0.000 A 
ATOM      4  C   UNL     1       0.566  10.833  18.691  0.00  0.00    +0.000 A 
ATOM      5  C   UNL     1       1.186   9.613  18.982  0.00  0.00    +0.000 A 
ATOM      6  C   UNL     1       2.126   9.009  18.057  0.00  0.00    +0.000 A 
ATOM      7  C   UNL     1       2.680   7.809  18.301  0.00  0.00    +0.000 A 
ATOM      8  C   UNL     1       2.375   7.089  19.546  0.00  0.00    +0.000 A 
ATOM      9  N   UNL     1       2.919   5.943  19.825  0.00  0.00    +0.000 NA
ATOM     10  O   UNL     1       1.485   7.690  20.422  0.00  0.00    +0.000 OA
ATOM     11  C   UNL     1       0.885   8.945  20.169  0.00  0.00    +0.000 A 
ENDROOT
BRANCH   7  12
ATOM     12  C   UNL     1       3.613   7.299  17.249  0.00  0.00    +0.000 C 
ATOM     13  O   UNL     1       3.760   7.961  16.229  0.00  0.00    +0.000 OA
ATOM     14  N   UNL     1       4.218   6.079  17.488  0.00  0.00    +0.000 N 
ATOM     15  H   UNL     1       3.922   5.527  18.291  0.00  0.00    +0.000 HD
BRANCH  14  16
ATOM     16  C   UNL     1       5.172   5.469  16.632  0.00  0.00    +0.000 A 
ATOM     17  C   UNL     1       4.802   4.502  15.695  0.00  0.00    +0.000 A 
ATOM     18  C   UNL     1       5.745   3.895  14.865  0.00  0.00    +0.000 A 
ATOM     19  C   UNL     1       7.078   4.277  14.933  0.00  0.00    +0.000 A 
ATOM     20  C   UNL     1       7.472   5.251  15.847  0.00  0.00    +0.000 A 
ATOM     21  C   UNL     1       6.528   5.830  16.704  0.00  0.00    +0.000 A 
ATOM     22 CL   UNL     1       7.121   6.891  17.922  0.00  0.00    +0.000 Cl
ENDBRANCH  14  16
ENDBRANCH   7  12
BRANCH   1  24
ATOM     23  C   UNL     1      -0.036   9.616  23.447  0.00  0.00    +0.000 C 
ATOM     24  O   UNL     1      -0.425   8.925  22.268  0.00  0.00    +0.000 OA
ENDBRANCH   1  24
BRANCH   9  25
ATOM     25  N   UNL     1       2.560   5.323  21.059  0.00  0.00    +0.000 N 
ATOM     26  H   UNL     1       2.775   5.711  21.976  0.00  0.00    +0.000 HD
BRANCH  25  27
ATOM     27  S   UNL     1       1.730   3.845  21.077  0.00  0.00    +0.000 S 
ATOM     28  O   UNL     1       2.035   3.214  22.343  0.00  0.00    +0.000 OA
ATOM     29  O   UNL     1       0.367   4.082  20.662  0.00  0.00    +0.000 OA
BRANCH  27  30
ATOM     30  C   UNL     1       2.576   2.929  19.809  0.00  0.00    +0.000 A 
ATOM     31  C   UNL     1       1.994   2.824  18.543  0.00  0.00    +0.000 A 
ATOM     32  C   UNL     1       2.634   2.077  17.555  0.00  0.00    +0.000 A 
ATOM     33  C   UNL     1       3.853   1.452  17.831  0.00  0.00    +0.000 A 
ATOM     34  C   UNL     1       4.444   1.587  19.086  0.00  0.00    +0.000 A 
ATOM     35  C   UNL     1       3.810   2.333  20.079  0.00  0.00    +0.000 A 
ENDBRANCH  27  30
ENDBRANCH  25  27
ENDBRANCH   9  25
TORSDOF 6
ENDMDL
MODEL 2
REMARK VINA RESULT:      -7.7      6.220     11.249
REMARK  Name = 
REMARK  7 active torsions:
REMARK  status: ('A' for Active; 'I' for Inactive)
REMARK    1  A    between atoms: C_1  and  O_2
REMARK    2  A    between atoms: O_2  and  C_3
REMARK    3  A    between atoms: C_9  and  C_10
REMARK    4  A    between atoms: N_12  and  C_13
REMARK    5  A    between atoms: N_21  and  N_22
REMARK    6  A    between atoms: N_22  and  S_23
REMARK    7  A    between atoms: S_23  and  C_26
REMARK                            x       y       z     vdW  Elec       q    Type
REMARK                         _______ _______ _______ _____ _____    ______ ____
ROOT
ATOM      1  C   UNL     1       0.874   9.156  19.758  0.00  0.00    +0.000 A 
ATOM      2  C   UNL     1       1.642   8.440  20.683  0.00  0.00    +0.000 A 
ATOM      3  C   UNL     1       1.511   8.671  22.053  0.00  0.00    +0.000 A 
ATOM      4  C   UNL     1       0.595   9.616  22.516  0.00  0.00    +0.000 A 
ATOM      5  C   UNL     1      -0.198  10.318  21.602  0.00  0.00    +0.000 A 
ATOM      6  C   UNL     1      -1.190  11.277  22.050  0.00  0.00    +0.000 A 
ATOM      7  C   UNL     1      -1.998  11.910  21.182  0.00  0.00    +0.000 A 
ATOM      8  C   UNL     1      -1.867  11.674  19.737  0.00  0.00    +0.000 A 
ATOM      9  N   UNL     1      -2.612  12.294  18.871  0.00  0.00    +0.000 NA
ATOM     10  O   UNL     1      -0.905  10.764  19.329  0.00  0.00    +0.000 OA
ATOM     11  C   UNL     1      -0.059  10.081  20.233  0.00  0.00    +0.000 A 
ENDROOT
BRANCH   7  12
ATOM     12  C   UNL     1      -2.988  12.853  21.788  0.00  0.00    +0.000 C 
ATOM     13  O   UNL     1      -2.577  13.904  22.264  0.00  0.00    +0.000 OA
ATOM     14  N   UNL     1      -4.309  12.446  21.806  0.00  0.00    +0.000 N 
ATOM     15  H   UNL     1      -4.540  11.494  21.526  0.00  0.00    +0.000 HD
BRANCH  14  16
ATOM     16  C   UNL     1      -5.390  13.231  22.286  0.00  0.00    +0.000 A 
ATOM     17  C   UNL     1      -6.122  14.065  21.437  0.00  0.00    +0.000 A 
ATOM     18  C   UNL     1      -7.175  14.846  21.914  0.00  0.00    +0.000 A 
ATOM     19  C   UNL     1      -7.540  14.775  23.251  0.00  0.00    +0.000 A 
ATOM     20  C   UNL     1      -6.838  13.940  24.117  0.00  0.00    +0.000 A 
ATOM     21  C   UNL     1      -5.758  13.188  23.641  0.00  0.00    +0.000 A 
ATOM     22 CL   UNL     1      -4.831  12.322  24.804  0.00  0.00    +0.000 Cl
ENDBRANCH  14  16
ENDBRANCH   7  12
BRANCH   1  24
ATOM     23  C   UNL     1       2.223   9.419  17.830  0.00  0.00    +0.000 C 
ATOM     24  O   UNL     1       1.097   8.814  18.450  0.00  0.00    +0.000 OA
ENDBRANCH   1  24
BRANCH   9  25
ATOM     25  N   UNL     1      -2.408  11.999  17.490  0.00  0.00    +0.000 N 
ATOM     26  H   UNL     1      -1.634  12.362  16.938  0.00  0.00    +0.000 HD
BRANCH  25  27
ATOM     27  S   UNL     1      -3.485  10.992  16.652  0.00  0.00    +0.000 S 
ATOM     28  O   UNL     1      -3.489  11.446  15.278  0.00  0.00    +0.000 OA
ATOM     29  O   UNL     1      -3.187   9.621  16.993  0.00  0.00    +0.000 OA
BRANCH  27  30
ATOM     30  C   UNL     1      -5.049  11.447  17.367  0.00  0.00    +0.000 A 
ATOM     31  C   UNL     1      -5.594  10.645  18.373  0.00  0.00    +0.000 A 
ATOM     32  C   UNL     1      -6.838  10.974  18.912  0.00  0.00    +0.000 A 
ATOM     33  C   UNL     1      -7.520  12.104  18.455  0.00  0.00    +0.000 A 
ATOM     34  C   UNL     1      -6.956  12.917  17.474  0.00  0.00    +0.000 A 
ATOM     35  C   UNL     1      -5.713  12.595  16.931  0.00  0.00    +0.000 A 
ENDBRANCH  27  30
ENDBRANCH  25  27
ENDBRANCH   9  25
TORSDOF 6
ENDMDL
MODEL 3
REMARK VINA RESULT:      -7.3      4.787     10.397
REMARK  Name = 
REMARK  7 active torsions:
REMARK  status: ('A' for Active; 'I' for Inactive)
REMARK    1  A    between atoms: C_1  and  O_2
REMARK    2  A    between atoms: O_2  and  C_3
REMARK    3  A    between atoms: C_9  and  C_10
REMARK    4  A    between atoms: N_12  and  C_13
REMARK    5  A    between atoms: N_21  and  N_22
REMARK    6  A    between atoms: N_22  and  S_23
REMARK    7  A    between atoms: S_23  and  C_26
REMARK                            x       y       z     vdW  Elec       q    Type
REMARK                         _______ _______ _______ _____ _____    ______ ____
ROOT
ATOM      1  C   UNL     1       2.472   7.489  18.683  0.00  0.00    +0.000 A 
ATOM      2  C   UNL     1       2.539   6.104  18.868  0.00  0.00    +0.000 A 
ATOM      3  C   UNL     1       1.982   5.505  19.999  0.00  0.00    +0.000 A 
ATOM      4  C   UNL     1       1.338   6.289  20.956  0.00  0.00    +0.000 A 
ATOM      5  C   UNL     1       1.241   7.672  20.768  0.00  0.00    +0.000 A 
ATOM      6  C   UNL     1       0.541   8.512  21.722  0.00  0.00    +0.000 A 
ATOM      7  C   UNL     1       0.390   9.832  21.518  0.00  0.00    +0.000 A 
ATOM      8  C   UNL     1       0.973  10.471  20.330  0.00  0.00    +0.000 A 
ATOM      9  N   UNL     1       0.872  11.750  20.122  0.00  0.00    +0.000 NA
ATOM     10  O   UNL     1       1.649   9.654  19.439  0.00  0.00    +0.000 OA
ATOM     11  C   UNL     1       1.801   8.262  19.634  0.00  0.00    +0.000 A 
ENDROOT
BRANCH   7  12
ATOM     12  C   UNL     1      -0.373  10.567  22.573  0.00  0.00    +0.000 C 
ATOM     13  O   UNL     1      -0.252  10.209  23.738  0.00  0.00    +0.000 OA
ATOM     14  N   UNL     1      -1.205  11.586  22.147  0.00  0.00    +0.000 N 
ATOM     15  H   UNL     1      -1.360  11.717  21.149  0.00  0.00    +0.000 HD
BRANCH  14  16
ATOM     16  C   UNL     1      -1.958  12.427  23.008  0.00  0.00    +0.000 A 
ATOM     17  C   UNL     1      -3.174  12.012  23.555  0.00  0.00    +0.000 A 
ATOM     18  C   UNL     1      -3.919  12.847  24.389  0.00  0.00    +0.000 A 
ATOM     19  C   UNL     1      -3.436  14.104  24.723  0.00  0.00    +0.000 A 
ATOM     20  C   UNL     1      -2.219  14.538  24.204  0.00  0.00    +0.000 A 
ATOM     21  C   UNL     1      -1.494  13.711  23.337  0.00  0.00    +0.000 A 
ATOM     22 CL   UNL     1      -0.093  14.386  22.599  0.00  0.00    +0.000 Cl
ENDBRANCH  14  16
ENDBRANCH   7  12
BRANCH   1  24
ATOM     23  C   UNL     1       4.232   7.267  17.115  0.00  0.00    +0.000 C 
ATOM     24  O   UNL     1       3.046   7.935  17.521  0.00  0.00    +0.000 OA
ENDBRANCH   1  24
BRANCH   9  25
ATOM     25  N   UNL     1       1.473  12.278  18.940  0.00  0.00    +0.000 N 
ATOM     26  H   UNL     1       1.259  11.955  17.999  0.00  0.00    +0.000 HD
BRANCH  25  27
ATOM     27  S   UNL     1       2.625  13.518  19.035  0.00  0.00    +0.000 S 
ATOM     28  O   UNL     1       3.051  13.582  20.416  0.00  0.00    +0.000 OA
ATOM     29  O   UNL     1       3.574  13.342  17.960  0.00  0.00    +0.000 OA
BRANCH  27  30
ATOM     30  C   UNL     1       1.641  14.964  18.715  0.00  0.00    +0.000 A 
ATOM     31  C   UNL     1       2.272  16.132  18.279  0.00  0.00    +0.000 A 
ATOM     32  C   UNL     1       1.511  17.281  18.063  0.00  0.00    +0.000 A 
ATOM     33  C   UNL     1       0.129  17.253  18.268  0.00  0.00    +0.000 A 
ATOM     34  C   UNL     1      -0.498  16.076  18.671  0.00  0.00    +0.000 A 
ATOM     35  C   UNL     1       0.256  14.924  18.890  0.00  0.00    +0.000 A 
ENDBRANCH  27  30
ENDBRANCH  25  27
ENDBRANCH   9  25
TORSDOF 6
ENDMDL
MODEL 4
REMARK VINA RESULT:      -7.3      5.220      8.719
REMARK  Name = 
REMARK  7 active torsions:
REMARK  status: ('A' for Active; 'I' for Inactive)
REMARK    1  A    between atoms: C_1  and  O_2
REMARK    2  A    between atoms: O_2  and  C_3
REMARK    3  A    between atoms: C_9  and  C_10
REMARK    4  A    between atoms: N_12  and  C_13
REMARK    5  A    between atoms: N_21  and  N_22
REMARK    6  A    between atoms: N_22  and  S_23
REMARK    7  A    between atoms: S_23  and  C_26
REMARK                            x       y       z     vdW  Elec       q    Type
REMARK                         _______ _______ _______ _____ _____    ______ ____
ROOT
ATOM      1  C   UNL     1      -3.874  14.495  21.731  0.00  0.00    +0.000 A 
ATOM      2  C   UNL     1      -3.989  15.083  22.996  0.00  0.00    +0.000 A 
ATOM      3  C   UNL     1      -3.148  14.701  24.042  0.00  0.00    +0.000 A 
ATOM      4  C   UNL     1      -2.169  13.731  23.829  0.00  0.00    +0.000 A 
ATOM      5  C   UNL     1      -2.026  13.157  22.562  0.00  0.00    +0.000 A 
ATOM      6  C   UNL     1      -0.990  12.176  22.294  0.00  0.00    +0.000 A 
ATOM      7  C   UNL     1      -0.807  11.665  21.064  0.00  0.00    +0.000 A 
ATOM      8  C   UNL     1      -1.689  12.060  19.957  0.00  0.00    +0.000 A 
ATOM      9  N   UNL     1      -1.558  11.560  18.765  0.00  0.00    +0.000 NA
ATOM     10  O   UNL     1      -2.680  12.988  20.237  0.00  0.00    +0.000 OA
ATOM     11  C   UNL     1      -2.873  13.544  21.522  0.00  0.00    +0.000 A 
ENDROOT
BRANCH   7  12
ATOM     12  C   UNL     1       0.312  10.682  20.931  0.00  0.00    +0.000 C 
ATOM     13  O   UNL     1       1.369  10.921  21.501  0.00  0.00    +0.000 OA
ATOM     14  N   UNL     1       0.084   9.580  20.128  0.00  0.00    +0.000 N 
ATOM     15  H   UNL     1      -0.769   9.538  19.572  0.00  0.00    +0.000 HD
BRANCH  14  16
ATOM     16  C   UNL     1       1.006   8.518  19.932  0.00  0.00    +0.000 A 
ATOM     17  C   UNL     1       1.110   7.463  20.840  0.00  0.00    +0.000 A 
ATOM     18  C   UNL     1       2.027   6.428  20.652  0.00  0.00    +0.000 A 
ATOM     19  C   UNL     1       2.833   6.413  19.522  0.00  0.00    +0.000 A 
ATOM     20  C   UNL     1       2.739   7.445  18.592  0.00  0.00    +0.000 A 
ATOM     21  C   UNL     1       1.845   8.500  18.805  0.00  0.00    +0.000 A 
ATOM     22 CL   UNL     1       1.915   9.823  17.706  0.00  0.00    +0.000 Cl
ENDBRANCH  14  16
ENDBRANCH   7  12
BRANCH   1  24
ATOM     23  C   UNL     1      -6.133  14.781  21.081  0.00  0.00    +0.000 C 
ATOM     24  O   UNL     1      -4.755  14.977  20.799  0.00  0.00    +0.000 OA
ENDBRANCH   1  24
BRANCH   9  25
ATOM     25  N   UNL     1      -2.463  12.005  17.756  0.00  0.00    +0.000 N 
ATOM     26  H   UNL     1      -2.512  12.964  17.417  0.00  0.00    +0.000 HD
BRANCH  25  27
ATOM     27  S   UNL     1      -3.557  10.928  17.037  0.00  0.00    +0.000 S 
ATOM     28  O   UNL     1      -3.497  11.167  15.612  0.00  0.00    +0.000 OA
ATOM     29  O   UNL     1      -3.333   9.613  17.591  0.00  0.00    +0.000 OA
BRANCH  27  30
ATOM     30  C   UNL     1      -5.121  11.547  17.615  0.00  0.00    +0.000 A 
ATOM     31  C   UNL     1      -5.706  10.967  18.743  0.00  0.00    +0.000 A 
ATOM     32  C   UNL     1      -6.950  11.423  19.180  0.00  0.00    +0.000 A 
ATOM     33  C   UNL     1      -7.593  12.460  18.499  0.00  0.00    +0.000 A 
ATOM     34  C   UNL     1      -6.989  13.055  17.394  0.00  0.00    +0.000 A 
ATOM     35  C   UNL     1      -5.746  12.606  16.951  0.00  0.00    +0.000 A 
ENDBRANCH  27  30
ENDBRANCH  25  27
ENDBRANCH   9  25
TORSDOF 6
ENDMDL
MODEL 5
REMARK VINA RESULT:      -7.3      4.486      8.035
REMARK  Name = 
REMARK  7 active torsions:
REMARK  status: ('A' for Active; 'I' for Inactive)
REMARK    1  A    between atoms: C_1  and  O_2
REMARK    2  A    between atoms: O_2  and  C_3
REMARK    3  A    between atoms: C_9  and  C_10
REMARK    4  A    between atoms: N_12  and  C_13
REMARK    5  A    between atoms: N_21  and  N_22
REMARK    6  A    between atoms: N_22  and  S_23
REMARK    7  A    between atoms: S_23  and  C_26
REMARK                            x       y       z     vdW  Elec       q    Type
REMARK                         _______ _______ _______ _____ _____    ______ ____
ROOT
ATOM      1  C   UNL     1      -3.519  12.171  19.201  0.00  0.00    +0.000 A 
ATOM      2  C   UNL     1      -4.657  11.678  18.553  0.00  0.00    +0.000 A 
ATOM      3  C   UNL     1      -4.564  10.617  17.651  0.00  0.00    +0.000 A 
ATOM      4  C   UNL     1      -3.327  10.026  17.396  0.00  0.00    +0.000 A 
ATOM      5  C   UNL     1      -2.186  10.492  18.060  0.00  0.00    +0.000 A 
ATOM      6  C   UNL     1      -0.891   9.873  17.851  0.00  0.00    +0.000 A 
ATOM      7  C   UNL     1       0.198  10.275  18.529  0.00  0.00    +0.000 A 
ATOM      8  C   UNL     1       0.110  11.392  19.481  0.00  0.00    +0.000 A 
ATOM      9  N   UNL     1       1.150  11.824  20.128  0.00  0.00    +0.000 NA
ATOM     10  O   UNL     1      -1.134  11.978  19.656  0.00  0.00    +0.000 OA
ATOM     11  C   UNL     1      -2.289  11.554  18.959  0.00  0.00    +0.000 A 
ENDROOT
BRANCH   7  12
ATOM     12  C   UNL     1       1.460   9.532  18.228  0.00  0.00    +0.000 C 
ATOM     13  O   UNL     1       2.350  10.113  17.621  0.00  0.00    +0.000 OA
ATOM     14  N   UNL     1       1.516   8.209  18.626  0.00  0.00    +0.000 N 
ATOM     15  H   UNL     1       0.675   7.763  18.990  0.00  0.00    +0.000 HD
BRANCH  14  16
ATOM     16  C   UNL     1       2.650   7.367  18.478  0.00  0.00    +0.000 A 
ATOM     17  C   UNL     1       3.556   7.540  17.429  0.00  0.00    +0.000 A 
ATOM     18  C   UNL     1       4.662   6.702  17.279  0.00  0.00    +0.000 A 
ATOM     19  C   UNL     1       4.901   5.696  18.204  0.00  0.00    +0.000 A 
ATOM     20  C   UNL     1       4.022   5.512  19.269  0.00  0.00    +0.000 A 
ATOM     21  C   UNL     1       2.894   6.331  19.394  0.00  0.00    +0.000 A 
ATOM     22 CL   UNL     1       1.765   5.927  20.629  0.00  0.00    +0.000 Cl
ENDBRANCH  14  16
ENDBRANCH   7  12
BRANCH   1  24
ATOM     23  C   UNL     1      -4.598  12.903  21.178  0.00  0.00    +0.000 C 
ATOM     24  O   UNL     1      -3.763  13.203  20.069  0.00  0.00    +0.000 OA
ENDBRANCH   1  24
BRANCH   9  25
ATOM     25  N   UNL     1       0.964  12.915  21.029  0.00  0.00    +0.000 N 
ATOM     26  H   UNL     1       0.189  12.987  21.684  0.00  0.00    +0.000 HD
BRANCH  25  27
ATOM     27  S   UNL     1       2.060  14.208  21.061  0.00  0.00    +0.000 S 
ATOM     28  O   UNL     1       1.984  14.782  22.387  0.00  0.00    +0.000 OA
ATOM     29  O   UNL     1       3.315  13.757  20.505  0.00  0.00    +0.000 OA
BRANCH  27  30
ATOM     30  C   UNL     1       1.304  15.362  19.938  0.00  0.00    +0.000 A 
ATOM     31  C   UNL     1       2.104  16.318  19.306  0.00  0.00    +0.000 A 
ATOM     32  C   UNL     1       1.512  17.250  18.454  0.00  0.00    +0.000 A 
ATOM     33  C   UNL     1       0.134  17.214  18.227  0.00  0.00    +0.000 A 
ATOM     34  C   UNL     1      -0.653  16.238  18.835  0.00  0.00    +0.000 A 
ATOM     35  C   UNL     1      -0.069  15.303  19.689  0.00  0.00    +0.000 A 
ENDBRANCH  27  30
ENDBRANCH  25  27
ENDBRANCH   9  25
TORSDOF 6
ENDMDL
MODEL 6
REMARK VINA RESULT:      -7.3      4.288      7.774
REMARK  Name = 
REMARK  7 active torsions:
REMARK  status: ('A' for Active; 'I' for Inactive)
REMARK    1  A    between atoms: C_1  and  O_2
REMARK    2  A    between atoms: O_2  and  C_3
REMARK    3  A    between atoms: C_9  and  C_10
REMARK    4  A    between atoms: N_12  and  C_13
REMARK    5  A    between atoms: N_21  and  N_22
REMARK    6  A    between atoms: N_22  and  S_23
REMARK    7  A    between atoms: S_23  and  C_26
REMARK                            x       y       z     vdW  Elec       q    Type
REMARK                         _______ _______ _______ _____ _____    ______ ____
ROOT
ATOM      1  C   UNL     1      -0.469  11.656  21.987  0.00  0.00    +0.000 A 
ATOM      2  C   UNL     1      -0.990  11.013  23.115  0.00  0.00    +0.000 A 
ATOM      3  C   UNL     1      -0.881   9.630  23.265  0.00  0.00    +0.000 A 
ATOM      4  C   UNL     1      -0.234   8.872  22.289  0.00  0.00    +0.000 A 
ATOM      5  C   UNL     1       0.315   9.507  21.170  0.00  0.00    +0.000 A 
ATOM      6  C   UNL     1       1.031   8.756  20.156  0.00  0.00    +0.000 A 
ATOM      7  C   UNL     1       1.614   9.366  19.110  0.00  0.00    +0.000 A 
ATOM      8  C   UNL     1       1.504  10.822  18.943  0.00  0.00    +0.000 A 
ATOM      9  N   UNL     1       2.029  11.436  17.925  0.00  0.00    +0.000 NA
ATOM     10  O   UNL     1       0.804  11.519  19.915  0.00  0.00    +0.000 OA
ATOM     11  C   UNL     1       0.200  10.891  21.028  0.00  0.00    +0.000 A 
ENDROOT
BRANCH   7  12
ATOM     12  C   UNL     1       2.337   8.468  18.157  0.00  0.00    +0.000 C 
ATOM     13  O   UNL     1       2.424   8.809  16.984  0.00  0.00    +0.000 OA
ATOM     14  N   UNL     1       2.826   7.280  18.667  0.00  0.00    +0.000 N 
ATOM     15  H   UNL     1       2.579   7.007  19.617  0.00  0.00    +0.000 HD
BRANCH  14  16
ATOM     16  C   UNL     1       3.586   6.335  17.928  0.00  0.00    +0.000 A 
ATOM     17  C   UNL     1       4.792   6.684  17.316  0.00  0.00    +0.000 A 
ATOM     18  C   UNL     1       5.529   5.757  16.579  0.00  0.00    +0.000 A 
ATOM     19  C   UNL     1       5.088   4.445  16.475  0.00  0.00    +0.000 A 
ATOM     20  C   UNL     1       3.896   4.066  17.088  0.00  0.00    +0.000 A 
ATOM     21  C   UNL     1       3.141   5.009  17.794  0.00  0.00    +0.000 A 
ATOM     22 CL   UNL     1       1.598   4.508  18.370  0.00  0.00    +0.000 Cl
ENDBRANCH  14  16
ENDBRANCH   7  12
BRANCH   1  24
ATOM     23  C   UNL     1      -1.129  13.590  23.183  0.00  0.00    +0.000 C 
ATOM     24  O   UNL     1      -0.636  13.015  21.981  0.00  0.00    +0.000 OA
ENDBRANCH   1  24
BRANCH   9  25
ATOM     25  N   UNL     1       1.867  12.852  17.851  0.00  0.00    +0.000 N 
ATOM     26  H   UNL     1       1.092  13.313  17.379  0.00  0.00    +0.000 HD
BRANCH  25  27
ATOM     27  S   UNL     1       2.999  13.892  18.565  0.00  0.00    +0.000 S 
ATOM     28  O   UNL     1       2.872  13.720  19.997  0.00  0.00    +0.000 OA
ATOM     29  O   UNL     1       4.266  13.719  17.894  0.00  0.00    +0.000 OA
BRANCH  27  30
ATOM     30  C   UNL     1       2.338  15.493  18.162  0.00  0.00    +0.000 A 
ATOM     31  C   UNL     1       3.003  16.286  17.223  0.00  0.00    +0.000 A 
ATOM     32  C   UNL     1       2.511  17.557  16.929  0.00  0.00    +0.000 A 
ATOM     33  C   UNL     1       1.355  18.023  17.561  0.00  0.00    +0.000 A 
ATOM     34  C   UNL     1       0.678  17.214  18.472  0.00  0.00    +0.000 A 
ATOM     35  C   UNL     1       1.164  15.942  18.771  0.00  0.00    +0.000 A 
ENDBRANCH  27  30
ENDBRANCH  25  27
ENDBRANCH   9  25
TORSDOF 6
ENDMDL
MODEL 7
REMARK VINA RESULT:      -7.2      4.773      7.851
REMARK  Name = 
REMARK  7 active torsions:
REMARK  status: ('A' for Active; 'I' for Inactive)
REMARK    1  A    between atoms: C_1  and  O_2
REMARK    2  A    between atoms: O_2  and  C_3
REMARK    3  A    between atoms: C_9  and  C_10
REMARK    4  A    between atoms: N_12  and  C_13
REMARK    5  A    between atoms: N_21  and  N_22
REMARK    6  A    between atoms: N_22  and  S_23
REMARK    7  A    between atoms: S_23  and  C_26
REMARK                            x       y       z     vdW  Elec       q    Type
REMARK                         _______ _______ _______ _____ _____    ______ ____
ROOT
ATOM      1  C   UNL     1      -3.160  12.754  21.393  0.00  0.00    +0.000 A 
ATOM      2  C   UNL     1      -3.116  12.932  22.780  0.00  0.00    +0.000 A 
ATOM      3  C   UNL     1      -2.084  12.380  23.540  0.00  0.00    +0.000 A 
ATOM      4  C   UNL     1      -1.072  11.651  22.916  0.00  0.00    +0.000 A 
ATOM      5  C   UNL     1      -1.091  11.490  21.526  0.00  0.00    +0.000 A 
ATOM      6  C   UNL     1      -0.033  10.774  20.839  0.00  0.00    +0.000 A 
ATOM      7  C   UNL     1      -0.011  10.666  19.499  0.00  0.00    +0.000 A 
ATOM      8  C   UNL     1      -1.094  11.243  18.690  0.00  0.00    +0.000 A 
ATOM      9  N   UNL     1      -1.119  11.129  17.396  0.00  0.00    +0.000 NA
ATOM     10  O   UNL     1      -2.102  11.912  19.367  0.00  0.00    +0.000 OA
ATOM     11  C   UNL     1      -2.128  12.044  20.775  0.00  0.00    +0.000 A 
ENDROOT
BRANCH   7  12
ATOM     12  C   UNL     1       1.152   9.920  18.927  0.00  0.00    +0.000 C 
ATOM     13  O   UNL     1       1.941  10.527  18.214  0.00  0.00    +0.000 OA
ATOM     14  N   UNL     1       1.230   8.570  19.214  0.00  0.00    +0.000 N 
ATOM     15  H   UNL     1       0.451   8.116  19.688  0.00  0.00    +0.000 HD
BRANCH  14  16
ATOM     16  C   UNL     1       2.291   7.718  18.807  0.00  0.00    +0.000 A 
ATOM     17  C   UNL     1       3.100   8.029  17.712  0.00  0.00    +0.000 A 
ATOM     18  C   UNL     1       4.132   7.182  17.307  0.00  0.00    +0.000 A 
ATOM     19  C   UNL     1       4.399   6.022  18.020  0.00  0.00    +0.000 A 
ATOM     20  C   UNL     1       3.617   5.696  19.126  0.00  0.00    +0.000 A 
ATOM     21  C   UNL     1       2.559   6.529  19.506  0.00  0.00    +0.000 A 
ATOM     22 CL   UNL     1       1.533   5.968  20.768  0.00  0.00    +0.000 Cl
ENDBRANCH  14  16
ENDBRANCH   7  12
BRANCH   1  24
ATOM     23  C   UNL     1      -4.925  14.325  21.549  0.00  0.00    +0.000 C 
ATOM     24  O   UNL     1      -4.221  13.363  20.776  0.00  0.00    +0.000 OA
ENDBRANCH   1  24
BRANCH   9  25
ATOM     25  N   UNL     1      -2.213  11.722  16.699  0.00  0.00    +0.000 N 
ATOM     26  H   UNL     1      -2.293  12.718  16.505  0.00  0.00    +0.000 HD
BRANCH  25  27
ATOM     27  S   UNL     1      -3.498  10.770  16.135  0.00  0.00    +0.000 S 
ATOM     28  O   UNL     1      -3.759  11.192  14.776  0.00  0.00    +0.000 OA
ATOM     29  O   UNL     1      -3.220   9.390  16.457  0.00  0.00    +0.000 OA
BRANCH  27  30
ATOM     30  C   UNL     1      -4.851  11.343  17.138  0.00  0.00    +0.000 A 
ATOM     31  C   UNL     1      -5.531  12.505  16.762  0.00  0.00    +0.000 A 
ATOM     32  C   UNL     1      -6.568  12.981  17.564  0.00  0.00    +0.000 A 
ATOM     33  C   UNL     1      -6.929  12.290  18.723  0.00  0.00    +0.000 A 
ATOM     34  C   UNL     1      -6.269  11.114  19.075  0.00  0.00    +0.000 A 
ATOM     35  C   UNL     1      -5.230  10.632  18.279  0.00  0.00    +0.000 A 
ENDBRANCH  27  30
ENDBRANCH  25  27
ENDBRANCH   9  25
TORSDOF 6
ENDMDL
MODEL 8
REMARK VINA RESULT:      -7.2      2.863      7.121
REMARK  Name = 
REMARK  7 active torsions:
REMARK  status: ('A' for Active; 'I' for Inactive)
REMARK    1  A    between atoms: C_1  and  O_2
REMARK    2  A    between atoms: O_2  and  C_3
REMARK    3  A    between atoms: C_9  and  C_10
REMARK    4  A    between atoms: N_12  and  C_13
REMARK    5  A    between atoms: N_21  and  N_22
REMARK    6  A    between atoms: N_22  and  S_23
REMARK    7  A    between atoms: S_23  and  C_26
REMARK                            x       y       z     vdW  Elec       q    Type
REMARK                         _______ _______ _______ _____ _____    ______ ____
ROOT
ATOM      1  C   UNL     1       2.787   3.003  19.007  0.00  0.00    +0.000 A 
ATOM      2  C   UNL     1       2.165   2.128  19.904  0.00  0.00    +0.000 A 
ATOM      3  C   UNL     1       1.388   2.613  20.956  0.00  0.00    +0.000 A 
ATOM      4  C   UNL     1       1.213   3.988  21.116  0.00  0.00    +0.000 A 
ATOM      5  C   UNL     1       1.807   4.872  20.209  0.00  0.00    +0.000 A 
ATOM      6  C   UNL     1       1.611   6.305  20.320  0.00  0.00    +0.000 A 
ATOM      7  C   UNL     1       2.128   7.158  19.418  0.00  0.00    +0.000 A 
ATOM      8  C   UNL     1       2.948   6.656  18.307  0.00  0.00    +0.000 A 
ATOM      9  N   UNL     1       3.488   7.457  17.437  0.00  0.00    +0.000 NA
ATOM     10  O   UNL     1       3.134   5.285  18.226  0.00  0.00    +0.000 OA
ATOM     11  C   UNL     1       2.584   4.377  19.160  0.00  0.00    +0.000 A 
ENDROOT
BRANCH   7  12
ATOM     12  C   UNL     1       1.825   8.604  19.646  0.00  0.00    +0.000 C 
ATOM     13  O   UNL     1       1.804   9.022  20.797  0.00  0.00    +0.000 OA
ATOM     14  N   UNL     1       1.545   9.368  18.528  0.00  0.00    +0.000 N 
ATOM     15  H   UNL     1       1.436   8.907  17.626  0.00  0.00    +0.000 HD
BRANCH  14  16
ATOM     16  C   UNL     1       1.294  10.765  18.546  0.00  0.00    +0.000 A 
ATOM     17  C   UNL     1       2.328  11.696  18.425  0.00  0.00    +0.000 A 
ATOM     18  C   UNL     1       2.079  13.068  18.456  0.00  0.00    +0.000 A 
ATOM     19  C   UNL     1       0.777  13.535  18.571  0.00  0.00    +0.000 A 
ATOM     20  C   UNL     1      -0.275  12.629  18.678  0.00  0.00    +0.000 A 
ATOM     21  C   UNL     1      -0.016  11.253  18.684  0.00  0.00    +0.000 A 
ATOM     22 CL   UNL     1      -1.346  10.206  18.998  0.00  0.00    +0.000 Cl
ENDBRANCH  14  16
ENDBRANCH   7  12
BRANCH   1  24
ATOM     23  C   UNL     1       3.936   1.061  18.291  0.00  0.00    +0.000 C 
ATOM     24  O   UNL     1       3.505   2.386  18.017  0.00  0.00    +0.000 OA
ENDBRANCH   1  24
BRANCH   9  25
ATOM     25  N   UNL     1       4.269   6.874  16.395  0.00  0.00    +0.000 N 
ATOM     26  H   UNL     1       3.941   6.746  15.440  0.00  0.00    +0.000 HD
BRANCH  25  27
ATOM     27  S   UNL     1       5.847   6.333  16.696  0.00  0.00    +0.000 S 
ATOM     28  O   UNL     1       6.693   7.506  16.697  0.00  0.00    +0.000 OA
ATOM     29  O   UNL     1       5.813   5.427  17.820  0.00  0.00    +0.000 OA
BRANCH  27  30
ATOM     30  C   UNL     1       6.213   5.415  15.217  0.00  0.00    +0.000 A 
ATOM     31  C   UNL     1       5.311   4.440  14.782  0.00  0.00    +0.000 A 
ATOM     32  C   UNL     1       5.609   3.691  13.644  0.00  0.00    +0.000 A 
ATOM     33  C   UNL     1       6.792   3.928  12.941  0.00  0.00    +0.000 A 
ATOM     34  C   UNL     1       7.672   4.925  13.361  0.00  0.00    +0.000 A 
ATOM     35  C   UNL     1       7.381   5.678  14.498  0.00  0.00    +0.000 A 
ENDBRANCH  27  30
ENDBRANCH  25  27
ENDBRANCH   9  25
TORSDOF 6
ENDMDL
MODEL 9
REMARK VINA RESULT:      -7.2      4.545      7.797
REMARK  Name = 
REMARK  7 active torsions:
REMARK  status: ('A' for Active; 'I' for Inactive)
REMARK    1  A    between atoms: C_1  and  O_2
REMARK    2  A    between atoms: O_2  and  C_3
REMARK    3  A    between atoms: C_9  and  C_10
REMARK    4  A    between atoms: N_12  and  C_13
REMARK    5  A    between atoms: N_21  and  N_22
REMARK    6  A    between atoms: N_22  and  S_23
REMARK    7  A    between atoms: S_23  and  C_26
REMARK                            x       y       z     vdW  Elec       q    Type
REMARK                         _______ _______ _______ _____ _____    ______ ____
ROOT
ATOM      1  C   UNL     1      -3.538  12.245  19.251  0.00  0.00    +0.000 A 
ATOM      2  C   UNL     1      -4.689  11.704  18.667  0.00  0.00    +0.000 A 
ATOM      3  C   UNL     1      -4.609  10.599  17.818  0.00  0.00    +0.000 A 
ATOM      4  C   UNL     1      -3.372  10.012  17.554  0.00  0.00    +0.000 A 
ATOM      5  C   UNL     1      -2.218  10.527  18.154  0.00  0.00    +0.000 A 
ATOM      6  C   UNL     1      -0.920   9.916  17.935  0.00  0.00    +0.000 A 
ATOM      7  C   UNL     1       0.184  10.367  18.556  0.00  0.00    +0.000 A 
ATOM      8  C   UNL     1       0.109  11.531  19.451  0.00  0.00    +0.000 A 
ATOM      9  N   UNL     1       1.163  12.010  20.040  0.00  0.00    +0.000 NA
ATOM     10  O   UNL     1      -1.137  12.108  19.636  0.00  0.00    +0.000 OA
ATOM     11  C   UNL     1      -2.307  11.634  19.000  0.00  0.00    +0.000 A 
ENDROOT
BRANCH   7  12
ATOM     12  C   UNL     1       1.446   9.626  18.253  0.00  0.00    +0.000 C 
ATOM     13  O   UNL     1       2.343  10.216  17.664  0.00  0.00    +0.000 OA
ATOM     14  N   UNL     1       1.495   8.296  18.627  0.00  0.00    +0.000 N 
ATOM     15  H   UNL     1       0.650   7.846  18.975  0.00  0.00    +0.000 HD
BRANCH  14  16
ATOM     16  C   UNL     1       2.628   7.454  18.473  0.00  0.00    +0.000 A 
ATOM     17  C   UNL     1       3.528   7.624  17.419  0.00  0.00    +0.000 A 
ATOM     18  C   UNL     1       4.633   6.787  17.263  0.00  0.00    +0.000 A 
ATOM     19  C   UNL     1       4.878   5.782  18.189  0.00  0.00    +0.000 A 
ATOM     20  C   UNL     1       4.005   5.600  19.259  0.00  0.00    +0.000 A 
ATOM     21  C   UNL     1       2.878   6.419  19.389  0.00  0.00    +0.000 A 
ATOM     22 CL   UNL     1       1.756   6.017  20.632  0.00  0.00    +0.000 Cl
ENDBRANCH  14  16
ENDBRANCH   7  12
BRANCH   1  24
ATOM     23  C   UNL     1      -4.519  13.054  21.249  0.00  0.00    +0.000 C 
ATOM     24  O   UNL     1      -3.769  13.318  20.071  0.00  0.00    +0.000 OA
ENDBRANCH   1  24
BRANCH   9  25
ATOM     25  N   UNL     1       0.990  13.144  20.889  0.00  0.00    +0.000 N 
ATOM     26  H   UNL     1       0.099  13.421  21.296  0.00  0.00    +0.000 HD
BRANCH  25  27
ATOM     27  S   UNL     1       2.304  14.140  21.283  0.00  0.00    +0.000 S 
ATOM     28  O   UNL     1       1.819  15.101  22.249  0.00  0.00    +0.000 OA
ATOM     29  O   UNL     1       3.446  13.300  21.562  0.00  0.00    +0.000 OA
BRANCH  27  30
ATOM     30  C   UNL     1       2.579  15.012  19.757  0.00  0.00    +0.000 A 
ATOM     31  C   UNL     1       3.649  14.634  18.942  0.00  0.00    +0.000 A 
ATOM     32  C   UNL     1       3.893  15.337  17.763  0.00  0.00    +0.000 A 
ATOM     33  C   UNL     1       3.062  16.399  17.398  0.00  0.00    +0.000 A 
ATOM     34  C   UNL     1       1.977  16.750  18.199  0.00  0.00    +0.000 A 
ATOM     35  C   UNL     1       1.727  16.052  19.380  0.00  0.00    +0.000 A 
ENDBRANCH  27  30
ENDBRANCH  25  27
ENDBRANCH   9  25
TORSDOF 6
ENDMDL
