MODEL 1
REMARK VINA RESULT:      -8.3      0.000      0.000
REMARK  Name = 
REMARK  8 active torsions:
REMARK  status: ('A' for Active; 'I' for Inactive)
REMARK    1  A    between atoms: C_1  and  O_2
REMARK    2  A    between atoms: O_2  and  C_3
REMARK    3  A    between atoms: C_6  and  C_7
REMARK    4  A    between atoms: C_11  and  C_12
REMARK    5  A    between atoms: C_16  and  N_17
REMARK    6  A    between atoms: C_18  and  C_20
REMARK    7  A    between atoms: C_20  and  C_21
REMARK    8  A    between atoms: C_21  and  C_22
REMARK                            x       y       z     vdW  Elec       q    Type
REMARK                         _______ _______ _______ _____ _____    ______ ____
ROOT
ATOM      1  C   UNL     1       2.992   7.435  18.190  0.00  0.00    +0.000 A 
ATOM      2  N   UNL     1       2.557   8.607  17.623  0.00  0.00    +0.000 NA
ATOM      3  C   UNL     1       1.723   9.130  18.496  0.00  0.00    +0.000 A 
ATOM      4  C   UNL     1       0.989  10.352  18.451  0.00  0.00    +0.000 A 
ATOM      5  C   UNL     1       0.223  10.728  19.498  0.00  0.00    +0.000 A 
ATOM      6  C   UNL     1      -0.580  11.995  19.505  0.00  0.00    +0.000 C 
ATOM      7  C   UNL     1       0.146   9.887  20.692  0.00  0.00    +0.000 A 
ATOM      8  C   UNL     1       0.825   8.731  20.736  0.00  0.00    +0.000 A 
ATOM      9  N   UNL     1       1.600   8.340  19.638  0.00  0.00    +0.000 N 
ATOM     10  C   UNL     1       2.444   7.254  19.451  0.00  0.00    +0.000 A 
ENDROOT
BRANCH   1  14
ATOM     11  C   UNL     1       5.599   4.797  16.063  0.00  0.00    +0.000 A 
ATOM     12  C   UNL     1       5.895   6.156  16.185  0.00  0.00    +0.000 A 
ATOM     13  C   UNL     1       5.050   7.009  16.900  0.00  0.00    +0.000 A 
ATOM     14  C   UNL     1       3.881   6.517  17.489  0.00  0.00    +0.000 A 
ATOM     15  C   UNL     1       3.567   5.160  17.324  0.00  0.00    +0.000 A 
ATOM     16  C   UNL     1       4.425   4.302  16.625  0.00  0.00    +0.000 A 
BRANCH  11  18
ATOM     17  C   UNL     1       6.162   3.890  13.955  0.00  0.00    +0.000 C 
ATOM     18  O   UNL     1       6.490   4.065  15.329  0.00  0.00    +0.000 OA
ENDBRANCH  11  18
ENDBRANCH   1  14
BRANCH  10  19
ATOM     19  N   UNL     1       2.743   6.281  20.398  0.00  0.00    +0.000 N 
ATOM     20  C   UNL     1       1.809   5.304  20.703  0.00  0.00    +0.000 C 
ATOM     21  O   UNL     1       0.650   5.265  20.303  0.00  0.00    +0.000 OA
ATOM     22  H   UNL     1       3.706   5.961  20.401  0.00  0.00    +0.000 HD
BRANCH  20  23
ATOM     23  C   UNL     1       2.392   4.203  21.574  0.00  0.00    +0.000 C 
BRANCH  23  24
ATOM     24  C   UNL     1       1.595   2.903  21.467  0.00  0.00    +0.000 C 
BRANCH  24  25
ATOM     25  C   UNL     1       2.056   2.021  20.306  0.00  0.00    +0.000 C 
ATOM     26  C   UNL     1       1.388   2.348  18.972  0.00  0.00    +0.000 C 
ATOM     27  C   UNL     1       2.295   1.679  17.952  0.00  0.00    +0.000 C 
ATOM     28  C   UNL     1       3.698   1.704  18.560  0.00  0.00    +0.000 C 
ATOM     29  C   UNL     1       3.539   2.193  19.996  0.00  0.00    +0.000 C 
ENDBRANCH  24  25
ENDBRANCH  23  24
ENDBRANCH  20  23
ENDBRANCH  10  19
TORSDOF 6
ENDMDL
MODEL 2
REMARK VINA RESULT:      -7.8      3.606      8.402
REMARK  Name = 
REMARK  8 active torsions:
REMARK  status: ('A' for Active; 'I' for Inactive)
REMARK    1  A    between atoms: C_1  and  O_2
REMARK    2  A    between atoms: O_2  and  C_3
REMARK    3  A    between atoms: C_6  and  C_7
REMARK    4  A    between atoms: C_11  and  C_12
REMARK    5  A    between atoms: C_16  and  N_17
REMARK    6  A    between atoms: C_18  and  C_20
REMARK    7  A    between atoms: C_20  and  C_21
REMARK    8  A    between atoms: C_21  and  C_22
REMARK                            x       y       z     vdW  Elec       q    Type
REMARK                         _______ _______ _______ _____ _____    ______ ____
ROOT
ATOM      1  C   UNL     1       4.692   5.542  16.703  0.00  0.00    +0.000 A 
ATOM      2  N   UNL     1       4.356   4.531  15.837  0.00  0.00    +0.000 NA
ATOM      3  C   UNL     1       5.301   4.523  14.922  0.00  0.00    +0.000 A 
ATOM      4  C   UNL     1       5.482   3.674  13.792  0.00  0.00    +0.000 A 
ATOM      5  C   UNL     1       6.571   3.808  13.004  0.00  0.00    +0.000 A 
ATOM      6  C   UNL     1       6.811   2.952  11.795  0.00  0.00    +0.000 C 
ATOM      7  C   UNL     1       7.579   4.822  13.309  0.00  0.00    +0.000 A 
ATOM      8  C   UNL     1       7.409   5.633  14.364  0.00  0.00    +0.000 A 
ATOM      9  N   UNL     1       6.268   5.500  15.163  0.00  0.00    +0.000 N 
ATOM     10  C   UNL     1       5.886   6.142  16.333  0.00  0.00    +0.000 A 
ENDROOT
BRANCH   1  14
ATOM     11  C   UNL     1       2.238   6.729  19.996  0.00  0.00    +0.000 A 
ATOM     12  C   UNL     1       2.411   7.565  18.891  0.00  0.00    +0.000 A 
ATOM     13  C   UNL     1       3.198   7.161  17.809  0.00  0.00    +0.000 A 
ATOM     14  C   UNL     1       3.840   5.920  17.823  0.00  0.00    +0.000 A 
ATOM     15  C   UNL     1       3.697   5.105  18.956  0.00  0.00    +0.000 A 
ATOM     16  C   UNL     1       2.892   5.501  20.031  0.00  0.00    +0.000 A 
BRANCH  11  18
ATOM     17  C   UNL     1       1.144   8.620  20.897  0.00  0.00    +0.000 C 
ATOM     18  O   UNL     1       1.460   7.236  21.000  0.00  0.00    +0.000 OA
ENDBRANCH  11  18
ENDBRANCH   1  14
BRANCH  10  19
ATOM     19  N   UNL     1       6.632   7.093  17.021  0.00  0.00    +0.000 N 
ATOM     20  C   UNL     1       7.495   6.696  18.031  0.00  0.00    +0.000 C 
ATOM     21  O   UNL     1       7.595   5.563  18.490  0.00  0.00    +0.000 OA
ATOM     22  H   UNL     1       6.965   7.870  16.461  0.00  0.00    +0.000 HD
BRANCH  20  23
ATOM     23  C   UNL     1       8.389   7.832  18.502  0.00  0.00    +0.000 C 
BRANCH  23  24
ATOM     24  C   UNL     1       8.165   9.112  17.696  0.00  0.00    +0.000 C 
BRANCH  24  25
ATOM     25  C   UNL     1       8.683  10.359  18.414  0.00  0.00    +0.000 C 
ATOM     26  C   UNL     1       9.267  10.085  19.797  0.00  0.00    +0.000 C 
ATOM     27  C   UNL     1      10.076  11.338  20.091  0.00  0.00    +0.000 C 
ATOM     28  C   UNL     1      10.556  11.853  18.734  0.00  0.00    +0.000 C 
ATOM     29  C   UNL     1       9.845  11.015  17.676  0.00  0.00    +0.000 C 
ENDBRANCH  24  25
ENDBRANCH  23  24
ENDBRANCH  20  23
ENDBRANCH  10  19
TORSDOF 6
ENDMDL
MODEL 3
REMARK VINA RESULT:      -7.8      3.588      8.433
REMARK  Name = 
REMARK  8 active torsions:
REMARK  status: ('A' for Active; 'I' for Inactive)
REMARK    1  A    between atoms: C_1  and  O_2
REMARK    2  A    between atoms: O_2  and  C_3
REMARK    3  A    between atoms: C_6  and  C_7
REMARK    4  A    between atoms: C_11  and  C_12
REMARK    5  A    between atoms: C_16  and  N_17
REMARK    6  A    between atoms: C_18  and  C_20
REMARK    7  A    between atoms: C_20  and  C_21
REMARK    8  A    between atoms: C_21  and  C_22
REMARK                            x       y       z     vdW  Elec       q    Type
REMARK                         _______ _______ _______ _____ _____    ______ ____
ROOT
ATOM      1  C   UNL     1       4.635   5.682  16.768  0.00  0.00    +0.000 A 
ATOM      2  N   UNL     1       4.252   4.671  15.922  0.00  0.00    +0.000 NA
ATOM      3  C   UNL     1       5.200   4.595  15.014  0.00  0.00    +0.000 A 
ATOM      4  C   UNL     1       5.342   3.714  13.902  0.00  0.00    +0.000 A 
ATOM      5  C   UNL     1       6.440   3.774  13.118  0.00  0.00    +0.000 A 
ATOM      6  C   UNL     1       6.642   2.881  11.930  0.00  0.00    +0.000 C 
ATOM      7  C   UNL     1       7.498   4.741  13.408  0.00  0.00    +0.000 A 
ATOM      8  C   UNL     1       7.365   5.582  14.445  0.00  0.00    +0.000 A 
ATOM      9  N   UNL     1       6.214   5.525  15.240  0.00  0.00    +0.000 N 
ATOM     10  C   UNL     1       5.861   6.211  16.394  0.00  0.00    +0.000 A 
ENDROOT
BRANCH   1  14
ATOM     11  C   UNL     1       2.132   6.914  20.008  0.00  0.00    +0.000 A 
ATOM     12  C   UNL     1       2.735   5.655  20.004  0.00  0.00    +0.000 A 
ATOM     13  C   UNL     1       3.569   5.267  18.952  0.00  0.00    +0.000 A 
ATOM     14  C   UNL     1       3.799   6.127  17.875  0.00  0.00    +0.000 A 
ATOM     15  C   UNL     1       3.154   7.373  17.865  0.00  0.00    +0.000 A 
ATOM     16  C   UNL     1       2.335   7.770  18.929  0.00  0.00    +0.000 A 
BRANCH  11  18
ATOM     17  C   UNL     1       0.878   8.523  21.201  0.00  0.00    +0.000 C 
ATOM     18  O   UNL     1       1.326   7.177  21.080  0.00  0.00    +0.000 OA
ENDBRANCH  11  18
ENDBRANCH   1  14
BRANCH  10  19
ATOM     19  N   UNL     1       6.651   7.137  17.066  0.00  0.00    +0.000 N 
ATOM     20  C   UNL     1       7.502   6.715  18.076  0.00  0.00    +0.000 C 
ATOM     21  O   UNL     1       7.556   5.584  18.547  0.00  0.00    +0.000 OA
ATOM     22  H   UNL     1       7.015   7.892  16.494  0.00  0.00    +0.000 HD
BRANCH  20  23
ATOM     23  C   UNL     1       8.448   7.816  18.528  0.00  0.00    +0.000 C 
BRANCH  23  24
ATOM     24  C   UNL     1       8.076   9.174  17.932  0.00  0.00    +0.000 C 
BRANCH  24  25
ATOM     25  C   UNL     1       9.107  10.259  18.247  0.00  0.00    +0.000 C 
ATOM     26  C   UNL     1       8.671  11.667  17.848  0.00  0.00    +0.000 C 
ATOM     27  C   UNL     1       9.616  12.562  18.634  0.00  0.00    +0.000 C 
ATOM     28  C   UNL     1       9.955  11.794  19.911  0.00  0.00    +0.000 C 
ATOM     29  C   UNL     1       9.371  10.394  19.742  0.00  0.00    +0.000 C 
ENDBRANCH  24  25
ENDBRANCH  23  24
ENDBRANCH  20  23
ENDBRANCH  10  19
TORSDOF 6
ENDMDL
MODEL 4
REMARK VINA RESULT:      -7.6      0.443      1.254
REMARK  Name = 
REMARK  8 active torsions:
REMARK  status: ('A' for Active; 'I' for Inactive)
REMARK    1  A    between atoms: C_1  and  O_2
REMARK    2  A    between atoms: O_2  and  C_3
REMARK    3  A    between atoms: C_6  and  C_7
REMARK    4  A    between atoms: C_11  and  C_12
REMARK    5  A    between atoms: C_16  and  N_17
REMARK    6  A    between atoms: C_18  and  C_20
REMARK    7  A    between atoms: C_20  and  C_21
REMARK    8  A    between atoms: C_21  and  C_22
REMARK                            x       y       z     vdW  Elec       q    Type
REMARK                         _______ _______ _______ _____ _____    ______ ____
ROOT
ATOM      1  C   UNL     1       2.858   7.562  18.343  0.00  0.00    +0.000 A 
ATOM      2  N   UNL     1       2.354   8.707  17.776  0.00  0.00    +0.000 NA
ATOM      3  C   UNL     1       1.481   9.173  18.642  0.00  0.00    +0.000 A 
ATOM      4  C   UNL     1       0.672  10.346  18.593  0.00  0.00    +0.000 A 
ATOM      5  C   UNL     1      -0.126  10.670  19.635  0.00  0.00    +0.000 A 
ATOM      6  C   UNL     1      -1.007  11.884  19.638  0.00  0.00    +0.000 C 
ATOM      7  C   UNL     1      -0.160   9.822  20.825  0.00  0.00    +0.000 A 
ATOM      8  C   UNL     1       0.590   8.710  20.873  0.00  0.00    +0.000 A 
ATOM      9  N   UNL     1       1.398   8.372  19.781  0.00  0.00    +0.000 N 
ATOM     10  C   UNL     1       2.311   7.343  19.599  0.00  0.00    +0.000 A 
ENDROOT
BRANCH   1  14
ATOM     11  C   UNL     1       5.640   4.984  16.370  0.00  0.00    +0.000 A 
ATOM     12  C   UNL     1       4.382   4.520  16.761  0.00  0.00    +0.000 A 
ATOM     13  C   UNL     1       3.470   5.374  17.386  0.00  0.00    +0.000 A 
ATOM     14  C   UNL     1       3.809   6.705  17.648  0.00  0.00    +0.000 A 
ATOM     15  C   UNL     1       5.090   7.151  17.293  0.00  0.00    +0.000 A 
ATOM     16  C   UNL     1       5.997   6.302  16.647  0.00  0.00    +0.000 A 
BRANCH  11  18
ATOM     17  C   UNL     1       6.289   3.894  14.377  0.00  0.00    +0.000 C 
ATOM     18  O   UNL     1       6.452   4.056  15.781  0.00  0.00    +0.000 OA
ENDBRANCH  11  18
ENDBRANCH   1  14
BRANCH  10  19
ATOM     19  N   UNL     1       2.661   6.387  20.545  0.00  0.00    +0.000 N 
ATOM     20  C   UNL     1       1.794   5.343  20.828  0.00  0.00    +0.000 C 
ATOM     21  O   UNL     1       0.649   5.223  20.405  0.00  0.00    +0.000 OA
ATOM     22  H   UNL     1       3.645   6.137  20.565  0.00  0.00    +0.000 HD
BRANCH  20  23
ATOM     23  C   UNL     1       2.440   4.281  21.702  0.00  0.00    +0.000 C 
BRANCH  23  24
ATOM     24  C   UNL     1       2.253   2.875  21.133  0.00  0.00    +0.000 C 
BRANCH  24  25
ATOM     25  C   UNL     1       2.758   2.748  19.695  0.00  0.00    +0.000 C 
ATOM     26  C   UNL     1       3.822   1.670  19.501  0.00  0.00    +0.000 C 
ATOM     27  C   UNL     1       3.826   1.448  17.997  0.00  0.00    +0.000 C 
ATOM     28  C   UNL     1       2.401   1.739  17.527  0.00  0.00    +0.000 C 
ATOM     29  C   UNL     1       1.660   2.322  18.726  0.00  0.00    +0.000 C 
ENDBRANCH  24  25
ENDBRANCH  23  24
ENDBRANCH  20  23
ENDBRANCH  10  19
TORSDOF 6
ENDMDL
MODEL 5
REMARK VINA RESULT:      -7.6      3.525      8.401
REMARK  Name = 
REMARK  8 active torsions:
REMARK  status: ('A' for Active; 'I' for Inactive)
REMARK    1  A    between atoms: C_1  and  O_2
REMARK    2  A    between atoms: O_2  and  C_3
REMARK    3  A    between atoms: C_6  and  C_7
REMARK    4  A    between atoms: C_11  and  C_12
REMARK    5  A    between atoms: C_16  and  N_17
REMARK    6  A    between atoms: C_18  and  C_20
REMARK    7  A    between atoms: C_20  and  C_21
REMARK    8  A    between atoms: C_21  and  C_22
REMARK                            x       y       z     vdW  Elec       q    Type
REMARK                         _______ _______ _______ _____ _____    ______ ____
ROOT
ATOM      1  C   UNL     1       4.990   4.717  16.460  0.00  0.00    +0.000 A 
ATOM      2  N   UNL     1       4.796   3.780  15.476  0.00  0.00    +0.000 NA
ATOM      3  C   UNL     1       5.652   4.087  14.525  0.00  0.00    +0.000 A 
ATOM      4  C   UNL     1       5.911   3.448  13.278  0.00  0.00    +0.000 A 
ATOM      5  C   UNL     1       6.890   3.905  12.466  0.00  0.00    +0.000 A 
ATOM      6  C   UNL     1       7.202   3.282  11.137  0.00  0.00    +0.000 C 
ATOM      7  C   UNL     1       7.697   5.057  12.865  0.00  0.00    +0.000 A 
ATOM      8  C   UNL     1       7.450   5.670  14.032  0.00  0.00    +0.000 A 
ATOM      9  N   UNL     1       6.422   5.202  14.857  0.00  0.00    +0.000 N 
ATOM     10  C   UNL     1       6.011   5.593  16.124  0.00  0.00    +0.000 A 
ENDROOT
BRANCH   1  14
ATOM     11  C   UNL     1       2.534   4.774  19.959  0.00  0.00    +0.000 A 
ATOM     12  C   UNL     1       3.241   3.626  19.596  0.00  0.00    +0.000 A 
ATOM     13  C   UNL     1       4.059   3.621  18.463  0.00  0.00    +0.000 A 
ATOM     14  C   UNL     1       4.167   4.762  17.662  0.00  0.00    +0.000 A 
ATOM     15  C   UNL     1       3.420   5.897  18.009  0.00  0.00    +0.000 A 
ATOM     16  C   UNL     1       2.617   5.909  19.156  0.00  0.00    +0.000 A 
BRANCH  11  18
ATOM     17  C   UNL     1       1.873   3.426  21.784  0.00  0.00    +0.000 C 
ATOM     18  O   UNL     1       1.756   4.656  21.077  0.00  0.00    +0.000 OA
ENDBRANCH  11  18
ENDBRANCH   1  14
BRANCH  10  19
ATOM     19  N   UNL     1       6.603   6.579  16.904  0.00  0.00    +0.000 N 
ATOM     20  C   UNL     1       7.501   6.227  17.900  0.00  0.00    +0.000 C 
ATOM     21  O   UNL     1       7.757   5.084  18.268  0.00  0.00    +0.000 OA
ATOM     22  H   UNL     1       6.829   7.441  16.417  0.00  0.00    +0.000 HD
BRANCH  20  23
ATOM     23  C   UNL     1       8.217   7.434  18.483  0.00  0.00    +0.000 C 
BRANCH  23  24
ATOM     24  C   UNL     1       7.879   8.721  17.730  0.00  0.00    +0.000 C 
BRANCH  24  25
ATOM     25  C   UNL     1       8.856   9.858  18.036  0.00  0.00    +0.000 C 
ATOM     26  C   UNL     1       8.307  11.250  17.734  0.00  0.00    +0.000 C 
ATOM     27  C   UNL     1       9.241  12.170  18.504  0.00  0.00    +0.000 C 
ATOM     28  C   UNL     1       9.707  11.369  19.720  0.00  0.00    +0.000 C 
ATOM     29  C   UNL     1       9.205   9.942  19.518  0.00  0.00    +0.000 C 
ENDBRANCH  24  25
ENDBRANCH  23  24
ENDBRANCH  20  23
ENDBRANCH  10  19
TORSDOF 6
ENDMDL
MODEL 6
REMARK VINA RESULT:      -7.4      3.078      8.389
REMARK  Name = 
REMARK  8 active torsions:
REMARK  status: ('A' for Active; 'I' for Inactive)
REMARK    1  A    between atoms: C_1  and  O_2
REMARK    2  A    between atoms: O_2  and  C_3
REMARK    3  A    between atoms: C_6  and  C_7
REMARK    4  A    between atoms: C_11  and  C_12
REMARK    5  A    between atoms: C_16  and  N_17
REMARK    6  A    between atoms: C_18  and  C_20
REMARK    7  A    between atoms: C_20  and  C_21
REMARK    8  A    between atoms: C_21  and  C_22
REMARK                            x       y       z     vdW  Elec       q    Type
REMARK                         _______ _______ _______ _____ _____    ______ ____
ROOT
ATOM      1  C   UNL     1       1.371   9.879  18.803  0.00  0.00    +0.000 A 
ATOM      2  N   UNL     1       2.130   9.419  17.756  0.00  0.00    +0.000 NA
ATOM      3  C   UNL     1       2.530   8.218  18.112  0.00  0.00    +0.000 A 
ATOM      4  C   UNL     1       3.324   7.265  17.409  0.00  0.00    +0.000 A 
ATOM      5  C   UNL     1       3.571   6.051  17.948  0.00  0.00    +0.000 A 
ATOM      6  C   UNL     1       4.407   5.012  17.262  0.00  0.00    +0.000 C 
ATOM      7  C   UNL     1       3.018   5.701  19.255  0.00  0.00    +0.000 A 
ATOM      8  C   UNL     1       2.280   6.597  19.927  0.00  0.00    +0.000 A 
ATOM      9  N   UNL     1       2.046   7.860  19.370  0.00  0.00    +0.000 N 
ATOM     10  C   UNL     1       1.272   8.926  19.806  0.00  0.00    +0.000 A 
ENDROOT
BRANCH   1  14
ATOM     11  C   UNL     1      -0.253  13.832  18.939  0.00  0.00    +0.000 A 
ATOM     12  C   UNL     1       1.105  13.604  19.171  0.00  0.00    +0.000 A 
ATOM     13  C   UNL     1       1.633  12.312  19.104  0.00  0.00    +0.000 A 
ATOM     14  C   UNL     1       0.805  11.222  18.822  0.00  0.00    +0.000 A 
ATOM     15  C   UNL     1      -0.566  11.453  18.634  0.00  0.00    +0.000 A 
ATOM     16  C   UNL     1      -1.091  12.750  18.681  0.00  0.00    +0.000 A 
BRANCH  11  18
ATOM     17  C   UNL     1       0.330  16.113  18.743  0.00  0.00    +0.000 C 
ATOM     18  O   UNL     1      -0.657  15.133  19.047  0.00  0.00    +0.000 OA
ENDBRANCH  11  18
ENDBRANCH   1  14
BRANCH  10  19
ATOM     19  N   UNL     1       0.484   8.947  20.951  0.00  0.00    +0.000 N 
ATOM     20  C   UNL     1       1.032   9.344  22.161  0.00  0.00    +0.000 C 
ATOM     21  O   UNL     1       2.218   9.577  22.373  0.00  0.00    +0.000 OA
ATOM     22  H   UNL     1      -0.480   9.234  20.808  0.00  0.00    +0.000 HD
BRANCH  20  23
ATOM     23  C   UNL     1      -0.025   9.528  23.238  0.00  0.00    +0.000 C 
BRANCH  23  24
ATOM     24  C   UNL     1      -1.255  10.269  22.715  0.00  0.00    +0.000 C 
BRANCH  24  25
ATOM     25  C   UNL     1      -1.336  11.710  23.222  0.00  0.00    +0.000 C 
ATOM     26  C   UNL     1      -0.587  12.719  22.355  0.00  0.00    +0.000 C 
ATOM     27  C   UNL     1      -1.167  14.055  22.791  0.00  0.00    +0.000 C 
ATOM     28  C   UNL     1      -2.606  13.767  23.218  0.00  0.00    +0.000 C 
ATOM     29  C   UNL     1      -2.762  12.249  23.219  0.00  0.00    +0.000 C 
ENDBRANCH  24  25
ENDBRANCH  23  24
ENDBRANCH  20  23
ENDBRANCH  10  19
TORSDOF 6
ENDMDL
MODEL 7
REMARK VINA RESULT:      -7.3      2.966      8.306
REMARK  Name = 
REMARK  8 active torsions:
REMARK  status: ('A' for Active; 'I' for Inactive)
REMARK    1  A    between atoms: C_1  and  O_2
REMARK    2  A    between atoms: O_2  and  C_3
REMARK    3  A    between atoms: C_6  and  C_7
REMARK    4  A    between atoms: C_11  and  C_12
REMARK    5  A    between atoms: C_16  and  N_17
REMARK    6  A    between atoms: C_18  and  C_20
REMARK    7  A    between atoms: C_20  and  C_21
REMARK    8  A    between atoms: C_21  and  C_22
REMARK                            x       y       z     vdW  Elec       q    Type
REMARK                         _______ _______ _______ _____ _____    ______ ____
ROOT
ATOM      1  C   UNL     1       1.493   9.388  18.955  0.00  0.00    +0.000 A 
ATOM      2  N   UNL     1       2.241   8.787  17.973  0.00  0.00    +0.000 NA
ATOM      3  C   UNL     1       2.541   7.595  18.441  0.00  0.00    +0.000 A 
ATOM      4  C   UNL     1       3.279   6.531  17.844  0.00  0.00    +0.000 A 
ATOM      5  C   UNL     1       3.421   5.352  18.489  0.00  0.00    +0.000 A 
ATOM      6  C   UNL     1       4.194   4.200  17.918  0.00  0.00    +0.000 C 
ATOM      7  C   UNL     1       2.811   5.155  19.803  0.00  0.00    +0.000 A 
ATOM      8  C   UNL     1       2.125   6.157  20.376  0.00  0.00    +0.000 A 
ATOM      9  N   UNL     1       2.001   7.381  19.709  0.00  0.00    +0.000 N 
ATOM     10  C   UNL     1       1.298   8.534  20.030  0.00  0.00    +0.000 A 
ENDROOT
BRANCH   1  14
ATOM     11  C   UNL     1       0.079  13.403  18.562  0.00  0.00    +0.000 A 
ATOM     12  C   UNL     1      -0.813  12.334  18.666  0.00  0.00    +0.000 A 
ATOM     13  C   UNL     1      -0.344  11.026  18.816  0.00  0.00    +0.000 A 
ATOM     14  C   UNL     1       1.029  10.765  18.845  0.00  0.00    +0.000 A 
ATOM     15  C   UNL     1       1.918  11.839  18.695  0.00  0.00    +0.000 A 
ATOM     16  C   UNL     1       1.448  13.152  18.566  0.00  0.00    +0.000 A 
BRANCH  11  18
ATOM     17  C   UNL     1      -0.087  15.630  19.336  0.00  0.00    +0.000 C 
ATOM     18  O   UNL     1      -0.495  14.634  18.404  0.00  0.00    +0.000 OA
ENDBRANCH  11  18
ENDBRANCH   1  14
BRANCH  10  19
ATOM     19  N   UNL     1       0.486   8.709  21.145  0.00  0.00    +0.000 N 
ATOM     20  C   UNL     1       1.022   9.214  22.319  0.00  0.00    +0.000 C 
ATOM     21  O   UNL     1       2.211   9.424  22.536  0.00  0.00    +0.000 OA
ATOM     22  H   UNL     1      -0.462   9.015  20.946  0.00  0.00    +0.000 HD
BRANCH  20  23
ATOM     23  C   UNL     1      -0.051   9.554  23.341  0.00  0.00    +0.000 C 
BRANCH  23  24
ATOM     24  C   UNL     1      -1.219  10.317  22.716  0.00  0.00    +0.000 C 
BRANCH  24  25
ATOM     25  C   UNL     1      -1.268  11.782  23.152  0.00  0.00    +0.000 C 
ATOM     26  C   UNL     1      -0.541  12.738  22.210  0.00  0.00    +0.000 C 
ATOM     27  C   UNL     1      -1.092  14.101  22.598  0.00  0.00    +0.000 C 
ATOM     28  C   UNL     1      -2.518  13.851  23.088  0.00  0.00    +0.000 C 
ATOM     29  C   UNL     1      -2.688  12.337  23.171  0.00  0.00    +0.000 C 
ENDBRANCH  24  25
ENDBRANCH  23  24
ENDBRANCH  20  23
ENDBRANCH  10  19
TORSDOF 6
ENDMDL
MODEL 8
REMARK VINA RESULT:      -7.2      1.819      5.930
REMARK  Name = 
REMARK  8 active torsions:
REMARK  status: ('A' for Active; 'I' for Inactive)
REMARK    1  A    between atoms: C_1  and  O_2
REMARK    2  A    between atoms: O_2  and  C_3
REMARK    3  A    between atoms: C_6  and  C_7
REMARK    4  A    between atoms: C_11  and  C_12
REMARK    5  A    between atoms: C_16  and  N_17
REMARK    6  A    between atoms: C_18  and  C_20
REMARK    7  A    between atoms: C_20  and  C_21
REMARK    8  A    between atoms: C_21  and  C_22
REMARK                            x       y       z     vdW  Elec       q    Type
REMARK                         _______ _______ _______ _____ _____    ______ ____
ROOT
ATOM      1  C   UNL     1       2.888   7.265  18.133  0.00  0.00    +0.000 A 
ATOM      2  N   UNL     1       3.826   7.683  17.223  0.00  0.00    +0.000 NA
ATOM      3  C   UNL     1       4.449   6.592  16.834  0.00  0.00    +0.000 A 
ATOM      4  C   UNL     1       5.500   6.419  15.886  0.00  0.00    +0.000 A 
ATOM      5  C   UNL     1       5.960   5.183  15.593  0.00  0.00    +0.000 A 
ATOM      6  C   UNL     1       7.069   4.939  14.613  0.00  0.00    +0.000 C 
ATOM      7  C   UNL     1       5.378   4.010  16.242  0.00  0.00    +0.000 A 
ATOM      8  C   UNL     1       4.397   4.166  17.144  0.00  0.00    +0.000 A 
ATOM      9  N   UNL     1       3.941   5.451  17.456  0.00  0.00    +0.000 N 
ATOM     10  C   UNL     1       2.910   5.885  18.278  0.00  0.00    +0.000 A 
ENDROOT
BRANCH   1  14
ATOM     11  C   UNL     1       0.342   9.940  20.287  0.00  0.00    +0.000 A 
ATOM     12  C   UNL     1       0.951   8.858  20.925  0.00  0.00    +0.000 A 
ATOM     13  C   UNL     1       1.799   7.999  20.220  0.00  0.00    +0.000 A 
ATOM     14  C   UNL     1       2.037   8.200  18.857  0.00  0.00    +0.000 A 
ATOM     15  C   UNL     1       1.387   9.264  18.213  0.00  0.00    +0.000 A 
ATOM     16  C   UNL     1       0.554  10.136  18.925  0.00  0.00    +0.000 A 
BRANCH  11  18
ATOM     17  C   UNL     1      -0.402  10.445  22.472  0.00  0.00    +0.000 C 
ATOM     18  O   UNL     1      -0.477  10.701  21.074  0.00  0.00    +0.000 OA
ENDBRANCH  11  18
ENDBRANCH   1  14
BRANCH  10  19
ATOM     19  N   UNL     1       2.032   5.071  18.983  0.00  0.00    +0.000 N 
ATOM     20  C   UNL     1       1.136   4.264  18.299  0.00  0.00    +0.000 C 
ATOM     21  O   UNL     1       0.937   4.274  17.088  0.00  0.00    +0.000 OA
ATOM     22  H   UNL     1       2.409   4.659  19.831  0.00  0.00    +0.000 HD
BRANCH  20  23
ATOM     23  C   UNL     1       0.429   3.281  19.218  0.00  0.00    +0.000 C 
BRANCH  23  24
ATOM     24  C   UNL     1       1.215   3.031  20.505  0.00  0.00    +0.000 C 
BRANCH  24  25
ATOM     25  C   UNL     1       2.368   2.045  20.311  0.00  0.00    +0.000 C 
ATOM     26  C   UNL     1       2.559   1.587  18.867  0.00  0.00    +0.000 C 
ATOM     27  C   UNL     1       3.964   1.006  18.866  0.00  0.00    +0.000 C 
ATOM     28  C   UNL     1       4.741   1.789  19.924  0.00  0.00    +0.000 C 
ATOM     29  C   UNL     1       3.722   2.657  20.656  0.00  0.00    +0.000 C 
ENDBRANCH  24  25
ENDBRANCH  23  24
ENDBRANCH  20  23
ENDBRANCH  10  19
TORSDOF 6
ENDMDL
MODEL 9
REMARK VINA RESULT:      -7.2      3.985      8.650
REMARK  Name = 
REMARK  8 active torsions:
REMARK  status: ('A' for Active; 'I' for Inactive)
REMARK    1  A    between atoms: C_1  and  O_2
REMARK    2  A    between atoms: O_2  and  C_3
REMARK    3  A    between atoms: C_6  and  C_7
REMARK    4  A    between atoms: C_11  and  C_12
REMARK    5  A    between atoms: C_16  and  N_17
REMARK    6  A    between atoms: C_18  and  C_20
REMARK    7  A    between atoms: C_20  and  C_21
REMARK    8  A    between atoms: C_21  and  C_22
REMARK                            x       y       z     vdW  Elec       q    Type
REMARK                         _______ _______ _______ _____ _____    ______ ____
ROOT
ATOM      1  C   UNL     1       5.368   4.580  16.645  0.00  0.00    +0.000 A 
ATOM      2  N   UNL     1       4.920   3.867  15.561  0.00  0.00    +0.000 NA
ATOM      3  C   UNL     1       5.773   4.124  14.594  0.00  0.00    +0.000 A 
ATOM      4  C   UNL     1       5.819   3.641  13.253  0.00  0.00    +0.000 A 
ATOM      5  C   UNL     1       6.832   3.996  12.433  0.00  0.00    +0.000 A 
ATOM      6  C   UNL     1       6.929   3.529  11.011  0.00  0.00    +0.000 C 
ATOM      7  C   UNL     1       7.897   4.872  12.918  0.00  0.00    +0.000 A 
ATOM      8  C   UNL     1       7.854   5.340  14.175  0.00  0.00    +0.000 A 
ATOM      9  N   UNL     1       6.790   4.984  15.010  0.00  0.00    +0.000 N 
ATOM     10  C   UNL     1       6.542   5.257  16.348  0.00  0.00    +0.000 A 
ENDROOT
BRANCH   1  14
ATOM     11  C   UNL     1       3.176   4.623  20.315  0.00  0.00    +0.000 A 
ATOM     12  C   UNL     1       3.727   3.439  19.821  0.00  0.00    +0.000 A 
ATOM     13  C   UNL     1       4.461   3.436  18.631  0.00  0.00    +0.000 A 
ATOM     14  C   UNL     1       4.639   4.618  17.906  0.00  0.00    +0.000 A 
ATOM     15  C   UNL     1       4.045   5.794  18.386  0.00  0.00    +0.000 A 
ATOM     16  C   UNL     1       3.328   5.801  19.588  0.00  0.00    +0.000 A 
BRANCH  11  18
ATOM     17  C   UNL     1       1.908   3.216  21.728  0.00  0.00    +0.000 C 
ATOM     18  O   UNL     1       2.468   4.501  21.478  0.00  0.00    +0.000 OA
ENDBRANCH  11  18
ENDBRANCH   1  14
BRANCH  10  19
ATOM     19  N   UNL     1       7.380   5.963  17.205  0.00  0.00    +0.000 N 
ATOM     20  C   UNL     1       7.302   7.345  17.265  0.00  0.00    +0.000 C 
ATOM     21  O   UNL     1       6.630   8.062  16.529  0.00  0.00    +0.000 OA
ATOM     22  H   UNL     1       7.570   5.511  18.094  0.00  0.00    +0.000 HD
BRANCH  20  23
ATOM     23  C   UNL     1       8.117   7.918  18.413  0.00  0.00    +0.000 C 
BRANCH  23  24
ATOM     24  C   UNL     1       8.195   9.443  18.358  0.00  0.00    +0.000 C 
BRANCH  24  25
ATOM     25  C   UNL     1       9.508   9.988  18.921  0.00  0.00    +0.000 C 
ATOM     26  C   UNL     1      10.194  11.014  18.022  0.00  0.00    +0.000 C 
ATOM     27  C   UNL     1      11.180  11.696  18.957  0.00  0.00    +0.000 C 
ATOM     28  C   UNL     1      10.543  11.645  20.345  0.00  0.00    +0.000 C 
ATOM     29  C   UNL     1       9.310  10.755  20.224  0.00  0.00    +0.000 C 
ENDBRANCH  24  25
ENDBRANCH  23  24
ENDBRANCH  20  23
ENDBRANCH  10  19
TORSDOF 6
ENDMDL
