MODEL 1
REMARK VINA RESULT:      -9.4      0.000      0.000
REMARK  Name = 
REMARK  8 active torsions:
REMARK  status: ('A' for Active; 'I' for Inactive)
REMARK    1  A    between atoms: C_1  and  C_2
REMARK    2  A    between atoms: C_2  and  C_3
REMARK    3  A    between atoms: C_3  and  C_4
REMARK    4  A    between atoms: C_4  and  C_5
REMARK    5  A    between atoms: C_5  and  N_6
REMARK    6  A    between atoms: C_7  and  C_8
REMARK    7  A    between atoms: C_9  and  C_10
REMARK    8  A    between atoms: C_10  and  C_12
REMARK                            x       y       z     vdW  Elec       q    Type
REMARK                         _______ _______ _______ _____ _____    ______ ____
ROOT
ATOM      1  N   UNL     1       3.196   5.678  19.427  0.00  0.00    +0.000 N 
ATOM      2  C   UNL     1       2.458   6.881  19.350  0.00  0.00    +0.000 A 
ATOM      3  C   UNL     1       1.580   7.300  20.486  0.00  0.00    +0.000 C 
ATOM      4  C   UNL     1       2.672   7.573  18.123  0.00  0.00    +0.000 A 
ATOM      5  C   UNL     1       3.804   6.737  17.514  0.00  0.00    +0.000 A 
ATOM      6  C   UNL     1       4.708   6.771  16.397  0.00  0.00    +0.000 A 
ATOM      7  C   UNL     1       5.634   5.704  16.085  0.00  0.00    +0.000 A 
ATOM      8  C   UNL     1       5.740   4.565  16.854  0.00  0.00    +0.000 A 
ATOM      9  C   UNL     1       4.947   4.515  17.993  0.00  0.00    +0.000 A 
ATOM     10  C   UNL     1       4.021   5.577  18.313  0.00  0.00    +0.000 A 
ENDROOT
BRANCH   4  11
ATOM     11  C   UNL     1       1.801   9.115  17.838  0.00  0.00    +0.000 C 
ATOM     12  O   UNL     1       2.543  10.058  17.736  0.00  0.00    +0.000 OA
BRANCH  11  13
ATOM     13  C   UNL     1      -0.074   9.503  17.790  0.00  0.00    +0.000 A 
ATOM     14  C   UNL     1       0.347  10.043  18.942  0.00  0.00    +0.000 A 
ATOM     15  C   UNL     1      -0.537  10.057  19.962  0.00  0.00    +0.000 A 
ATOM     16  C   UNL     1      -1.165  11.231  19.777  0.00  0.00    +0.000 A 
ATOM     17 CL   UNL     1      -0.471  12.725  20.312  0.00  0.00    +0.000 Cl
ATOM     18  C   UNL     1      -2.005  11.236  18.754  0.00  0.00    +0.000 A 
ATOM     19  C   UNL     1      -3.154  12.177  18.993  0.00  0.00    +0.000 A 
ATOM     20  C   UNL     1      -4.458  11.977  18.679  0.00  0.00    +0.000 A 
ATOM     21  C   UNL     1      -4.615  10.788  18.001  0.00  0.00    +0.000 A 
ATOM     22  C   UNL     1      -3.357   9.948  17.553  0.00  0.00    +0.000 A 
ATOM     23  C   UNL     1      -1.755  10.086  17.863  0.00  0.00    +0.000 A 
ENDBRANCH  11  13
ENDBRANCH   4  11
BRANCH   1  24
ATOM     24  C   UNL     1       3.147   4.649  20.449  0.00  0.00    +0.000 C 
BRANCH  24  25
ATOM     25  C   UNL     1       1.746   4.136  20.778  0.00  0.00    +0.000 C 
BRANCH  25  26
ATOM     26  C   UNL     1       1.125   3.356  19.621  0.00  0.00    +0.000 C 
BRANCH  26  28
ATOM     27  C   UNL     1       2.352   2.231  17.735  0.00  0.00    +0.000 C 
ATOM     28  C   UNL     1       2.003   2.173  19.213  0.00  0.00    +0.000 C 
ENDBRANCH  26  28
ENDBRANCH  25  26
ENDBRANCH  24  25
ENDBRANCH   1  24
TORSDOF 6
ENDMDL
MODEL 2
REMARK VINA RESULT:      -9.2      0.748      1.160
REMARK  Name = 
REMARK  8 active torsions:
REMARK  status: ('A' for Active; 'I' for Inactive)
REMARK    1  A    between atoms: C_1  and  C_2
REMARK    2  A    between atoms: C_2  and  C_3
REMARK    3  A    between atoms: C_3  and  C_4
REMARK    4  A    between atoms: C_4  and  C_5
REMARK    5  A    between atoms: C_5  and  N_6
REMARK    6  A    between atoms: C_7  and  C_8
REMARK    7  A    between atoms: C_9  and  C_10
REMARK    8  A    between atoms: C_10  and  C_12
REMARK                            x       y       z     vdW  Elec       q    Type
REMARK                         _______ _______ _______ _____ _____    ______ ____
ROOT
ATOM      1  N   UNL     1       3.617   5.235  18.831  0.00  0.00    +0.000 N 
ATOM      2  C   UNL     1       2.904   6.448  18.964  0.00  0.00    +0.000 A 
ATOM      3  C   UNL     1       2.103   6.719  20.197  0.00  0.00    +0.000 C 
ATOM      4  C   UNL     1       3.064   7.300  17.833  0.00  0.00    +0.000 A 
ATOM      5  C   UNL     1       4.139   6.539  17.049  0.00  0.00    +0.000 A 
ATOM      6  C   UNL     1       4.979   6.714  15.895  0.00  0.00    +0.000 A 
ATOM      7  C   UNL     1       5.861   5.687  15.385  0.00  0.00    +0.000 A 
ATOM      8  C   UNL     1       5.983   4.450  15.983  0.00  0.00    +0.000 A 
ATOM      9  C   UNL     1       5.255   4.256  17.149  0.00  0.00    +0.000 A 
ATOM     10  C   UNL     1       4.375   5.277  17.667  0.00  0.00    +0.000 A 
ENDROOT
BRANCH   4  11
ATOM     11  C   UNL     1       2.214   8.880  17.816  0.00  0.00    +0.000 C 
ATOM     12  O   UNL     1       2.963   9.814  17.957  0.00  0.00    +0.000 OA
BRANCH  11  13
ATOM     13  C   UNL     1       0.347   9.296  17.729  0.00  0.00    +0.000 A 
ATOM     14  C   UNL     1       0.739   9.775  18.918  0.00  0.00    +0.000 A 
ATOM     15  C   UNL     1      -0.176   9.754  19.911  0.00  0.00    +0.000 A 
ATOM     16  C   UNL     1      -0.783  10.944  19.763  0.00  0.00    +0.000 A 
ATOM     17 CL   UNL     1      -0.087  12.401  20.389  0.00  0.00    +0.000 Cl
ATOM     18  C   UNL     1      -1.591  11.009  18.716  0.00  0.00    +0.000 A 
ATOM     19  C   UNL     1      -2.734  11.954  18.965  0.00  0.00    +0.000 A 
ATOM     20  C   UNL     1      -4.031  11.787  18.601  0.00  0.00    +0.000 A 
ATOM     21  C   UNL     1      -4.182  10.633  17.864  0.00  0.00    +0.000 A 
ATOM     22  C   UNL     1      -2.922   9.797  17.415  0.00  0.00    +0.000 A 
ATOM     23  C   UNL     1      -1.328   9.899  17.779  0.00  0.00    +0.000 A 
ENDBRANCH  11  13
ENDBRANCH   4  11
BRANCH   1  24
ATOM     24  C   UNL     1       3.602   4.075  19.703  0.00  0.00    +0.000 C 
BRANCH  24  25
ATOM     25  C   UNL     1       2.836   2.871  19.157  0.00  0.00    +0.000 C 
BRANCH  25  26
ATOM     26  C   UNL     1       1.324   3.039  19.281  0.00  0.00    +0.000 C 
BRANCH  26  28
ATOM     27  C   UNL     1       1.450   2.529  21.741  0.00  0.00    +0.000 C 
ATOM     28  C   UNL     1       0.927   3.490  20.686  0.00  0.00    +0.000 C 
ENDBRANCH  26  28
ENDBRANCH  25  26
ENDBRANCH  24  25
ENDBRANCH   1  24
TORSDOF 6
ENDMDL
MODEL 3
REMARK VINA RESULT:      -9.1      2.940      8.497
REMARK  Name = 
REMARK  8 active torsions:
REMARK  status: ('A' for Active; 'I' for Inactive)
REMARK    1  A    between atoms: C_1  and  C_2
REMARK    2  A    between atoms: C_2  and  C_3
REMARK    3  A    between atoms: C_3  and  C_4
REMARK    4  A    between atoms: C_4  and  C_5
REMARK    5  A    between atoms: C_5  and  N_6
REMARK    6  A    between atoms: C_7  and  C_8
REMARK    7  A    between atoms: C_9  and  C_10
REMARK    8  A    between atoms: C_10  and  C_12
REMARK                            x       y       z     vdW  Elec       q    Type
REMARK                         _______ _______ _______ _____ _____    ______ ____
ROOT
ATOM      1  N   UNL     1       0.331  10.481  19.396  0.00  0.00    +0.000 N 
ATOM      2  C   UNL     1       1.142   9.365  19.094  0.00  0.00    +0.000 A 
ATOM      3  C   UNL     1       1.798   9.249  17.755  0.00  0.00    +0.000 C 
ATOM      4  C   UNL     1       1.232   8.449  20.182  0.00  0.00    +0.000 A 
ATOM      5  C   UNL     1       0.522   9.241  21.286  0.00  0.00    +0.000 A 
ATOM      6  C   UNL     1       0.270   9.160  22.699  0.00  0.00    +0.000 A 
ATOM      7  C   UNL     1      -0.555  10.106  23.419  0.00  0.00    +0.000 A 
ATOM      8  C   UNL     1      -1.155  11.185  22.805  0.00  0.00    +0.000 A 
ATOM      9  C   UNL     1      -0.879  11.357  21.455  0.00  0.00    +0.000 A 
ATOM     10  C   UNL     1      -0.055  10.419  20.729  0.00  0.00    +0.000 A 
ENDROOT
BRANCH   4  11
ATOM     11  C   UNL     1       2.208   6.957  19.976  0.00  0.00    +0.000 C 
ATOM     12  O   UNL     1       1.932   6.104  20.781  0.00  0.00    +0.000 OA
BRANCH  11  13
ATOM     13  C   UNL     1       3.657   6.563  18.788  0.00  0.00    +0.000 A 
ATOM     14  C   UNL     1       3.065   5.378  18.993  0.00  0.00    +0.000 A 
ATOM     15  C   UNL     1       3.865   4.290  18.970  0.00  0.00    +0.000 A 
ATOM     16  C   UNL     1       3.838   3.946  17.671  0.00  0.00    +0.000 A 
ATOM     17 CL   UNL     1       2.526   3.038  17.000  0.00  0.00    +0.000 Cl
ATOM     18  C   UNL     1       4.537   4.753  16.888  0.00  0.00    +0.000 A 
ATOM     19  C   UNL     1       5.092   4.016  15.700  0.00  0.00    +0.000 A 
ATOM     20  C   UNL     1       6.319   4.167  15.141  0.00  0.00    +0.000 A 
ATOM     21  C   UNL     1       7.011   5.186  15.759  0.00  0.00    +0.000 A 
ATOM     22  C   UNL     1       6.304   6.097  16.836  0.00  0.00    +0.000 A 
ATOM     23  C   UNL     1       4.846   6.020  17.579  0.00  0.00    +0.000 A 
ENDBRANCH  11  13
ENDBRANCH   4  11
BRANCH   1  24
ATOM     24  C   UNL     1      -0.100  11.553  18.515  0.00  0.00    +0.000 C 
BRANCH  24  25
ATOM     25  C   UNL     1      -1.550  11.455  18.047  0.00  0.00    +0.000 C 
BRANCH  25  26
ATOM     26  C   UNL     1      -1.830  10.163  17.284  0.00  0.00    +0.000 C 
BRANCH  26  28
ATOM     27  C   UNL     1      -2.867  10.054  14.994  0.00  0.00    +0.000 C 
ATOM     28  C   UNL     1      -3.125  10.263  16.477  0.00  0.00    +0.000 C 
ENDBRANCH  26  28
ENDBRANCH  25  26
ENDBRANCH  24  25
ENDBRANCH   1  24
TORSDOF 6
ENDMDL
MODEL 4
REMARK VINA RESULT:      -8.9      1.349      3.632
REMARK  Name = 
REMARK  8 active torsions:
REMARK  status: ('A' for Active; 'I' for Inactive)
REMARK    1  A    between atoms: C_1  and  C_2
REMARK    2  A    between atoms: C_2  and  C_3
REMARK    3  A    between atoms: C_3  and  C_4
REMARK    4  A    between atoms: C_4  and  C_5
REMARK    5  A    between atoms: C_5  and  N_6
REMARK    6  A    between atoms: C_7  and  C_8
REMARK    7  A    between atoms: C_9  and  C_10
REMARK    8  A    between atoms: C_10  and  C_12
REMARK                            x       y       z     vdW  Elec       q    Type
REMARK                         _______ _______ _______ _____ _____    ______ ____
ROOT
ATOM      1  N   UNL     1       4.273   5.170  17.971  0.00  0.00    +0.000 N 
ATOM      2  C   UNL     1       3.844   6.453  17.562  0.00  0.00    +0.000 A 
ATOM      3  C   UNL     1       4.421   7.085  16.336  0.00  0.00    +0.000 C 
ATOM      4  C   UNL     1       2.852   6.996  18.429  0.00  0.00    +0.000 A 
ATOM      5  C   UNL     1       2.570   5.792  19.335  0.00  0.00    +0.000 A 
ATOM      6  C   UNL     1       1.654   5.394  20.369  0.00  0.00    +0.000 A 
ATOM      7  C   UNL     1       1.754   4.141  21.087  0.00  0.00    +0.000 A 
ATOM      8  C   UNL     1       2.735   3.210  20.821  0.00  0.00    +0.000 A 
ATOM      9  C   UNL     1       3.600   3.508  19.775  0.00  0.00    +0.000 A 
ATOM     10  C   UNL     1       3.505   4.755  19.052  0.00  0.00    +0.000 A 
ENDROOT
BRANCH   4  11
ATOM     11  C   UNL     1       2.200   8.630  18.078  0.00  0.00    +0.000 C 
ATOM     12  O   UNL     1       3.063   9.465  17.977  0.00  0.00    +0.000 OA
BRANCH  11  13
ATOM     13  C   UNL     1       0.395   9.258  17.961  0.00  0.00    +0.000 A 
ATOM     14  C   UNL     1       0.776   9.575  19.207  0.00  0.00    +0.000 A 
ATOM     15  C   UNL     1      -0.185   9.561  20.155  0.00  0.00    +0.000 A 
ATOM     16  C   UNL     1      -0.653  10.820  20.104  0.00  0.00    +0.000 A 
ATOM     17 CL   UNL     1       0.163  12.124  20.900  0.00  0.00    +0.000 Cl
ATOM     18  C   UNL     1      -1.395  11.074  19.038  0.00  0.00    +0.000 A 
ATOM     19  C   UNL     1      -2.442  12.113  19.336  0.00  0.00    +0.000 A 
ATOM     20  C   UNL     1      -3.729  12.128  18.907  0.00  0.00    +0.000 A 
ATOM     21  C   UNL     1      -3.966  11.074  18.051  0.00  0.00    +0.000 A 
ATOM     22  C   UNL     1      -2.782  10.149  17.571  0.00  0.00    +0.000 A 
ATOM     23  C   UNL     1      -1.207  10.037  18.005  0.00  0.00    +0.000 A 
ENDBRANCH  11  13
ENDBRANCH   4  11
BRANCH   1  24
ATOM     24  C   UNL     1       5.345   4.357  17.426  0.00  0.00    +0.000 C 
BRANCH  24  25
ATOM     25  C   UNL     1       6.712   4.584  18.068  0.00  0.00    +0.000 C 
BRANCH  25  26
ATOM     26  C   UNL     1       7.498   5.700  17.386  0.00  0.00    +0.000 C 
BRANCH  26  28
ATOM     27  C   UNL     1       7.789   8.186  17.640  0.00  0.00    +0.000 C 
ATOM     28  C   UNL     1       7.794   6.845  18.355  0.00  0.00    +0.000 C 
ENDBRANCH  26  28
ENDBRANCH  25  26
ENDBRANCH  24  25
ENDBRANCH   1  24
TORSDOF 6
ENDMDL
MODEL 5
REMARK VINA RESULT:      -8.8      2.871      8.447
REMARK  Name = 
REMARK  8 active torsions:
REMARK  status: ('A' for Active; 'I' for Inactive)
REMARK    1  A    between atoms: C_1  and  C_2
REMARK    2  A    between atoms: C_2  and  C_3
REMARK    3  A    between atoms: C_3  and  C_4
REMARK    4  A    between atoms: C_4  and  C_5
REMARK    5  A    between atoms: C_5  and  N_6
REMARK    6  A    between atoms: C_7  and  C_8
REMARK    7  A    between atoms: C_9  and  C_10
REMARK    8  A    between atoms: C_10  and  C_12
REMARK                            x       y       z     vdW  Elec       q    Type
REMARK                         _______ _______ _______ _____ _____    ______ ____
ROOT
ATOM      1  N   UNL     1      -1.335  11.230  19.155  0.00  0.00    +0.000 N 
ATOM      2  C   UNL     1      -0.346  10.223  19.218  0.00  0.00    +0.000 A 
ATOM      3  C   UNL     1       0.218   9.641  17.961  0.00  0.00    +0.000 C 
ATOM      4  C   UNL     1       0.002   9.886  20.558  0.00  0.00    +0.000 A 
ATOM      5  C   UNL     1      -0.765  10.962  21.335  0.00  0.00    +0.000 A 
ATOM      6  C   UNL     1      -0.890  11.459  22.678  0.00  0.00    +0.000 A 
ATOM      7  C   UNL     1      -1.828  12.491  23.064  0.00  0.00    +0.000 A 
ATOM      8  C   UNL     1      -2.672  13.102  22.161  0.00  0.00    +0.000 A 
ATOM      9  C   UNL     1      -2.536  12.717  20.834  0.00  0.00    +0.000 A 
ATOM     10  C   UNL     1      -1.601  11.689  20.440  0.00  0.00    +0.000 A 
ENDROOT
BRANCH   4  11
ATOM     11  C   UNL     1       1.232   8.609  20.835  0.00  0.00    +0.000 C 
ATOM     12  O   UNL     1       1.503   8.467  22.001  0.00  0.00    +0.000 OA
BRANCH  11  13
ATOM     13  C   UNL     1       2.239   7.550  19.596  0.00  0.00    +0.000 A 
ATOM     14  C   UNL     1       1.748   6.661  20.471  0.00  0.00    +0.000 A 
ATOM     15  C   UNL     1       2.507   5.571  20.716  0.00  0.00    +0.000 A 
ATOM     16  C   UNL     1       2.077   4.710  19.777  0.00  0.00    +0.000 A 
ATOM     17 CL   UNL     1       0.626   3.789  19.988  0.00  0.00    +0.000 Cl
ATOM     18  C   UNL     1       2.489   4.999  18.553  0.00  0.00    +0.000 A 
ATOM     19  C   UNL     1       2.649   3.755  17.722  0.00  0.00    +0.000 A 
ATOM     20  C   UNL     1       3.638   3.484  16.834  0.00  0.00    +0.000 A 
ATOM     21  C   UNL     1       4.483   4.565  16.704  0.00  0.00    +0.000 A 
ATOM     22  C   UNL     1       4.143   5.936  17.405  0.00  0.00    +0.000 A 
ATOM     23  C   UNL     1       2.992   6.385  18.481  0.00  0.00    +0.000 A 
ENDBRANCH  11  13
ENDBRANCH   4  11
BRANCH   1  24
ATOM     24  C   UNL     1      -2.031  11.745  17.990  0.00  0.00    +0.000 C 
BRANCH  24  25
ATOM     25  C   UNL     1      -3.536  11.485  17.975  0.00  0.00    +0.000 C 
BRANCH  25  26
ATOM     26  C   UNL     1      -4.001  10.830  16.677  0.00  0.00    +0.000 C 
BRANCH  26  28
ATOM     27  C   UNL     1      -2.942  10.107  14.512  0.00  0.00    +0.000 C 
ATOM     28  C   UNL     1      -2.879  10.021  16.029  0.00  0.00    +0.000 C 
ENDBRANCH  26  28
ENDBRANCH  25  26
ENDBRANCH  24  25
ENDBRANCH   1  24
TORSDOF 6
ENDMDL
MODEL 6
REMARK VINA RESULT:      -8.7      2.842      8.480
REMARK  Name = 
REMARK  8 active torsions:
REMARK  status: ('A' for Active; 'I' for Inactive)
REMARK    1  A    between atoms: C_1  and  C_2
REMARK    2  A    between atoms: C_2  and  C_3
REMARK    3  A    between atoms: C_3  and  C_4
REMARK    4  A    between atoms: C_4  and  C_5
REMARK    5  A    between atoms: C_5  and  N_6
REMARK    6  A    between atoms: C_7  and  C_8
REMARK    7  A    between atoms: C_9  and  C_10
REMARK    8  A    between atoms: C_10  and  C_12
REMARK                            x       y       z     vdW  Elec       q    Type
REMARK                         _______ _______ _______ _____ _____    ______ ____
ROOT
ATOM      1  N   UNL     1      -0.826  11.200  19.485  0.00  0.00    +0.000 N 
ATOM      2  C   UNL     1       0.101  10.143  19.620  0.00  0.00    +0.000 A 
ATOM      3  C   UNL     1       0.911   9.697  18.445  0.00  0.00    +0.000 C 
ATOM      4  C   UNL     1       0.140   9.620  20.945  0.00  0.00    +0.000 A 
ATOM      5  C   UNL     1      -0.752  10.628  21.680  0.00  0.00    +0.000 A 
ATOM      6  C   UNL     1      -1.155  10.956  23.020  0.00  0.00    +0.000 A 
ATOM      7  C   UNL     1      -2.129  11.979  23.333  0.00  0.00    +0.000 A 
ATOM      8  C   UNL     1      -2.741  12.744  22.363  0.00  0.00    +0.000 A 
ATOM      9  C   UNL     1      -2.329  12.524  21.055  0.00  0.00    +0.000 A 
ATOM     10  C   UNL     1      -1.354  11.506  20.734  0.00  0.00    +0.000 A 
ENDROOT
BRANCH   4  11
ATOM     11  C   UNL     1       1.249   8.256  21.303  0.00  0.00    +0.000 C 
ATOM     12  O   UNL     1       2.202   8.588  21.961  0.00  0.00    +0.000 OA
BRANCH  11  13
ATOM     13  C   UNL     1       1.219   6.432  20.718  0.00  0.00    +0.000 A 
ATOM     14  C   UNL     1       2.238   6.980  20.042  0.00  0.00    +0.000 A 
ATOM     15  C   UNL     1       2.482   6.486  18.810  0.00  0.00    +0.000 A 
ATOM     16  C   UNL     1       3.345   5.488  19.069  0.00  0.00    +0.000 A 
ATOM     17 CL   UNL     1       5.031   5.789  19.320  0.00  0.00    +0.000 Cl
ATOM     18  C   UNL     1       2.785   4.427  19.629  0.00  0.00    +0.000 A 
ATOM     19  C   UNL     1       3.505   3.163  19.245  0.00  0.00    +0.000 A 
ATOM     20  C   UNL     1       2.950   1.962  18.944  0.00  0.00    +0.000 A 
ATOM     21  C   UNL     1       1.584   2.002  19.119  0.00  0.00    +0.000 A 
ATOM     22  C   UNL     1       0.894   3.269  19.757  0.00  0.00    +0.000 A 
ATOM     23  C   UNL     1       1.448   4.756  20.163  0.00  0.00    +0.000 A 
ENDBRANCH  11  13
ENDBRANCH   4  11
BRANCH   1  24
ATOM     24  C   UNL     1      -1.239  11.895  18.279  0.00  0.00    +0.000 C 
BRANCH  24  25
ATOM     25  C   UNL     1      -2.574  11.434  17.697  0.00  0.00    +0.000 C 
BRANCH  25  26
ATOM     26  C   UNL     1      -2.398  10.430  16.561  0.00  0.00    +0.000 C 
BRANCH  26  28
ATOM     27  C   UNL     1      -3.644   9.859  14.451  0.00  0.00    +0.000 C 
ATOM     28  C   UNL     1      -2.975  10.966  15.251  0.00  0.00    +0.000 C 
ENDBRANCH  26  28
ENDBRANCH  25  26
ENDBRANCH  24  25
ENDBRANCH   1  24
TORSDOF 6
ENDMDL
MODEL 7
REMARK VINA RESULT:      -8.6      1.837      2.429
REMARK  Name = 
REMARK  8 active torsions:
REMARK  status: ('A' for Active; 'I' for Inactive)
REMARK    1  A    between atoms: C_1  and  C_2
REMARK    2  A    between atoms: C_2  and  C_3
REMARK    3  A    between atoms: C_3  and  C_4
REMARK    4  A    between atoms: C_4  and  C_5
REMARK    5  A    between atoms: C_5  and  N_6
REMARK    6  A    between atoms: C_7  and  C_8
REMARK    7  A    between atoms: C_9  and  C_10
REMARK    8  A    between atoms: C_10  and  C_12
REMARK                            x       y       z     vdW  Elec       q    Type
REMARK                         _______ _______ _______ _____ _____    ______ ____
ROOT
ATOM      1  N   UNL     1       3.717   4.915  18.930  0.00  0.00    +0.000 N 
ATOM      2  C   UNL     1       2.935   6.063  19.187  0.00  0.00    +0.000 A 
ATOM      3  C   UNL     1       2.181   6.188  20.473  0.00  0.00    +0.000 C 
ATOM      4  C   UNL     1       2.981   7.004  18.118  0.00  0.00    +0.000 A 
ATOM      5  C   UNL     1       4.063   6.378  17.230  0.00  0.00    +0.000 A 
ATOM      6  C   UNL     1       4.829   6.694  16.055  0.00  0.00    +0.000 A 
ATOM      7  C   UNL     1       5.749   5.769  15.429  0.00  0.00    +0.000 A 
ATOM      8  C   UNL     1       5.983   4.504  15.924  0.00  0.00    +0.000 A 
ATOM      9  C   UNL     1       5.329   4.175  17.105  0.00  0.00    +0.000 A 
ATOM     10  C   UNL     1       4.411   5.094  17.738  0.00  0.00    +0.000 A 
ENDROOT
BRANCH   4  11
ATOM     11  C   UNL     1       2.031   8.519  18.259  0.00  0.00    +0.000 C 
ATOM     12  O   UNL     1       2.081   9.196  17.264  0.00  0.00    +0.000 OA
BRANCH  11  13
ATOM     13  C   UNL     1       1.074   9.263  19.743  0.00  0.00    +0.000 A 
ATOM     14  C   UNL     1       1.150  10.268  18.859  0.00  0.00    +0.000 A 
ATOM     15  C   UNL     1       1.222  11.516  19.368  0.00  0.00    +0.000 A 
ATOM     16  C   UNL     1      -0.074  11.858  19.467  0.00  0.00    +0.000 A 
ATOM     17 CL   UNL     1      -0.969  12.429  18.100  0.00  0.00    +0.000 Cl
ATOM     18  C   UNL     1      -0.715  11.251  20.454  0.00  0.00    +0.000 A 
ATOM     19  C   UNL     1      -1.821  12.112  21.000  0.00  0.00    +0.000 A 
ATOM     20  C   UNL     1      -2.176  12.267  22.300  0.00  0.00    +0.000 A 
ATOM     21  C   UNL     1      -1.427  11.439  23.108  0.00  0.00    +0.000 A 
ATOM     22  C   UNL     1      -0.449  10.374  22.477  0.00  0.00    +0.000 A 
ATOM     23  C   UNL     1       0.052  10.089  20.944  0.00  0.00    +0.000 A 
ENDBRANCH  11  13
ENDBRANCH   4  11
BRANCH   1  24
ATOM     24  C   UNL     1       3.823   3.696  19.711  0.00  0.00    +0.000 C 
BRANCH  24  25
ATOM     25  C   UNL     1       2.995   2.524  19.187  0.00  0.00    +0.000 C 
BRANCH  25  26
ATOM     26  C   UNL     1       1.598   2.950  18.745  0.00  0.00    +0.000 C 
BRANCH  26  28
ATOM     27  C   UNL     1       1.340   2.670  21.232  0.00  0.00    +0.000 C 
ATOM     28  C   UNL     1       0.643   3.047  19.934  0.00  0.00    +0.000 C 
ENDBRANCH  26  28
ENDBRANCH  25  26
ENDBRANCH  24  25
ENDBRANCH   1  24
TORSDOF 6
ENDMDL
MODEL 8
REMARK VINA RESULT:      -8.6      2.300      4.392
REMARK  Name = 
REMARK  8 active torsions:
REMARK  status: ('A' for Active; 'I' for Inactive)
REMARK    1  A    between atoms: C_1  and  C_2
REMARK    2  A    between atoms: C_2  and  C_3
REMARK    3  A    between atoms: C_3  and  C_4
REMARK    4  A    between atoms: C_4  and  C_5
REMARK    5  A    between atoms: C_5  and  N_6
REMARK    6  A    between atoms: C_7  and  C_8
REMARK    7  A    between atoms: C_9  and  C_10
REMARK    8  A    between atoms: C_10  and  C_12
REMARK                            x       y       z     vdW  Elec       q    Type
REMARK                         _______ _______ _______ _____ _____    ______ ____
ROOT
ATOM      1  N   UNL     1       3.382   6.069  18.285  0.00  0.00    +0.000 N 
ATOM      2  C   UNL     1       2.699   7.249  18.655  0.00  0.00    +0.000 A 
ATOM      3  C   UNL     1       2.703   8.437  17.747  0.00  0.00    +0.000 C 
ATOM      4  C   UNL     1       2.056   7.131  19.921  0.00  0.00    +0.000 A 
ATOM      5  C   UNL     1       2.263   5.640  20.212  0.00  0.00    +0.000 A 
ATOM      6  C   UNL     1       1.850   4.645  21.165  0.00  0.00    +0.000 A 
ATOM      7  C   UNL     1       2.344   3.285  21.164  0.00  0.00    +0.000 A 
ATOM      8  C   UNL     1       3.244   2.823  20.228  0.00  0.00    +0.000 A 
ATOM      9  C   UNL     1       3.615   3.720  19.235  0.00  0.00    +0.000 A 
ATOM     10  C   UNL     1       3.125   5.079  19.227  0.00  0.00    +0.000 A 
ENDROOT
BRANCH   4  11
ATOM     11  C   UNL     1       1.152   8.541  20.565  0.00  0.00    +0.000 C 
ATOM     12  O   UNL     1       0.264   8.223  21.315  0.00  0.00    +0.000 OA
BRANCH  11  13
ATOM     13  C   UNL     1       1.297  10.408  20.166  0.00  0.00    +0.000 A 
ATOM     14  C   UNL     1       0.177  10.022  19.540  0.00  0.00    +0.000 A 
ATOM     15  C   UNL     1      -0.129  10.665  18.393  0.00  0.00    +0.000 A 
ATOM     16  C   UNL     1      -0.870  11.695  18.834  0.00  0.00    +0.000 A 
ATOM     17 CL   UNL     1      -2.549  11.507  19.216  0.00  0.00    +0.000 Cl
ATOM     18  C   UNL     1      -0.170  12.641  19.440  0.00  0.00    +0.000 A 
ATOM     19  C   UNL     1      -0.802  13.993  19.257  0.00  0.00    +0.000 A 
ATOM     20  C   UNL     1      -0.169  15.171  19.026  0.00  0.00    +0.000 A 
ATOM     21  C   UNL     1       1.198  15.001  19.063  0.00  0.00    +0.000 A 
ATOM     22  C   UNL     1       1.823  13.620  19.501  0.00  0.00    +0.000 A 
ATOM     23  C   UNL     1       1.173  12.148  19.807  0.00  0.00    +0.000 A 
ENDBRANCH  11  13
ENDBRANCH   4  11
BRANCH   1  24
ATOM     24  C   UNL     1       4.250   5.843  17.143  0.00  0.00    +0.000 C 
BRANCH  24  25
ATOM     25  C   UNL     1       5.602   6.550  17.215  0.00  0.00    +0.000 C 
BRANCH  25  26
ATOM     26  C   UNL     1       6.585   5.833  18.136  0.00  0.00    +0.000 C 
BRANCH  26  28
ATOM     27  C   UNL     1       7.772   7.991  17.619  0.00  0.00    +0.000 C 
ATOM     28  C   UNL     1       7.821   6.691  18.405  0.00  0.00    +0.000 C 
ENDBRANCH  26  28
ENDBRANCH  25  26
ENDBRANCH  24  25
ENDBRANCH   1  24
TORSDOF 6
ENDMDL
MODEL 9
REMARK VINA RESULT:      -8.5      2.809      8.703
REMARK  Name = 
REMARK  8 active torsions:
REMARK  status: ('A' for Active; 'I' for Inactive)
REMARK    1  A    between atoms: C_1  and  C_2
REMARK    2  A    between atoms: C_2  and  C_3
REMARK    3  A    between atoms: C_3  and  C_4
REMARK    4  A    between atoms: C_4  and  C_5
REMARK    5  A    between atoms: C_5  and  N_6
REMARK    6  A    between atoms: C_7  and  C_8
REMARK    7  A    between atoms: C_9  and  C_10
REMARK    8  A    between atoms: C_10  and  C_12
REMARK                            x       y       z     vdW  Elec       q    Type
REMARK                         _______ _______ _______ _____ _____    ______ ____
ROOT
ATOM      1  N   UNL     1      -1.320  11.210  19.088  0.00  0.00    +0.000 N 
ATOM      2  C   UNL     1      -0.296  10.241  19.181  0.00  0.00    +0.000 A 
ATOM      3  C   UNL     1       0.378   9.736  17.945  0.00  0.00    +0.000 C 
ATOM      4  C   UNL     1      -0.030   9.859  20.528  0.00  0.00    +0.000 A 
ATOM      5  C   UNL     1      -0.894  10.870  21.291  0.00  0.00    +0.000 A 
ATOM      6  C   UNL     1      -1.134  11.303  22.640  0.00  0.00    +0.000 A 
ATOM      7  C   UNL     1      -2.139  12.280  22.999  0.00  0.00    +0.000 A 
ATOM      8  C   UNL     1      -2.942  12.897  22.063  0.00  0.00    +0.000 A 
ATOM      9  C   UNL     1      -2.697  12.576  20.735  0.00  0.00    +0.000 A 
ATOM     10  C   UNL     1      -1.694  11.603  20.367  0.00  0.00    +0.000 A 
ENDROOT
BRANCH   4  11
ATOM     11  C   UNL     1       1.230   8.620  20.841  0.00  0.00    +0.000 C 
ATOM     12  O   UNL     1       1.522   8.536  22.007  0.00  0.00    +0.000 OA
BRANCH  11  13
ATOM     13  C   UNL     1       2.237   7.527  19.634  0.00  0.00    +0.000 A 
ATOM     14  C   UNL     1       1.715   6.658  20.511  0.00  0.00    +0.000 A 
ATOM     15  C   UNL     1       2.449   5.558  20.783  0.00  0.00    +0.000 A 
ATOM     16  C   UNL     1       2.019   4.692  19.848  0.00  0.00    +0.000 A 
ATOM     17 CL   UNL     1       0.547   3.802  20.045  0.00  0.00    +0.000 Cl
ATOM     18  C   UNL     1       2.458   4.957  18.628  0.00  0.00    +0.000 A 
ATOM     19  C   UNL     1       2.609   3.700  17.815  0.00  0.00    +0.000 A 
ATOM     20  C   UNL     1       3.608   3.399  16.948  0.00  0.00    +0.000 A 
ATOM     21  C   UNL     1       4.475   4.462  16.819  0.00  0.00    +0.000 A 
ATOM     22  C   UNL     1       4.149   5.849  17.497  0.00  0.00    +0.000 A 
ATOM     23  C   UNL     1       2.988   6.333  18.546  0.00  0.00    +0.000 A 
ENDBRANCH  11  13
ENDBRANCH   4  11
BRANCH   1  24
ATOM     24  C   UNL     1      -1.953  11.748  17.897  0.00  0.00    +0.000 C 
BRANCH  24  25
ATOM     25  C   UNL     1      -2.708  10.724  17.053  0.00  0.00    +0.000 C 
BRANCH  25  26
ATOM     26  C   UNL     1      -4.067  11.242  16.587  0.00  0.00    +0.000 C 
BRANCH  26  28
ATOM     27  C   UNL     1      -6.048  12.634  17.269  0.00  0.00    +0.000 C 
ATOM     28  C   UNL     1      -4.888  11.781  17.758  0.00  0.00    +0.000 C 
ENDBRANCH  26  28
ENDBRANCH  25  26
ENDBRANCH  24  25
ENDBRANCH   1  24
TORSDOF 6
ENDMDL
