MODEL 1
REMARK VINA RESULT:      -7.2      0.000      0.000
REMARK  Name = 
REMARK  9 active torsions:
REMARK  status: ('A' for Active; 'I' for Inactive)
REMARK    1  A    between atoms: C_1  and  C_2
REMARK    2  A    between atoms: C_4  and  C_5
REMARK    3  A    between atoms: N_6  and  C_7
REMARK    4  A    between atoms: C_7  and  C_8
REMARK    5  A    between atoms: C_8  and  O_9
REMARK    6  A    between atoms: C_8  and  C_10
REMARK    7  A    between atoms: C_10  and  N_11
REMARK    8  A    between atoms: C_12  and  C_13
REMARK    9  A    between atoms: C_14  and  C_15
REMARK                            x       y       z     vdW  Elec       q    Type
REMARK                         _______ _______ _______ _____ _____    ______ ____
ROOT
ATOM      1  C   UNL     1       2.587   7.533  19.183  0.00  0.00    +0.000 C 
ENDROOT
BRANCH   1   2
ATOM      2  N   UNL     1       2.858   6.189  18.632  0.00  0.00    +0.000 N 
ATOM      3  C   UNL     1       3.818   5.943  17.644  0.00  0.00    +0.000 A 
ATOM      4  C   UNL     1       4.711   6.968  17.025  0.00  0.00    +0.000 C 
ATOM      5  C   UNL     1       3.794   4.589  17.342  0.00  0.00    +0.000 A 
ATOM      6  C   UNL     1       4.685   3.837  16.413  0.00  0.00    +0.000 C 
ATOM      7  C   UNL     1       2.745   4.006  18.096  0.00  0.00    +0.000 A 
ATOM      8  C   UNL     1       2.209   2.698  18.122  0.00  0.00    +0.000 A 
ATOM      9  C   UNL     1       1.204   2.372  19.027  0.00  0.00    +0.000 A 
ATOM     10  C   UNL     1       0.771   3.318  19.941  0.00  0.00    +0.000 A 
ATOM     11  C   UNL     1       1.292   4.620  19.939  0.00  0.00    +0.000 A 
ATOM     12  C   UNL     1       2.247   4.983  18.969  0.00  0.00    +0.000 A 
ENDBRANCH   1   2
BRANCH   1  13
ATOM     13  C   UNL     1       1.567   8.445  18.473  0.00  0.00    +0.000 C 
BRANCH  13  14
ATOM     14  O   UNL     1       2.199   9.128  17.379  0.00  0.00    +0.000 OA
ATOM     15  H   UNL     1       2.495  10.010  17.674  0.00  0.00    +0.000 HD
ENDBRANCH  13  14
BRANCH  13  16
ATOM     16  C   UNL     1       0.916   9.544  19.346  0.00  0.00    +0.000 C 
BRANCH  16  22
ATOM     17  C   UNL     1      -2.612  10.727  16.253  0.00  0.00    +0.000 C 
ATOM     18  C   UNL     1      -1.857  10.671  17.527  0.00  0.00    +0.000 A 
ATOM     19  C   UNL     1      -2.097  11.421  18.696  0.00  0.00    +0.000 A 
ATOM     20  C   UNL     1      -1.092  11.065  19.569  0.00  0.00    +0.000 A 
ATOM     21  C   UNL     1      -0.805  11.585  20.929  0.00  0.00    +0.000 C 
ATOM     22  N   UNL     1      -0.338  10.120  18.904  0.00  0.00    +0.000 N 
ATOM     23  N   UNL     1      -0.794   9.869  17.663  0.00  0.00    +0.000 NA
ENDBRANCH  16  22
ENDBRANCH  13  16
ENDBRANCH   1  13
TORSDOF 5
ENDMDL
MODEL 2
REMARK VINA RESULT:      -7.1      3.868      7.621
REMARK  Name = 
REMARK  9 active torsions:
REMARK  status: ('A' for Active; 'I' for Inactive)
REMARK    1  A    between atoms: C_1  and  C_2
REMARK    2  A    between atoms: C_4  and  C_5
REMARK    3  A    between atoms: N_6  and  C_7
REMARK    4  A    between atoms: C_7  and  C_8
REMARK    5  A    between atoms: C_8  and  O_9
REMARK    6  A    between atoms: C_8  and  C_10
REMARK    7  A    between atoms: C_10  and  N_11
REMARK    8  A    between atoms: C_12  and  C_13
REMARK    9  A    between atoms: C_14  and  C_15
REMARK                            x       y       z     vdW  Elec       q    Type
REMARK                         _______ _______ _______ _____ _____    ______ ____
ROOT
ATOM      1  C   UNL     1       4.304   4.454  16.219  0.00  0.00    +0.000 C 
ENDROOT
BRANCH   1   2
ATOM      2  N   UNL     1       3.524   4.792  17.426  0.00  0.00    +0.000 N 
ATOM      3  C   UNL     1       3.442   6.087  17.950  0.00  0.00    +0.000 A 
ATOM      4  C   UNL     1       4.093   7.302  17.373  0.00  0.00    +0.000 C 
ATOM      5  C   UNL     1       2.655   6.046  19.092  0.00  0.00    +0.000 A 
ATOM      6  C   UNL     1       2.214   7.183  19.949  0.00  0.00    +0.000 C 
ATOM      7  C   UNL     1       2.315   4.688  19.323  0.00  0.00    +0.000 A 
ATOM      8  C   UNL     1       1.619   4.050  20.374  0.00  0.00    +0.000 A 
ATOM      9  C   UNL     1       1.360   2.684  20.314  0.00  0.00    +0.000 A 
ATOM     10  C   UNL     1       1.738   1.964  19.193  0.00  0.00    +0.000 A 
ATOM     11  C   UNL     1       2.423   2.577  18.135  0.00  0.00    +0.000 A 
ATOM     12  C   UNL     1       2.766   3.939  18.227  0.00  0.00    +0.000 A 
ENDBRANCH   1   2
BRANCH   1  13
ATOM     13  C   UNL     1       5.773   4.014  16.372  0.00  0.00    +0.000 C 
BRANCH  13  14
ATOM     14  O   UNL     1       6.237   4.307  17.698  0.00  0.00    +0.000 OA
ATOM     15  H   UNL     1       7.090   4.779  17.649  0.00  0.00    +0.000 HD
ENDBRANCH  13  14
BRANCH  13  16
ATOM     16  C   UNL     1       6.785   4.681  15.408  0.00  0.00    +0.000 C 
BRANCH  16  22
ATOM     17  C   UNL     1       5.405   2.285  11.436  0.00  0.00    +0.000 C 
ATOM     18  C   UNL     1       6.112   3.291  12.264  0.00  0.00    +0.000 A 
ATOM     19  C   UNL     1       7.141   4.163  11.854  0.00  0.00    +0.000 A 
ATOM     20  C   UNL     1       7.514   4.845  12.992  0.00  0.00    +0.000 A 
ATOM     21  C   UNL     1       8.595   5.846  13.172  0.00  0.00    +0.000 C 
ATOM     22  N   UNL     1       6.689   4.377  13.994  0.00  0.00    +0.000 N 
ATOM     23  N   UNL     1       5.830   3.435  13.564  0.00  0.00    +0.000 NA
ENDBRANCH  16  22
ENDBRANCH  13  16
ENDBRANCH   1  13
TORSDOF 5
ENDMDL
MODEL 3
REMARK VINA RESULT:      -7.0      0.518      2.769
REMARK  Name = 
REMARK  9 active torsions:
REMARK  status: ('A' for Active; 'I' for Inactive)
REMARK    1  A    between atoms: C_1  and  C_2
REMARK    2  A    between atoms: C_4  and  C_5
REMARK    3  A    between atoms: N_6  and  C_7
REMARK    4  A    between atoms: C_7  and  C_8
REMARK    5  A    between atoms: C_8  and  O_9
REMARK    6  A    between atoms: C_8  and  C_10
REMARK    7  A    between atoms: C_10  and  N_11
REMARK    8  A    between atoms: C_12  and  C_13
REMARK    9  A    between atoms: C_14  and  C_15
REMARK                            x       y       z     vdW  Elec       q    Type
REMARK                         _______ _______ _______ _____ _____    ______ ____
ROOT
ATOM      1  C   UNL     1       2.593   7.384  19.235  0.00  0.00    +0.000 C 
ENDROOT
BRANCH   1   2
ATOM      2  N   UNL     1       2.881   6.087  18.589  0.00  0.00    +0.000 N 
ATOM      3  C   UNL     1       2.276   4.885  18.974  0.00  0.00    +0.000 A 
ATOM      4  C   UNL     1       1.255   4.733  20.053  0.00  0.00    +0.000 C 
ATOM      5  C   UNL     1       2.788   3.867  18.182  0.00  0.00    +0.000 A 
ATOM      6  C   UNL     1       2.396   2.429  18.163  0.00  0.00    +0.000 C 
ATOM      7  C   UNL     1       3.787   4.438  17.353  0.00  0.00    +0.000 A 
ATOM      8  C   UNL     1       4.691   3.868  16.427  0.00  0.00    +0.000 A 
ATOM      9  C   UNL     1       5.535   4.685  15.681  0.00  0.00    +0.000 A 
ATOM     10  C   UNL     1       5.446   6.061  15.809  0.00  0.00    +0.000 A 
ATOM     11  C   UNL     1       4.553   6.649  16.715  0.00  0.00    +0.000 A 
ATOM     12  C   UNL     1       3.757   5.828  17.536  0.00  0.00    +0.000 A 
ENDBRANCH   1   2
BRANCH   1  13
ATOM     13  C   UNL     1       1.614   8.360  18.555  0.00  0.00    +0.000 C 
BRANCH  13  14
ATOM     14  O   UNL     1       2.261   9.018  17.456  0.00  0.00    +0.000 OA
ATOM     15  H   UNL     1       3.187   8.717  17.395  0.00  0.00    +0.000 HD
ENDBRANCH  13  14
BRANCH  13  16
ATOM     16  C   UNL     1       1.045   9.486  19.453  0.00  0.00    +0.000 C 
BRANCH  16  22
ATOM     17  C   UNL     1      -2.532  10.876  16.504  0.00  0.00    +0.000 C 
ATOM     18  C   UNL     1      -1.748  10.746  17.756  0.00  0.00    +0.000 A 
ATOM     19  C   UNL     1      -1.946  11.446  18.963  0.00  0.00    +0.000 A 
ATOM     20  C   UNL     1      -0.927  11.031  19.794  0.00  0.00    +0.000 A 
ATOM     21  C   UNL     1      -0.599  11.482  21.169  0.00  0.00    +0.000 C 
ATOM     22  N   UNL     1      -0.207  10.105  19.068  0.00  0.00    +0.000 N 
ATOM     23  N   UNL     1      -0.698   9.920  17.828  0.00  0.00    +0.000 NA
ENDBRANCH  16  22
ENDBRANCH  13  16
ENDBRANCH   1  13
TORSDOF 5
ENDMDL
MODEL 4
REMARK VINA RESULT:      -7.0      1.261      1.815
REMARK  Name = 
REMARK  9 active torsions:
REMARK  status: ('A' for Active; 'I' for Inactive)
REMARK    1  A    between atoms: C_1  and  C_2
REMARK    2  A    between atoms: C_4  and  C_5
REMARK    3  A    between atoms: N_6  and  C_7
REMARK    4  A    between atoms: C_7  and  C_8
REMARK    5  A    between atoms: C_8  and  O_9
REMARK    6  A    between atoms: C_8  and  C_10
REMARK    7  A    between atoms: C_10  and  N_11
REMARK    8  A    between atoms: C_12  and  C_13
REMARK    9  A    between atoms: C_14  and  C_15
REMARK                            x       y       z     vdW  Elec       q    Type
REMARK                         _______ _______ _______ _____ _____    ______ ____
ROOT
ATOM      1  C   UNL     1       2.672   7.653  19.155  0.00  0.00    +0.000 C 
ENDROOT
BRANCH   1   2
ATOM      2  N   UNL     1       2.896   6.283  18.651  0.00  0.00    +0.000 N 
ATOM      3  C   UNL     1       3.802   5.980  17.629  0.00  0.00    +0.000 A 
ATOM      4  C   UNL     1       4.678   6.963  16.923  0.00  0.00    +0.000 C 
ATOM      5  C   UNL     1       3.746   4.615  17.388  0.00  0.00    +0.000 A 
ATOM      6  C   UNL     1       4.578   3.809  16.449  0.00  0.00    +0.000 C 
ATOM      7  C   UNL     1       2.727   4.080  18.217  0.00  0.00    +0.000 A 
ATOM      8  C   UNL     1       2.175   2.784  18.326  0.00  0.00    +0.000 A 
ATOM      9  C   UNL     1       1.212   2.513  19.293  0.00  0.00    +0.000 A 
ATOM     10  C   UNL     1       0.838   3.504  20.185  0.00  0.00    +0.000 A 
ATOM     11  C   UNL     1       1.377   4.796  20.101  0.00  0.00    +0.000 A 
ATOM     12  C   UNL     1       2.286   5.102  19.071  0.00  0.00    +0.000 A 
ENDBRANCH   1   2
BRANCH   1  13
ATOM     13  C   UNL     1       1.596   8.532  18.489  0.00  0.00    +0.000 C 
BRANCH  13  14
ATOM     14  O   UNL     1       2.199   9.378  17.497  0.00  0.00    +0.000 OA
ATOM     15  H   UNL     1       1.529   9.990  17.140  0.00  0.00    +0.000 HD
ENDBRANCH  13  14
BRANCH  13  16
ATOM     16  C   UNL     1       0.808   9.473  19.432  0.00  0.00    +0.000 C 
BRANCH  16  22
ATOM     17  C   UNL     1       1.158  14.258  18.793  0.00  0.00    +0.000 C 
ATOM     18  C   UNL     1       0.585  12.893  18.708  0.00  0.00    +0.000 A 
ATOM     19  C   UNL     1      -0.703  12.534  18.260  0.00  0.00    +0.000 A 
ATOM     20  C   UNL     1      -0.782  11.170  18.438  0.00  0.00    +0.000 A 
ATOM     21  C   UNL     1      -1.929  10.259  18.197  0.00  0.00    +0.000 C 
ATOM     22  N   UNL     1       0.444  10.788  18.943  0.00  0.00    +0.000 N 
ATOM     23  N   UNL     1       1.285  11.826  19.109  0.00  0.00    +0.000 NA
ENDBRANCH  16  22
ENDBRANCH  13  16
ENDBRANCH   1  13
TORSDOF 5
ENDMDL
MODEL 5
REMARK VINA RESULT:      -6.9      3.864      7.732
REMARK  Name = 
REMARK  9 active torsions:
REMARK  status: ('A' for Active; 'I' for Inactive)
REMARK    1  A    between atoms: C_1  and  C_2
REMARK    2  A    between atoms: C_4  and  C_5
REMARK    3  A    between atoms: N_6  and  C_7
REMARK    4  A    between atoms: C_7  and  C_8
REMARK    5  A    between atoms: C_8  and  O_9
REMARK    6  A    between atoms: C_8  and  C_10
REMARK    7  A    between atoms: C_10  and  N_11
REMARK    8  A    between atoms: C_12  and  C_13
REMARK    9  A    between atoms: C_14  and  C_15
REMARK                            x       y       z     vdW  Elec       q    Type
REMARK                         _______ _______ _______ _____ _____    ______ ____
ROOT
ATOM      1  C   UNL     1       5.657   4.662  17.551  0.00  0.00    +0.000 C 
ENDROOT
BRANCH   1   2
ATOM      2  N   UNL     1       4.476   5.153  18.289  0.00  0.00    +0.000 N 
ATOM      3  C   UNL     1       3.935   6.431  18.111  0.00  0.00    +0.000 A 
ATOM      4  C   UNL     1       4.439   7.463  17.155  0.00  0.00    +0.000 C 
ATOM      5  C   UNL     1       2.856   6.571  18.971  0.00  0.00    +0.000 A 
ATOM      6  C   UNL     1       1.915   7.721  19.090  0.00  0.00    +0.000 C 
ATOM      7  C   UNL     1       2.782   5.390  19.753  0.00  0.00    +0.000 A 
ATOM      8  C   UNL     1       1.952   5.019  20.835  0.00  0.00    +0.000 A 
ATOM      9  C   UNL     1       2.047   3.744  21.385  0.00  0.00    +0.000 A 
ATOM     10  C   UNL     1       2.919   2.823  20.830  0.00  0.00    +0.000 A 
ATOM     11  C   UNL     1       3.747   3.165  19.752  0.00  0.00    +0.000 A 
ATOM     12  C   UNL     1       3.719   4.479  19.246  0.00  0.00    +0.000 A 
ENDBRANCH   1   2
BRANCH   1  13
ATOM     13  C   UNL     1       5.496   4.220  16.084  0.00  0.00    +0.000 C 
BRANCH  13  14
ATOM     14  O   UNL     1       5.937   2.862  15.930  0.00  0.00    +0.000 OA
ATOM     15  H   UNL     1       6.487   2.609  16.695  0.00  0.00    +0.000 HD
ENDBRANCH  13  14
BRANCH  13  16
ATOM     16  C   UNL     1       6.280   5.046  15.035  0.00  0.00    +0.000 C 
BRANCH  16  22
ATOM     17  C   UNL     1       5.474   2.038  11.331  0.00  0.00    +0.000 C 
ATOM     18  C   UNL     1       6.074   3.161  12.090  0.00  0.00    +0.000 A 
ATOM     19  C   UNL     1       7.184   3.945  11.719  0.00  0.00    +0.000 A 
ATOM     20  C   UNL     1       7.393   4.803  12.778  0.00  0.00    +0.000 A 
ATOM     21  C   UNL     1       8.465   5.811  12.969  0.00  0.00    +0.000 C 
ATOM     22  N   UNL     1       6.402   4.514  13.693  0.00  0.00    +0.000 N 
ATOM     23  N   UNL     1       5.591   3.520  13.286  0.00  0.00    +0.000 NA
ENDBRANCH  16  22
ENDBRANCH  13  16
ENDBRANCH   1  13
TORSDOF 5
ENDMDL
MODEL 6
REMARK VINA RESULT:      -6.9      4.004      7.652
REMARK  Name = 
REMARK  9 active torsions:
REMARK  status: ('A' for Active; 'I' for Inactive)
REMARK    1  A    between atoms: C_1  and  C_2
REMARK    2  A    between atoms: C_4  and  C_5
REMARK    3  A    between atoms: N_6  and  C_7
REMARK    4  A    between atoms: C_7  and  C_8
REMARK    5  A    between atoms: C_8  and  O_9
REMARK    6  A    between atoms: C_8  and  C_10
REMARK    7  A    between atoms: C_10  and  N_11
REMARK    8  A    between atoms: C_12  and  C_13
REMARK    9  A    between atoms: C_14  and  C_15
REMARK                            x       y       z     vdW  Elec       q    Type
REMARK                         _______ _______ _______ _____ _____    ______ ____
ROOT
ATOM      1  C   UNL     1       6.142   4.588  17.749  0.00  0.00    +0.000 C 
ENDROOT
BRANCH   1   2
ATOM      2  N   UNL     1       4.704   4.907  17.865  0.00  0.00    +0.000 N 
ATOM      3  C   UNL     1       4.204   6.214  17.853  0.00  0.00    +0.000 A 
ATOM      4  C   UNL     1       5.021   7.456  17.701  0.00  0.00    +0.000 C 
ATOM      5  C   UNL     1       2.827   6.154  18.005  0.00  0.00    +0.000 A 
ATOM      6  C   UNL     1       1.847   7.278  17.974  0.00  0.00    +0.000 C 
ATOM      7  C   UNL     1       2.481   4.793  18.199  0.00  0.00    +0.000 A 
ATOM      8  C   UNL     1       1.252   4.158  18.493  0.00  0.00    +0.000 A 
ATOM      9  C   UNL     1       1.181   2.771  18.563  0.00  0.00    +0.000 A 
ATOM     10  C   UNL     1       2.307   2.012  18.289  0.00  0.00    +0.000 A 
ATOM     11  C   UNL     1       3.534   2.618  17.988  0.00  0.00    +0.000 A 
ATOM     12  C   UNL     1       3.636   4.023  18.001  0.00  0.00    +0.000 A 
ENDBRANCH   1   2
BRANCH   1  13
ATOM     13  C   UNL     1       6.714   4.191  16.374  0.00  0.00    +0.000 C 
BRANCH  13  14
ATOM     14  O   UNL     1       8.148   4.144  16.435  0.00  0.00    +0.000 OA
ATOM     15  H   UNL     1       8.434   3.247  16.691  0.00  0.00    +0.000 HD
ENDBRANCH  13  14
BRANCH  13  16
ATOM     16  C   UNL     1       6.367   5.133  15.196  0.00  0.00    +0.000 C 
BRANCH  16  22
ATOM     17  C   UNL     1       5.376   2.173  11.498  0.00  0.00    +0.000 C 
ATOM     18  C   UNL     1       6.030   3.272  12.248  0.00  0.00    +0.000 A 
ATOM     19  C   UNL     1       7.157   4.020  11.855  0.00  0.00    +0.000 A 
ATOM     20  C   UNL     1       7.419   4.865  12.913  0.00  0.00    +0.000 A 
ATOM     21  C   UNL     1       8.528   5.837  13.083  0.00  0.00    +0.000 C 
ATOM     22  N   UNL     1       6.440   4.604  13.849  0.00  0.00    +0.000 N 
ATOM     23  N   UNL     1       5.587   3.640  13.456  0.00  0.00    +0.000 NA
ENDBRANCH  16  22
ENDBRANCH  13  16
ENDBRANCH   1  13
TORSDOF 5
ENDMDL
MODEL 7
REMARK VINA RESULT:      -6.8      3.759      6.863
REMARK  Name = 
REMARK  9 active torsions:
REMARK  status: ('A' for Active; 'I' for Inactive)
REMARK    1  A    between atoms: C_1  and  C_2
REMARK    2  A    between atoms: C_4  and  C_5
REMARK    3  A    between atoms: N_6  and  C_7
REMARK    4  A    between atoms: C_7  and  C_8
REMARK    5  A    between atoms: C_8  and  O_9
REMARK    6  A    between atoms: C_8  and  C_10
REMARK    7  A    between atoms: C_10  and  N_11
REMARK    8  A    between atoms: C_12  and  C_13
REMARK    9  A    between atoms: C_14  and  C_15
REMARK                            x       y       z     vdW  Elec       q    Type
REMARK                         _______ _______ _______ _____ _____    ______ ____
ROOT
ATOM      1  C   UNL     1       2.972   3.737  16.986  0.00  0.00    +0.000 C 
ENDROOT
BRANCH   1   2
ATOM      2  N   UNL     1       2.484   4.049  18.344  0.00  0.00    +0.000 N 
ATOM      3  C   UNL     1       2.058   3.073  19.251  0.00  0.00    +0.000 A 
ATOM      4  C   UNL     1       2.053   1.599  19.004  0.00  0.00    +0.000 C 
ATOM      5  C   UNL     1       1.646   3.708  20.413  0.00  0.00    +0.000 A 
ATOM      6  C   UNL     1       1.186   3.088  21.689  0.00  0.00    +0.000 C 
ATOM      7  C   UNL     1       1.739   5.105  20.188  0.00  0.00    +0.000 A 
ATOM      8  C   UNL     1       1.371   6.220  20.975  0.00  0.00    +0.000 A 
ATOM      9  C   UNL     1       1.644   7.510  20.531  0.00  0.00    +0.000 A 
ATOM     10  C   UNL     1       2.329   7.695  19.342  0.00  0.00    +0.000 A 
ATOM     11  C   UNL     1       2.711   6.605  18.548  0.00  0.00    +0.000 A 
ATOM     12  C   UNL     1       2.361   5.300  18.947  0.00  0.00    +0.000 A 
ENDBRANCH   1   2
BRANCH   1  13
ATOM     13  C   UNL     1       4.373   3.119  16.814  0.00  0.00    +0.000 C 
BRANCH  13  14
ATOM     14  O   UNL     1       4.985   2.927  18.098  0.00  0.00    +0.000 OA
ATOM     15  H   UNL     1       4.298   2.719  18.759  0.00  0.00    +0.000 HD
ENDBRANCH  13  14
BRANCH  13  16
ATOM     16  C   UNL     1       5.381   3.945  15.978  0.00  0.00    +0.000 C 
BRANCH  16  22
ATOM     17  C   UNL     1       8.192   6.163  19.233  0.00  0.00    +0.000 C 
ATOM     18  C   UNL     1       7.269   6.012  18.083  0.00  0.00    +0.000 A 
ATOM     19  C   UNL     1       6.596   7.037  17.389  0.00  0.00    +0.000 A 
ATOM     20  C   UNL     1       5.810   6.390  16.459  0.00  0.00    +0.000 A 
ATOM     21  C   UNL     1       4.839   6.962  15.493  0.00  0.00    +0.000 C 
ATOM     22  N   UNL     1       6.069   5.045  16.623  0.00  0.00    +0.000 N 
ATOM     23  N   UNL     1       6.958   4.801  17.605  0.00  0.00    +0.000 NA
ENDBRANCH  16  22
ENDBRANCH  13  16
ENDBRANCH   1  13
TORSDOF 5
ENDMDL
MODEL 8
REMARK VINA RESULT:      -6.8      3.827      7.919
REMARK  Name = 
REMARK  9 active torsions:
REMARK  status: ('A' for Active; 'I' for Inactive)
REMARK    1  A    between atoms: C_1  and  C_2
REMARK    2  A    between atoms: C_4  and  C_5
REMARK    3  A    between atoms: N_6  and  C_7
REMARK    4  A    between atoms: C_7  and  C_8
REMARK    5  A    between atoms: C_8  and  O_9
REMARK    6  A    between atoms: C_8  and  C_10
REMARK    7  A    between atoms: C_10  and  N_11
REMARK    8  A    between atoms: C_12  and  C_13
REMARK    9  A    between atoms: C_14  and  C_15
REMARK                            x       y       z     vdW  Elec       q    Type
REMARK                         _______ _______ _______ _____ _____    ______ ____
ROOT
ATOM      1  C   UNL     1       4.473   3.739  16.590  0.00  0.00    +0.000 C 
ENDROOT
BRANCH   1   2
ATOM      2  N   UNL     1       3.810   4.290  17.789  0.00  0.00    +0.000 N 
ATOM      3  C   UNL     1       3.454   3.511  18.896  0.00  0.00    +0.000 A 
ATOM      4  C   UNL     1       3.702   2.046  19.044  0.00  0.00    +0.000 C 
ATOM      5  C   UNL     1       2.834   4.334  19.825  0.00  0.00    +0.000 A 
ATOM      6  C   UNL     1       2.351   3.981  21.191  0.00  0.00    +0.000 C 
ATOM      7  C   UNL     1       2.731   5.625  19.246  0.00  0.00    +0.000 A 
ATOM      8  C   UNL     1       2.118   6.818  19.690  0.00  0.00    +0.000 A 
ATOM      9  C   UNL     1       2.230   7.984  18.939  0.00  0.00    +0.000 A 
ATOM     10  C   UNL     1       2.993   7.983  17.784  0.00  0.00    +0.000 A 
ATOM     11  C   UNL     1       3.617   6.814  17.327  0.00  0.00    +0.000 A 
ATOM     12  C   UNL     1       3.436   5.610  18.034  0.00  0.00    +0.000 A 
ENDBRANCH   1   2
BRANCH   1  13
ATOM     13  C   UNL     1       6.004   3.858  16.456  0.00  0.00    +0.000 C 
BRANCH  13  14
ATOM     14  O   UNL     1       6.578   4.246  17.714  0.00  0.00    +0.000 OA
ATOM     15  H   UNL     1       5.904   4.175  18.415  0.00  0.00    +0.000 HD
ENDBRANCH  13  14
BRANCH  13  16
ATOM     16  C   UNL     1       6.517   4.884  15.417  0.00  0.00    +0.000 C 
BRANCH  16  22
ATOM     17  C   UNL     1       5.298   2.349  11.479  0.00  0.00    +0.000 C 
ATOM     18  C   UNL     1       6.000   3.359  12.306  0.00  0.00    +0.000 A 
ATOM     19  C   UNL     1       7.106   4.149  11.933  0.00  0.00    +0.000 A 
ATOM     20  C   UNL     1       7.433   4.872  13.060  0.00  0.00    +0.000 A 
ATOM     21  C   UNL     1       8.554   5.821  13.271  0.00  0.00    +0.000 C 
ATOM     22  N   UNL     1       6.509   4.508  14.018  0.00  0.00    +0.000 N 
ATOM     23  N   UNL     1       5.630   3.591  13.571  0.00  0.00    +0.000 NA
ENDBRANCH  16  22
ENDBRANCH  13  16
ENDBRANCH   1  13
TORSDOF 5
ENDMDL
MODEL 9
REMARK VINA RESULT:      -6.8      2.738      4.483
REMARK  Name = 
REMARK  9 active torsions:
REMARK  status: ('A' for Active; 'I' for Inactive)
REMARK    1  A    between atoms: C_1  and  C_2
REMARK    2  A    between atoms: C_4  and  C_5
REMARK    3  A    between atoms: N_6  and  C_7
REMARK    4  A    between atoms: C_7  and  C_8
REMARK    5  A    between atoms: C_8  and  O_9
REMARK    6  A    between atoms: C_8  and  C_10
REMARK    7  A    between atoms: C_10  and  N_11
REMARK    8  A    between atoms: C_12  and  C_13
REMARK    9  A    between atoms: C_14  and  C_15
REMARK                            x       y       z     vdW  Elec       q    Type
REMARK                         _______ _______ _______ _____ _____    ______ ____
ROOT
ATOM      1  C   UNL     1       3.278   4.042  19.952  0.00  0.00    +0.000 C 
ENDROOT
BRANCH   1   2
ATOM      2  N   UNL     1       4.149   4.204  18.770  0.00  0.00    +0.000 N 
ATOM      3  C   UNL     1       3.776   3.809  17.481  0.00  0.00    +0.000 A 
ATOM      4  C   UNL     1       2.465   3.200  17.103  0.00  0.00    +0.000 C 
ATOM      5  C   UNL     1       4.830   4.081  16.620  0.00  0.00    +0.000 A 
ATOM      6  C   UNL     1       4.879   3.910  15.140  0.00  0.00    +0.000 C 
ATOM      7  C   UNL     1       5.902   4.574  17.407  0.00  0.00    +0.000 A 
ATOM      8  C   UNL     1       7.234   4.921  17.085  0.00  0.00    +0.000 A 
ATOM      9  C   UNL     1       8.072   5.457  18.058  0.00  0.00    +0.000 A 
ATOM     10  C   UNL     1       7.578   5.700  19.328  0.00  0.00    +0.000 A 
ATOM     11  C   UNL     1       6.259   5.371  19.670  0.00  0.00    +0.000 A 
ATOM     12  C   UNL     1       5.431   4.748  18.716  0.00  0.00    +0.000 A 
ENDBRANCH   1   2
BRANCH   1  13
ATOM     13  C   UNL     1       2.374   5.213  20.385  0.00  0.00    +0.000 C 
BRANCH  13  14
ATOM     14  O   UNL     1       1.001   4.795  20.394  0.00  0.00    +0.000 OA
ATOM     15  H   UNL     1       0.435   5.529  20.088  0.00  0.00    +0.000 HD
ENDBRANCH  13  14
BRANCH  13  16
ATOM     16  C   UNL     1       2.430   6.479  19.496  0.00  0.00    +0.000 C 
BRANCH  16  22
ATOM     17  C   UNL     1      -0.148   9.285  22.479  0.00  0.00    +0.000 C 
ATOM     18  C   UNL     1       0.636   8.900  21.281  0.00  0.00    +0.000 A 
ATOM     19  C   UNL     1       0.808   9.647  20.098  0.00  0.00    +0.000 A 
ATOM     20  C   UNL     1       1.553   8.839  19.265  0.00  0.00    +0.000 A 
ATOM     21  C   UNL     1       1.982   9.081  17.865  0.00  0.00    +0.000 C 
ATOM     22  N   UNL     1       1.806   7.691  19.987  0.00  0.00    +0.000 N 
ATOM     23  N   UNL     1       1.258   7.717  21.216  0.00  0.00    +0.000 NA
ENDBRANCH  16  22
ENDBRANCH  13  16
ENDBRANCH   1  13
TORSDOF 5
ENDMDL
