MODEL 1
REMARK VINA RESULT:      -9.6      0.000      0.000
REMARK  Name = 
REMARK  4 active torsions:
REMARK  status: ('A' for Active; 'I' for Inactive)
REMARK    1  A    between atoms: C_1  and  N_2
REMARK    2  A    between atoms: C_6  and  C_7
REMARK    3  A    between atoms: C_6  and  C_13
REMARK    4  A    between atoms: C_17  and  C_18
REMARK                            x       y       z     vdW  Elec       q    Type
REMARK                         _______ _______ _______ _____ _____    ______ ____
ROOT
ATOM      1  C   UNL     1       1.039   2.167  19.148  0.00  0.00    +0.000 C 
ATOM      2  N   UNL     1       1.934   3.265  19.427  0.00  0.00    +0.000 N 
ATOM      3  C   UNL     1       2.516   3.634  20.591  0.00  0.00    +0.000 C 
ATOM      4  N   UNL     1       2.320   3.090  21.734  0.00  0.00    +0.000 NA
ATOM      5  N   UNL     1       3.351   4.675  20.398  0.00  0.00    +0.000 N 
ATOM      6  C   UNL     1       3.316   5.181  19.035  0.00  0.00    +0.000 C 
ATOM      7  C   UNL     1       2.370   4.089  18.402  0.00  0.00    +0.000 C 
ATOM      8  O   UNL     1       2.081   3.957  17.215  0.00  0.00    +0.000 OA
ATOM      9  H   UNL     1       1.648   2.327  21.670  0.00  0.00    +0.000 HD
ATOM     10  H   UNL     1       3.869   5.111  21.142  0.00  0.00    +0.000 HD
ENDROOT
BRANCH   6  11
ATOM     11  C   UNL     1       2.576   6.528  18.945  0.00  0.00    +0.000 A 
ATOM     12  C   UNL     1       2.578   7.316  17.778  0.00  0.00    +0.000 A 
ATOM     13  C   UNL     1       2.103   8.631  17.797  0.00  0.00    +0.000 A 
ATOM     14  C   UNL     1       1.603   9.176  18.975  0.00  0.00    +0.000 A 
ATOM     15  C   UNL     1       1.527   8.393  20.123  0.00  0.00    +0.000 A 
ATOM     16  C   UNL     1       1.993   7.076  20.105  0.00  0.00    +0.000 A 
ENDBRANCH   6  11
BRANCH   6  17
ATOM     17  C   UNL     1       4.745   5.139  18.477  0.00  0.00    +0.000 A 
ATOM     18  C   UNL     1       5.849   5.429  19.304  0.00  0.00    +0.000 A 
ATOM     19  C   UNL     1       7.144   5.452  18.798  0.00  0.00    +0.000 A 
ATOM     20  C   UNL     1       7.367   5.206  17.444  0.00  0.00    +0.000 A 
ATOM     21  C   UNL     1       6.300   4.936  16.568  0.00  0.00    +0.000 A 
ATOM     22  C   UNL     1       4.995   4.915  17.110  0.00  0.00    +0.000 A 
BRANCH  21  23
ATOM     23  C   UNL     1       6.530   4.721  15.125  0.00  0.00    +0.000 A 
ATOM     24  C   UNL     1       5.775   3.841  14.347  0.00  0.00    +0.000 A 
ATOM     25  N   UNL     1       6.016   3.601  13.032  0.00  0.00    +0.000 NA
ATOM     26  C   UNL     1       7.053   4.286  12.509  0.00  0.00    +0.000 A 
ATOM     27  C   UNL     1       7.803   5.175  13.257  0.00  0.00    +0.000 A 
ATOM     28  N   UNL     1       7.559   5.413  14.567  0.00  0.00    +0.000 NA
ENDBRANCH  21  23
ENDBRANCH   6  17
TORSDOF 3
ENDMDL
MODEL 2
REMARK VINA RESULT:      -9.3      2.542      7.149
REMARK  Name = 
REMARK  4 active torsions:
REMARK  status: ('A' for Active; 'I' for Inactive)
REMARK    1  A    between atoms: C_1  and  N_2
REMARK    2  A    between atoms: C_6  and  C_7
REMARK    3  A    between atoms: C_6  and  C_13
REMARK    4  A    between atoms: C_17  and  C_18
REMARK                            x       y       z     vdW  Elec       q    Type
REMARK                         _______ _______ _______ _____ _____    ______ ____
ROOT
ATOM      1  C   UNL     1       6.452   4.432  16.933  0.00  0.00    +0.000 C 
ATOM      2  N   UNL     1       5.578   4.904  17.980  0.00  0.00    +0.000 N 
ATOM      3  C   UNL     1       5.876   5.363  19.217  0.00  0.00    +0.000 C 
ATOM      4  N   UNL     1       7.044   5.404  19.741  0.00  0.00    +0.000 NA
ATOM      5  N   UNL     1       4.763   5.783  19.851  0.00  0.00    +0.000 N 
ATOM      6  C   UNL     1       3.550   5.530  19.090  0.00  0.00    +0.000 C 
ATOM      7  C   UNL     1       4.212   4.995  17.762  0.00  0.00    +0.000 C 
ATOM      8  O   UNL     1       3.644   4.729  16.706  0.00  0.00    +0.000 OA
ATOM      9  H   UNL     1       7.748   5.034  19.104  0.00  0.00    +0.000 HD
ATOM     10  H   UNL     1       4.767   6.144  20.791  0.00  0.00    +0.000 HD
ENDROOT
BRANCH   6  11
ATOM     11  C   UNL     1       2.733   4.369  19.687  0.00  0.00    +0.000 A 
ATOM     12  C   UNL     1       1.648   3.781  19.009  0.00  0.00    +0.000 A 
ATOM     13  C   UNL     1       0.783   2.899  19.665  0.00  0.00    +0.000 A 
ATOM     14  C   UNL     1       0.995   2.577  21.001  0.00  0.00    +0.000 A 
ATOM     15  C   UNL     1       2.100   3.092  21.670  0.00  0.00    +0.000 A 
ATOM     16  C   UNL     1       2.971   3.967  21.016  0.00  0.00    +0.000 A 
ENDBRANCH   6  11
BRANCH   6  17
ATOM     17  C   UNL     1       2.819   6.866  18.906  0.00  0.00    +0.000 A 
ATOM     18  C   UNL     1       2.917   7.579  17.694  0.00  0.00    +0.000 A 
ATOM     19  C   UNL     1       2.308   8.819  17.533  0.00  0.00    +0.000 A 
ATOM     20  C   UNL     1       1.601   9.389  18.590  0.00  0.00    +0.000 A 
ATOM     21  C   UNL     1       1.492   8.735  19.831  0.00  0.00    +0.000 A 
ATOM     22  C   UNL     1       2.118   7.474  19.965  0.00  0.00    +0.000 A 
BRANCH  21  23
ATOM     23  C   UNL     1       0.783   9.359  20.966  0.00  0.00    +0.000 A 
ATOM     24  C   UNL     1       1.067   9.074  22.303  0.00  0.00    +0.000 A 
ATOM     25  N   UNL     1       0.384   9.605  23.349  0.00  0.00    +0.000 NA
ATOM     26  C   UNL     1      -0.609  10.453  23.008  0.00  0.00    +0.000 A 
ATOM     27  C   UNL     1      -0.895  10.763  21.691  0.00  0.00    +0.000 A 
ATOM     28  N   UNL     1      -0.210  10.232  20.652  0.00  0.00    +0.000 NA
ENDBRANCH  21  23
ENDBRANCH   6  17
TORSDOF 3
ENDMDL
MODEL 3
REMARK VINA RESULT:      -9.2      2.630      7.320
REMARK  Name = 
REMARK  4 active torsions:
REMARK  status: ('A' for Active; 'I' for Inactive)
REMARK    1  A    between atoms: C_1  and  N_2
REMARK    2  A    between atoms: C_6  and  C_7
REMARK    3  A    between atoms: C_6  and  C_13
REMARK    4  A    between atoms: C_17  and  C_18
REMARK                            x       y       z     vdW  Elec       q    Type
REMARK                         _______ _______ _______ _____ _____    ______ ____
ROOT
ATOM      1  C   UNL     1       5.970   4.398  16.921  0.00  0.00    +0.000 C 
ATOM      2  N   UNL     1       5.174   4.938  17.998  0.00  0.00    +0.000 N 
ATOM      3  C   UNL     1       5.556   5.403  19.209  0.00  0.00    +0.000 C 
ATOM      4  N   UNL     1       6.749   5.392  19.675  0.00  0.00    +0.000 NA
ATOM      5  N   UNL     1       4.499   5.895  19.887  0.00  0.00    +0.000 N 
ATOM      6  C   UNL     1       3.239   5.693  19.190  0.00  0.00    +0.000 C 
ATOM      7  C   UNL     1       3.806   5.097  17.844  0.00  0.00    +0.000 C 
ATOM      8  O   UNL     1       3.173   4.842  16.822  0.00  0.00    +0.000 OA
ATOM      9  H   UNL     1       7.401   4.971  19.014  0.00  0.00    +0.000 HD
ATOM     10  H   UNL     1       4.569   6.274  20.816  0.00  0.00    +0.000 HD
ENDROOT
BRANCH   6  11
ATOM     11  C   UNL     1       2.391   4.590  19.851  0.00  0.00    +0.000 A 
ATOM     12  C   UNL     1       2.631   4.134  21.161  0.00  0.00    +0.000 A 
ATOM     13  C   UNL     1       2.007   2.980  21.646  0.00  0.00    +0.000 A 
ATOM     14  C   UNL     1       1.123   2.273  20.839  0.00  0.00    +0.000 A 
ATOM     15  C   UNL     1       0.818   2.744  19.566  0.00  0.00    +0.000 A 
ATOM     16  C   UNL     1       1.432   3.901  19.082  0.00  0.00    +0.000 A 
ENDBRANCH   6  11
BRANCH   6  17
ATOM     17  C   UNL     1       2.572   7.063  19.011  0.00  0.00    +0.000 A 
ATOM     18  C   UNL     1       2.736   7.793  17.817  0.00  0.00    +0.000 A 
ATOM     19  C   UNL     1       2.185   9.061  17.663  0.00  0.00    +0.000 A 
ATOM     20  C   UNL     1       1.473   9.642  18.711  0.00  0.00    +0.000 A 
ATOM     21  C   UNL     1       1.300   8.971  19.935  0.00  0.00    +0.000 A 
ATOM     22  C   UNL     1       1.867   7.682  20.061  0.00  0.00    +0.000 A 
BRANCH  21  23
ATOM     23  C   UNL     1       0.586   9.604  21.061  0.00  0.00    +0.000 A 
ATOM     24  C   UNL     1       0.826   9.290  22.400  0.00  0.00    +0.000 A 
ATOM     25  N   UNL     1       0.136   9.831  23.437  0.00  0.00    +0.000 NA
ATOM     26  C   UNL     1      -0.816  10.719  23.085  0.00  0.00    +0.000 A 
ATOM     27  C   UNL     1      -1.058  11.058  21.766  0.00  0.00    +0.000 A 
ATOM     28  N   UNL     1      -0.367  10.517  20.736  0.00  0.00    +0.000 NA
ENDBRANCH  21  23
ENDBRANCH   6  17
TORSDOF 3
ENDMDL
MODEL 4
REMARK VINA RESULT:      -8.9      0.600      1.354
REMARK  Name = 
REMARK  4 active torsions:
REMARK  status: ('A' for Active; 'I' for Inactive)
REMARK    1  A    between atoms: C_1  and  N_2
REMARK    2  A    between atoms: C_6  and  C_7
REMARK    3  A    between atoms: C_6  and  C_13
REMARK    4  A    between atoms: C_17  and  C_18
REMARK                            x       y       z     vdW  Elec       q    Type
REMARK                         _______ _______ _______ _____ _____    ______ ____
ROOT
ATOM      1  C   UNL     1       0.792   2.635  19.141  0.00  0.00    +0.000 C 
ATOM      2  N   UNL     1       1.796   3.622  19.458  0.00  0.00    +0.000 N 
ATOM      3  C   UNL     1       2.406   3.891  20.635  0.00  0.00    +0.000 C 
ATOM      4  N   UNL     1       2.146   3.335  21.759  0.00  0.00    +0.000 NA
ATOM      5  N   UNL     1       3.348   4.843  20.478  0.00  0.00    +0.000 N 
ATOM      6  C   UNL     1       3.375   5.393  19.132  0.00  0.00    +0.000 C 
ATOM      7  C   UNL     1       2.322   4.429  18.461  0.00  0.00    +0.000 C 
ATOM      8  O   UNL     1       2.029   4.365  17.270  0.00  0.00    +0.000 OA
ATOM      9  H   UNL     1       1.398   2.649  21.669  0.00  0.00    +0.000 HD
ATOM     10  H   UNL     1       3.904   5.199  21.238  0.00  0.00    +0.000 HD
ENDROOT
BRANCH   6  11
ATOM     11  C   UNL     1       2.781   6.813  19.083  0.00  0.00    +0.000 A 
ATOM     12  C   UNL     1       2.011   7.348  20.133  0.00  0.00    +0.000 A 
ATOM     13  C   UNL     1       1.293   8.536  19.965  0.00  0.00    +0.000 A 
ATOM     14  C   UNL     1       1.344   9.219  18.754  0.00  0.00    +0.000 A 
ATOM     15  C   UNL     1       2.154   8.745  17.727  0.00  0.00    +0.000 A 
ATOM     16  C   UNL     1       2.880   7.563  17.894  0.00  0.00    +0.000 A 
ENDBRANCH   6  11
BRANCH   6  17
ATOM     17  C   UNL     1       4.795   5.218  18.578  0.00  0.00    +0.000 A 
ATOM     18  C   UNL     1       5.918   5.385  19.412  0.00  0.00    +0.000 A 
ATOM     19  C   UNL     1       7.212   5.287  18.909  0.00  0.00    +0.000 A 
ATOM     20  C   UNL     1       7.415   5.040  17.553  0.00  0.00    +0.000 A 
ATOM     21  C   UNL     1       6.330   4.891  16.669  0.00  0.00    +0.000 A 
ATOM     22  C   UNL     1       5.027   4.992  17.208  0.00  0.00    +0.000 A 
BRANCH  21  23
ATOM     23  C   UNL     1       6.544   4.676  15.224  0.00  0.00    +0.000 A 
ATOM     24  C   UNL     1       7.494   5.372  14.474  0.00  0.00    +0.000 A 
ATOM     25  N   UNL     1       7.660   5.216  13.135  0.00  0.00    +0.000 NA
ATOM     26  C   UNL     1       6.832   4.319  12.560  0.00  0.00    +0.000 A 
ATOM     27  C   UNL     1       5.896   3.606  13.288  0.00  0.00    +0.000 A 
ATOM     28  N   UNL     1       5.736   3.764  14.622  0.00  0.00    +0.000 NA
ENDBRANCH  21  23
ENDBRANCH   6  17
TORSDOF 3
ENDMDL
MODEL 5
REMARK VINA RESULT:      -8.6      2.542      7.082
REMARK  Name = 
REMARK  4 active torsions:
REMARK  status: ('A' for Active; 'I' for Inactive)
REMARK    1  A    between atoms: C_1  and  N_2
REMARK    2  A    between atoms: C_6  and  C_7
REMARK    3  A    between atoms: C_6  and  C_13
REMARK    4  A    between atoms: C_17  and  C_18
REMARK                            x       y       z     vdW  Elec       q    Type
REMARK                         _______ _______ _______ _____ _____    ______ ____
ROOT
ATOM      1  C   UNL     1       1.347   2.724  21.237  0.00  0.00    +0.000 C 
ATOM      2  N   UNL     1       1.755   3.531  20.111  0.00  0.00    +0.000 N 
ATOM      3  C   UNL     1       1.378   3.462  18.815  0.00  0.00    +0.000 C 
ATOM      4  N   UNL     1       0.599   2.582  18.305  0.00  0.00    +0.000 NA
ATOM      5  N   UNL     1       1.938   4.460  18.101  0.00  0.00    +0.000 N 
ATOM      6  C   UNL     1       2.867   5.259  18.883  0.00  0.00    +0.000 C 
ATOM      7  C   UNL     1       2.617   4.601  20.294  0.00  0.00    +0.000 C 
ATOM      8  O   UNL     1       3.068   4.970  21.375  0.00  0.00    +0.000 OA
ATOM      9  H   UNL     1       0.290   1.911  19.007  0.00  0.00    +0.000 HD
ATOM     10  H   UNL     1       1.797   4.576  17.111  0.00  0.00    +0.000 HD
ENDROOT
BRANCH   6  11
ATOM     11  C   UNL     1       4.331   4.969  18.502  0.00  0.00    +0.000 A 
ATOM     12  C   UNL     1       5.417   5.417  19.278  0.00  0.00    +0.000 A 
ATOM     13  C   UNL     1       6.726   5.346  18.790  0.00  0.00    +0.000 A 
ATOM     14  C   UNL     1       6.974   4.814  17.530  0.00  0.00    +0.000 A 
ATOM     15  C   UNL     1       5.924   4.302  16.775  0.00  0.00    +0.000 A 
ATOM     16  C   UNL     1       4.616   4.362  17.263  0.00  0.00    +0.000 A 
ENDBRANCH   6  11
BRANCH   6  17
ATOM     17  C   UNL     1       2.411   6.722  18.809  0.00  0.00    +0.000 A 
ATOM     18  C   UNL     1       2.727   7.519  17.691  0.00  0.00    +0.000 A 
ATOM     19  C   UNL     1       2.371   8.863  17.637  0.00  0.00    +0.000 A 
ATOM     20  C   UNL     1       1.707   9.450  18.711  0.00  0.00    +0.000 A 
ATOM     21  C   UNL     1       1.389   8.710  19.865  0.00  0.00    +0.000 A 
ATOM     22  C   UNL     1       1.760   7.346  19.890  0.00  0.00    +0.000 A 
BRANCH  21  23
ATOM     23  C   UNL     1       0.727   9.342  21.022  0.00  0.00    +0.000 A 
ATOM     24  C   UNL     1       1.089   9.094  22.348  0.00  0.00    +0.000 A 
ATOM     25  N   UNL     1       0.450   9.633  23.418  0.00  0.00    +0.000 NA
ATOM     26  C   UNL     1      -0.580  10.450  23.114  0.00  0.00    +0.000 A 
ATOM     27  C   UNL     1      -0.944  10.724  21.808  0.00  0.00    +0.000 A 
ATOM     28  N   UNL     1      -0.303  10.186  20.744  0.00  0.00    +0.000 NA
ENDBRANCH  21  23
ENDBRANCH   6  17
TORSDOF 3
ENDMDL
MODEL 6
REMARK VINA RESULT:      -8.6      2.482      7.177
REMARK  Name = 
REMARK  4 active torsions:
REMARK  status: ('A' for Active; 'I' for Inactive)
REMARK    1  A    between atoms: C_1  and  N_2
REMARK    2  A    between atoms: C_6  and  C_7
REMARK    3  A    between atoms: C_6  and  C_13
REMARK    4  A    between atoms: C_17  and  C_18
REMARK                            x       y       z     vdW  Elec       q    Type
REMARK                         _______ _______ _______ _____ _____    ______ ____
ROOT
ATOM      1  C   UNL     1       7.170   5.130  16.970  0.00  0.00    +0.000 C 
ATOM      2  N   UNL     1       6.070   5.293  17.891  0.00  0.00    +0.000 N 
ATOM      3  C   UNL     1       6.080   5.475  19.231  0.00  0.00    +0.000 C 
ATOM      4  N   UNL     1       7.118   5.471  19.981  0.00  0.00    +0.000 NA
ATOM      5  N   UNL     1       4.829   5.665  19.697  0.00  0.00    +0.000 N 
ATOM      6  C   UNL     1       3.815   5.515  18.666  0.00  0.00    +0.000 C 
ATOM      7  C   UNL     1       4.767   5.342  17.420  0.00  0.00    +0.000 C 
ATOM      8  O   UNL     1       4.438   5.289  16.238  0.00  0.00    +0.000 OA
ATOM      9  H   UNL     1       7.965   5.302  19.439  0.00  0.00    +0.000 HD
ATOM     10  H   UNL     1       4.619   5.801  20.671  0.00  0.00    +0.000 HD
ENDROOT
BRANCH   6  11
ATOM     11  C   UNL     1       3.032   4.198  18.822  0.00  0.00    +0.000 A 
ATOM     12  C   UNL     1       3.656   2.936  18.772  0.00  0.00    +0.000 A 
ATOM     13  C   UNL     1       2.899   1.764  18.679  0.00  0.00    +0.000 A 
ATOM     14  C   UNL     1       1.510   1.828  18.651  0.00  0.00    +0.000 A 
ATOM     15  C   UNL     1       0.872   3.059  18.770  0.00  0.00    +0.000 A 
ATOM     16  C   UNL     1       1.624   4.232  18.872  0.00  0.00    +0.000 A 
ENDBRANCH   6  11
BRANCH   6  17
ATOM     17  C   UNL     1       2.990   6.807  18.622  0.00  0.00    +0.000 A 
ATOM     18  C   UNL     1       2.944   7.592  17.452  0.00  0.00    +0.000 A 
ATOM     19  C   UNL     1       2.248   8.796  17.416  0.00  0.00    +0.000 A 
ATOM     20  C   UNL     1       1.596   9.257  18.558  0.00  0.00    +0.000 A 
ATOM     21  C   UNL     1       1.629   8.528  19.761  0.00  0.00    +0.000 A 
ATOM     22  C   UNL     1       2.341   7.307  19.767  0.00  0.00    +0.000 A 
BRANCH  21  23
ATOM     23  C   UNL     1       0.978   9.038  20.983  0.00  0.00    +0.000 A 
ATOM     24  C   UNL     1       1.560   8.973  22.251  0.00  0.00    +0.000 A 
ATOM     25  N   UNL     1       0.944   9.394  23.386  0.00  0.00    +0.000 NA
ATOM     26  C   UNL     1      -0.295   9.897  23.208  0.00  0.00    +0.000 A 
ATOM     27  C   UNL     1      -0.883   9.987  21.960  0.00  0.00    +0.000 A 
ATOM     28  N   UNL     1      -0.265   9.568  20.831  0.00  0.00    +0.000 NA
ENDBRANCH  21  23
ENDBRANCH   6  17
TORSDOF 3
ENDMDL
MODEL 7
REMARK VINA RESULT:      -8.5      4.106      6.423
REMARK  Name = 
REMARK  4 active torsions:
REMARK  status: ('A' for Active; 'I' for Inactive)
REMARK    1  A    between atoms: C_1  and  N_2
REMARK    2  A    between atoms: C_6  and  C_7
REMARK    3  A    between atoms: C_6  and  C_13
REMARK    4  A    between atoms: C_17  and  C_18
REMARK                            x       y       z     vdW  Elec       q    Type
REMARK                         _______ _______ _______ _____ _____    ______ ____
ROOT
ATOM      1  C   UNL     1       2.223  13.536  20.405  0.00  0.00    +0.000 C 
ATOM      2  N   UNL     1       1.814  12.426  19.579  0.00  0.00    +0.000 N 
ATOM      3  C   UNL     1       2.106  12.153  18.287  0.00  0.00    +0.000 C 
ATOM      4  N   UNL     1       2.782  12.900  17.496  0.00  0.00    +0.000 NA
ATOM      5  N   UNL     1       1.585  10.964  17.920  0.00  0.00    +0.000 N 
ATOM      6  C   UNL     1       0.770  10.361  18.962  0.00  0.00    +0.000 C 
ATOM      7  C   UNL     1       1.052  11.400  20.115  0.00  0.00    +0.000 C 
ATOM      8  O   UNL     1       0.696  11.320  21.287  0.00  0.00    +0.000 OA
ATOM      9  H   UNL     1       3.079  13.757  17.961  0.00  0.00    +0.000 HD
ATOM     10  H   UNL     1       1.675  10.586  16.992  0.00  0.00    +0.000 HD
ENDROOT
BRANCH   6  11
ATOM     11  C   UNL     1      -0.732  10.446  18.634  0.00  0.00    +0.000 A 
ATOM     12  C   UNL     1      -1.322   9.705  17.592  0.00  0.00    +0.000 A 
ATOM     13  C   UNL     1      -2.626   9.977  17.165  0.00  0.00    +0.000 A 
ATOM     14  C   UNL     1      -3.368  10.980  17.781  0.00  0.00    +0.000 A 
ATOM     15  C   UNL     1      -2.830  11.677  18.859  0.00  0.00    +0.000 A 
ATOM     16  C   UNL     1      -1.531  11.402  19.293  0.00  0.00    +0.000 A 
ENDBRANCH   6  11
BRANCH   6  17
ATOM     17  C   UNL     1       1.334   8.964  19.256  0.00  0.00    +0.000 A 
ATOM     18  C   UNL     1       1.086   8.333  20.491  0.00  0.00    +0.000 A 
ATOM     19  C   UNL     1       1.640   7.093  20.793  0.00  0.00    +0.000 A 
ATOM     20  C   UNL     1       2.475   6.462  19.873  0.00  0.00    +0.000 A 
ATOM     21  C   UNL     1       2.778   7.056  18.635  0.00  0.00    +0.000 A 
ATOM     22  C   UNL     1       2.198   8.315  18.353  0.00  0.00    +0.000 A 
BRANCH  21  23
ATOM     23  C   UNL     1       3.699   6.409  17.680  0.00  0.00    +0.000 A 
ATOM     24  C   UNL     1       4.581   7.116  16.860  0.00  0.00    +0.000 A 
ATOM     25  N   UNL     1       5.393   6.530  15.943  0.00  0.00    +0.000 NA
ATOM     26  C   UNL     1       5.296   5.186  15.875  0.00  0.00    +0.000 A 
ATOM     27  C   UNL     1       4.443   4.465  16.690  0.00  0.00    +0.000 A 
ATOM     28  N   UNL     1       3.636   5.053  17.603  0.00  0.00    +0.000 NA
ENDBRANCH  21  23
ENDBRANCH   6  17
TORSDOF 3
ENDMDL
MODEL 8
REMARK VINA RESULT:      -8.5      4.185      6.678
REMARK  Name = 
REMARK  4 active torsions:
REMARK  status: ('A' for Active; 'I' for Inactive)
REMARK    1  A    between atoms: C_1  and  N_2
REMARK    2  A    between atoms: C_6  and  C_7
REMARK    3  A    between atoms: C_6  and  C_13
REMARK    4  A    between atoms: C_17  and  C_18
REMARK                            x       y       z     vdW  Elec       q    Type
REMARK                         _______ _______ _______ _____ _____    ______ ____
ROOT
ATOM      1  C   UNL     1       2.330  13.758  20.525  0.00  0.00    +0.000 C 
ATOM      2  N   UNL     1       1.929  12.663  19.673  0.00  0.00    +0.000 N 
ATOM      3  C   UNL     1       2.323  12.354  18.417  0.00  0.00    +0.000 C 
ATOM      4  N   UNL     1       3.116  13.045  17.687  0.00  0.00    +0.000 NA
ATOM      5  N   UNL     1       1.764  11.195  18.014  0.00  0.00    +0.000 N 
ATOM      6  C   UNL     1       0.818  10.659  18.979  0.00  0.00    +0.000 C 
ATOM      7  C   UNL     1       1.056  11.696  20.144  0.00  0.00    +0.000 C 
ATOM      8  O   UNL     1       0.588  11.656  21.279  0.00  0.00    +0.000 OA
ATOM      9  H   UNL     1       3.422  13.889  18.170  0.00  0.00    +0.000 HD
ATOM     10  H   UNL     1       1.916  10.798  17.102  0.00  0.00    +0.000 HD
ENDROOT
BRANCH   6  11
ATOM     11  C   UNL     1      -0.639  10.834  18.510  0.00  0.00    +0.000 A 
ATOM     12  C   UNL     1      -1.491  11.822  19.040  0.00  0.00    +0.000 A 
ATOM     13  C   UNL     1      -2.863  11.807  18.772  0.00  0.00    +0.000 A 
ATOM     14  C   UNL     1      -3.405  10.817  17.959  0.00  0.00    +0.000 A 
ATOM     15  C   UNL     1      -2.572   9.872  17.369  0.00  0.00    +0.000 A 
ATOM     16  C   UNL     1      -1.199   9.890  17.627  0.00  0.00    +0.000 A 
ENDBRANCH   6  11
BRANCH   6  17
ATOM     17  C   UNL     1       1.262   9.235  19.337  0.00  0.00    +0.000 A 
ATOM     18  C   UNL     1       0.927   8.669  20.583  0.00  0.00    +0.000 A 
ATOM     19  C   UNL     1       1.372   7.401  20.944  0.00  0.00    +0.000 A 
ATOM     20  C   UNL     1       2.183   6.675  20.074  0.00  0.00    +0.000 A 
ATOM     21  C   UNL     1       2.570   7.201  18.828  0.00  0.00    +0.000 A 
ATOM     22  C   UNL     1       2.100   8.489  18.486  0.00  0.00    +0.000 A 
BRANCH  21  23
ATOM     23  C   UNL     1       3.467   6.452  17.926  0.00  0.00    +0.000 A 
ATOM     24  C   UNL     1       4.418   7.060  17.104  0.00  0.00    +0.000 A 
ATOM     25  N   UNL     1       5.209   6.380  16.235  0.00  0.00    +0.000 NA
ATOM     26  C   UNL     1       5.019   5.045  16.218  0.00  0.00    +0.000 A 
ATOM     27  C   UNL     1       4.096   4.420  17.037  0.00  0.00    +0.000 A 
ATOM     28  N   UNL     1       3.311   5.101  17.903  0.00  0.00    +0.000 NA
ENDBRANCH  21  23
ENDBRANCH   6  17
TORSDOF 3
ENDMDL
MODEL 9
REMARK VINA RESULT:      -8.0      1.364      1.523
REMARK  Name = 
REMARK  4 active torsions:
REMARK  status: ('A' for Active; 'I' for Inactive)
REMARK    1  A    between atoms: C_1  and  N_2
REMARK    2  A    between atoms: C_6  and  C_7
REMARK    3  A    between atoms: C_6  and  C_13
REMARK    4  A    between atoms: C_17  and  C_18
REMARK                            x       y       z     vdW  Elec       q    Type
REMARK                         _______ _______ _______ _____ _____    ______ ____
ROOT
ATOM      1  C   UNL     1       3.109   1.015  18.616  0.00  0.00    +0.000 C 
ATOM      2  N   UNL     1       3.699   2.286  18.966  0.00  0.00    +0.000 N 
ATOM      3  C   UNL     1       4.460   2.624  20.031  0.00  0.00    +0.000 C 
ATOM      4  N   UNL     1       4.761   1.858  21.012  0.00  0.00    +0.000 NA
ATOM      5  N   UNL     1       4.876   3.903  19.934  0.00  0.00    +0.000 N 
ATOM      6  C   UNL     1       4.311   4.594  18.786  0.00  0.00    +0.000 C 
ATOM      7  C   UNL     1       3.572   3.373  18.115  0.00  0.00    +0.000 C 
ATOM      8  O   UNL     1       3.005   3.357  17.025  0.00  0.00    +0.000 OA
ATOM      9  H   UNL     1       4.343   0.934  20.902  0.00  0.00    +0.000 HD
ATOM     10  H   UNL     1       5.440   4.353  20.635  0.00  0.00    +0.000 HD
ENDROOT
BRANCH   6  11
ATOM     11  C   UNL     1       3.227   5.605  19.204  0.00  0.00    +0.000 A 
ATOM     12  C   UNL     1       3.026   6.822  18.525  0.00  0.00    +0.000 A 
ATOM     13  C   UNL     1       2.205   7.817  19.064  0.00  0.00    +0.000 A 
ATOM     14  C   UNL     1       1.558   7.609  20.277  0.00  0.00    +0.000 A 
ATOM     15  C   UNL     1       1.687   6.387  20.930  0.00  0.00    +0.000 A 
ATOM     16  C   UNL     1       2.500   5.387  20.391  0.00  0.00    +0.000 A 
ENDBRANCH   6  11
BRANCH   6  17
ATOM     17  C   UNL     1       5.472   5.135  17.941  0.00  0.00    +0.000 A 
ATOM     18  C   UNL     1       6.341   6.117  18.457  0.00  0.00    +0.000 A 
ATOM     19  C   UNL     1       7.361   6.659  17.682  0.00  0.00    +0.000 A 
ATOM     20  C   UNL     1       7.525   6.247  16.361  0.00  0.00    +0.000 A 
ATOM     21  C   UNL     1       6.670   5.290  15.785  0.00  0.00    +0.000 A 
ATOM     22  C   UNL     1       5.645   4.754  16.597  0.00  0.00    +0.000 A 
BRANCH  21  23
ATOM     23  C   UNL     1       6.813   4.888  14.372  0.00  0.00    +0.000 A 
ATOM     24  C   UNL     1       6.057   3.876  13.778  0.00  0.00    +0.000 A 
ATOM     25  N   UNL     1       6.221   3.467  12.493  0.00  0.00    +0.000 NA
ATOM     26  C   UNL     1       7.180   4.119  11.806  0.00  0.00    +0.000 A 
ATOM     27  C   UNL     1       7.929   5.137  12.369  0.00  0.00    +0.000 A 
ATOM     28  N   UNL     1       7.761   5.543  13.649  0.00  0.00    +0.000 NA
ENDBRANCH  21  23
ENDBRANCH   6  17
TORSDOF 3
ENDMDL
