MODEL 1
REMARK VINA RESULT:      -7.8      0.000      0.000
REMARK  Name = 
REMARK  7 active torsions:
REMARK  status: ('A' for Active; 'I' for Inactive)
REMARK    1  A    between atoms: C_1  and  C_2
REMARK    2  A    between atoms: C_6  and  C_8
REMARK    3  A    between atoms: C_8  and  C_9
REMARK    4  A    between atoms: C_8  and  N_15
REMARK    5  A    between atoms: C_9  and  C_10
REMARK    6  A    between atoms: C_16  and  C_18
REMARK    7  A    between atoms: C_21  and  C_22
REMARK                            x       y       z     vdW  Elec       q    Type
REMARK                         _______ _______ _______ _____ _____    ______ ____
ROOT
ATOM      1  C   UNL     1       6.022   5.117  14.913  0.00  0.00    +0.000 C 
ENDROOT
BRANCH   1   7
ATOM      2  C   UNL     1       0.876   1.980  18.941  0.00  0.00    +0.000 C 
ATOM      3  C   UNL     1       1.791   3.104  18.612  0.00  0.00    +0.000 A 
ATOM      4  N   UNL     1       2.712   2.948  17.582  0.00  0.00    +0.000 NA
ATOM      5  C   UNL     1       3.371   4.067  17.388  0.00  0.00    +0.000 A 
ATOM      6  N   UNL     1       4.339   4.181  16.420  0.00  0.00    +0.000 N 
ATOM      7  C   UNL     1       4.904   5.349  15.952  0.00  0.00    +0.000 C 
ATOM      8  O   UNL     1       4.652   6.490  16.342  0.00  0.00    +0.000 OA
ATOM      9  S   UNL     1       2.990   5.334  18.462  0.00  0.00    +0.000 S 
ATOM     10  C   UNL     1       1.835   4.338  19.240  0.00  0.00    +0.000 A 
ATOM     11  C   UNL     1       1.044   4.831  20.400  0.00  0.00    +0.000 C 
ATOM     12  H   UNL     1       4.583   3.297  15.987  0.00  0.00    +0.000 HD
ENDBRANCH   1   7
BRANCH   1  13
ATOM     13  N   UNL     1       5.544   4.081  13.996  0.00  0.00    +0.000 N 
ATOM     14  C   UNL     1       6.155   3.822  12.794  0.00  0.00    +0.000 C 
ATOM     15  O   UNL     1       7.182   4.402  12.446  0.00  0.00    +0.000 OA
ATOM     16  H   UNL     1       4.587   3.756  14.106  0.00  0.00    +0.000 HD
BRANCH  14  17
ATOM     17  C   UNL     1       5.538   2.702  11.973  0.00  0.00    +0.000 C 
ATOM     18 CL   UNL     1       4.002   3.211  11.228  0.00  0.00    +0.000 Cl
ENDBRANCH  14  17
ENDBRANCH   1  13
BRANCH   1  19
ATOM     19  C   UNL     1       7.307   4.659  15.625  0.00  0.00    +0.000 C 
BRANCH  19  20
ATOM     20  C   UNL     1       7.527   5.370  16.914  0.00  0.00    +0.000 A 
ATOM     21  C   UNL     1       7.587   4.950  18.228  0.00  0.00    +0.000 A 
ATOM     22  C   UNL     1       7.841   6.106  19.006  0.00  0.00    +0.000 A 
ATOM     23  C   UNL     1       7.916   7.154  18.119  0.00  0.00    +0.000 A 
ATOM     24  O   UNL     1       7.720   6.717  16.848  0.00  0.00    +0.000 OA
ENDBRANCH  19  20
ENDBRANCH   1  19
TORSDOF 5
ENDMDL
MODEL 2
REMARK VINA RESULT:      -7.8      4.440      6.510
REMARK  Name = 
REMARK  7 active torsions:
REMARK  status: ('A' for Active; 'I' for Inactive)
REMARK    1  A    between atoms: C_1  and  C_2
REMARK    2  A    between atoms: C_6  and  C_8
REMARK    3  A    between atoms: C_8  and  C_9
REMARK    4  A    between atoms: C_8  and  N_15
REMARK    5  A    between atoms: C_9  and  C_10
REMARK    6  A    between atoms: C_16  and  C_18
REMARK    7  A    between atoms: C_21  and  C_22
REMARK                            x       y       z     vdW  Elec       q    Type
REMARK                         _______ _______ _______ _____ _____    ______ ____
ROOT
ATOM      1  C   UNL     1       3.551   5.770  19.046  0.00  0.00    +0.000 C 
ENDROOT
BRANCH   1   7
ATOM      2  C   UNL     1      -0.667  10.057  23.094  0.00  0.00    +0.000 C 
ATOM      3  C   UNL     1       0.081   9.737  21.850  0.00  0.00    +0.000 A 
ATOM      4  N   UNL     1       0.862   8.588  21.806  0.00  0.00    +0.000 NA
ATOM      5  C   UNL     1       1.377   8.434  20.608  0.00  0.00    +0.000 A 
ATOM      6  N   UNL     1       2.188   7.368  20.299  0.00  0.00    +0.000 N 
ATOM      7  C   UNL     1       2.567   6.961  19.036  0.00  0.00    +0.000 C 
ATOM      8  O   UNL     1       2.261   7.499  17.972  0.00  0.00    +0.000 OA
ATOM      9  S   UNL     1       1.024   9.676  19.496  0.00  0.00    +0.000 S 
ATOM     10  C   UNL     1       0.089  10.482  20.682  0.00  0.00    +0.000 A 
ATOM     11  C   UNL     1      -0.581  11.778  20.389  0.00  0.00    +0.000 C 
ATOM     12  H   UNL     1       2.456   6.817  21.106  0.00  0.00    +0.000 HD
ENDBRANCH   1   7
BRANCH   1  13
ATOM     13  N   UNL     1       4.628   6.099  18.110  0.00  0.00    +0.000 N 
ATOM     14  C   UNL     1       5.909   5.631  18.268  0.00  0.00    +0.000 C 
ATOM     15  O   UNL     1       6.213   4.854  19.171  0.00  0.00    +0.000 OA
ATOM     16  H   UNL     1       4.505   6.912  17.513  0.00  0.00    +0.000 HD
BRANCH  14  17
ATOM     17  C   UNL     1       6.898   6.057  17.196  0.00  0.00    +0.000 C 
ATOM     18 CL   UNL     1       7.748   7.555  17.650  0.00  0.00    +0.000 Cl
ENDBRANCH  14  17
ENDBRANCH   1  13
BRANCH   1  19
ATOM     19  C   UNL     1       2.822   4.490  18.604  0.00  0.00    +0.000 C 
BRANCH  19  20
ATOM     20  C   UNL     1       2.270   3.723  19.755  0.00  0.00    +0.000 A 
ATOM     21  C   UNL     1       1.007   3.261  20.065  0.00  0.00    +0.000 A 
ATOM     22  C   UNL     1       1.122   2.581  21.301  0.00  0.00    +0.000 A 
ATOM     23  C   UNL     1       2.444   2.676  21.668  0.00  0.00    +0.000 A 
ATOM     24  O   UNL     1       3.147   3.374  20.738  0.00  0.00    +0.000 OA
ENDBRANCH  19  20
ENDBRANCH   1  19
TORSDOF 5
ENDMDL
MODEL 3
REMARK VINA RESULT:      -7.6      4.343      6.486
REMARK  Name = 
REMARK  7 active torsions:
REMARK  status: ('A' for Active; 'I' for Inactive)
REMARK    1  A    between atoms: C_1  and  C_2
REMARK    2  A    between atoms: C_6  and  C_8
REMARK    3  A    between atoms: C_8  and  C_9
REMARK    4  A    between atoms: C_8  and  N_15
REMARK    5  A    between atoms: C_9  and  C_10
REMARK    6  A    between atoms: C_16  and  C_18
REMARK    7  A    between atoms: C_21  and  C_22
REMARK                            x       y       z     vdW  Elec       q    Type
REMARK                         _______ _______ _______ _____ _____    ______ ____
ROOT
ATOM      1  C   UNL     1       3.341   5.764  19.961  0.00  0.00    +0.000 C 
ENDROOT
BRANCH   1   7
ATOM      2  C   UNL     1      -1.038  10.645  23.052  0.00  0.00    +0.000 C 
ATOM      3  C   UNL     1      -0.213  10.141  21.923  0.00  0.00    +0.000 A 
ATOM      4  N   UNL     1       0.540   8.985  22.097  0.00  0.00    +0.000 NA
ATOM      5  C   UNL     1       1.133   8.656  20.973  0.00  0.00    +0.000 A 
ATOM      6  N   UNL     1       1.936   7.545  20.875  0.00  0.00    +0.000 N 
ATOM      7  C   UNL     1       2.392   6.958  19.713  0.00  0.00    +0.000 C 
ATOM      8  O   UNL     1       2.176   7.345  18.564  0.00  0.00    +0.000 OA
ATOM      9  S   UNL     1       0.892   9.735  19.677  0.00  0.00    +0.000 S 
ATOM     10  C   UNL     1      -0.103  10.715  20.667  0.00  0.00    +0.000 A 
ATOM     11  C   UNL     1      -0.716  11.968  20.148  0.00  0.00    +0.000 C 
ATOM     12  H   UNL     1       2.131   7.108  21.769  0.00  0.00    +0.000 HD
ENDBRANCH   1   7
BRANCH   1  13
ATOM     13  N   UNL     1       4.054   5.519  18.705  0.00  0.00    +0.000 N 
ATOM     14  C   UNL     1       5.421   5.411  18.644  0.00  0.00    +0.000 C 
ATOM     15  O   UNL     1       6.124   5.448  19.652  0.00  0.00    +0.000 OA
ATOM     16  H   UNL     1       3.568   5.726  17.836  0.00  0.00    +0.000 HD
BRANCH  14  17
ATOM     17  C   UNL     1       5.995   5.139  17.263  0.00  0.00    +0.000 C 
ATOM     18 CL   UNL     1       4.814   4.311  16.218  0.00  0.00    +0.000 Cl
ENDBRANCH  14  17
ENDBRANCH   1  13
BRANCH   1  19
ATOM     19  C   UNL     1       2.525   4.527  20.370  0.00  0.00    +0.000 C 
BRANCH  19  20
ATOM     20  C   UNL     1       2.581   3.445  19.348  0.00  0.00    +0.000 A 
ATOM     21  C   UNL     1       1.767   3.105  18.286  0.00  0.00    +0.000 A 
ATOM     22  C   UNL     1       2.363   1.977  17.672  0.00  0.00    +0.000 A 
ATOM     23  C   UNL     1       3.496   1.699  18.400  0.00  0.00    +0.000 A 
ATOM     24  O   UNL     1       3.632   2.581  19.424  0.00  0.00    +0.000 OA
ENDBRANCH  19  20
ENDBRANCH   1  19
TORSDOF 5
ENDMDL
MODEL 4
REMARK VINA RESULT:      -7.5      4.100      6.314
REMARK  Name = 
REMARK  7 active torsions:
REMARK  status: ('A' for Active; 'I' for Inactive)
REMARK    1  A    between atoms: C_1  and  C_2
REMARK    2  A    between atoms: C_6  and  C_8
REMARK    3  A    between atoms: C_8  and  C_9
REMARK    4  A    between atoms: C_8  and  N_15
REMARK    5  A    between atoms: C_9  and  C_10
REMARK    6  A    between atoms: C_16  and  C_18
REMARK    7  A    between atoms: C_21  and  C_22
REMARK                            x       y       z     vdW  Elec       q    Type
REMARK                         _______ _______ _______ _____ _____    ______ ____
ROOT
ATOM      1  C   UNL     1       3.573   5.785  19.449  0.00  0.00    +0.000 C 
ENDROOT
BRANCH   1   7
ATOM      2  C   UNL     1      -0.816  10.278  23.069  0.00  0.00    +0.000 C 
ATOM      3  C   UNL     1      -0.065   9.861  21.856  0.00  0.00    +0.000 A 
ATOM      4  N   UNL     1       0.773   8.753  21.926  0.00  0.00    +0.000 NA
ATOM      5  C   UNL     1       1.283   8.495  20.744  0.00  0.00    +0.000 A 
ATOM      6  N   UNL     1       2.144   7.442  20.541  0.00  0.00    +0.000 N 
ATOM      7  C   UNL     1       2.531   6.919  19.324  0.00  0.00    +0.000 C 
ATOM      8  O   UNL     1       2.188   7.321  18.212  0.00  0.00    +0.000 OA
ATOM      9  S   UNL     1       0.858   9.589  19.510  0.00  0.00    +0.000 S 
ATOM     10  C   UNL     1      -0.105  10.474  20.614  0.00  0.00    +0.000 A 
ATOM     11  C   UNL     1      -0.841  11.696  20.192  0.00  0.00    +0.000 C 
ATOM     12  H   UNL     1       2.446   6.996  21.399  0.00  0.00    +0.000 HD
ENDBRANCH   1   7
BRANCH   1  13
ATOM     13  N   UNL     1       3.757   5.227  18.108  0.00  0.00    +0.000 N 
ATOM     14  C   UNL     1       4.982   5.189  17.488  0.00  0.00    +0.000 C 
ATOM     15  O   UNL     1       6.009   5.563  18.051  0.00  0.00    +0.000 OA
ATOM     16  H   UNL     1       2.937   5.141  17.513  0.00  0.00    +0.000 HD
BRANCH  14  17
ATOM     17  C   UNL     1       4.997   4.561  16.105  0.00  0.00    +0.000 C 
ATOM     18 CL   UNL     1       6.660   4.270  15.538  0.00  0.00    +0.000 Cl
ENDBRANCH  14  17
ENDBRANCH   1  13
BRANCH   1  19
ATOM     19  C   UNL     1       3.056   4.707  20.417  0.00  0.00    +0.000 C 
BRANCH  19  20
ATOM     20  C   UNL     1       2.231   3.675  19.731  0.00  0.00    +0.000 A 
ATOM     21  C   UNL     1       0.870   3.460  19.639  0.00  0.00    +0.000 A 
ATOM     22  C   UNL     1       0.702   2.313  18.825  0.00  0.00    +0.000 A 
ATOM     23  C   UNL     1       1.967   1.901  18.478  0.00  0.00    +0.000 A 
ATOM     24  O   UNL     1       2.901   2.719  19.029  0.00  0.00    +0.000 OA
ENDBRANCH  19  20
ENDBRANCH   1  19
TORSDOF 5
ENDMDL
MODEL 5
REMARK VINA RESULT:      -7.4      4.447      6.086
REMARK  Name = 
REMARK  7 active torsions:
REMARK  status: ('A' for Active; 'I' for Inactive)
REMARK    1  A    between atoms: C_1  and  C_2
REMARK    2  A    between atoms: C_6  and  C_8
REMARK    3  A    between atoms: C_8  and  C_9
REMARK    4  A    between atoms: C_8  and  N_15
REMARK    5  A    between atoms: C_9  and  C_10
REMARK    6  A    between atoms: C_16  and  C_18
REMARK    7  A    between atoms: C_21  and  C_22
REMARK                            x       y       z     vdW  Elec       q    Type
REMARK                         _______ _______ _______ _____ _____    ______ ____
ROOT
ATOM      1  C   UNL     1       3.145   5.559  18.679  0.00  0.00    +0.000 C 
ENDROOT
BRANCH   1   7
ATOM      2  C   UNL     1      -0.395   9.896  23.284  0.00  0.00    +0.000 C 
ATOM      3  C   UNL     1       0.328   9.632  22.012  0.00  0.00    +0.000 A 
ATOM      4  N   UNL     1       0.898   8.381  21.805  0.00  0.00    +0.000 NA
ATOM      5  C   UNL     1       1.418   8.313  20.601  0.00  0.00    +0.000 A 
ATOM      6  N   UNL     1       2.041   7.176  20.144  0.00  0.00    +0.000 N 
ATOM      7  C   UNL     1       2.386   6.895  18.838  0.00  0.00    +0.000 C 
ATOM      8  O   UNL     1       2.215   7.627  17.862  0.00  0.00    +0.000 OA
ATOM      9  S   UNL     1       1.326   9.745  19.683  0.00  0.00    +0.000 S 
ATOM     10  C   UNL     1       0.506  10.525  20.968  0.00  0.00    +0.000 A 
ATOM     11  C   UNL     1       0.084  11.948  20.865  0.00  0.00    +0.000 C 
ATOM     12  H   UNL     1       2.180   6.475  20.862  0.00  0.00    +0.000 HD
ENDBRANCH   1   7
BRANCH   1  13
ATOM     13  N   UNL     1       2.352   4.534  19.360  0.00  0.00    +0.000 N 
ATOM     14  C   UNL     1       1.527   3.671  18.682  0.00  0.00    +0.000 C 
ATOM     15  O   UNL     1       1.455   3.666  17.455  0.00  0.00    +0.000 OA
ATOM     16  H   UNL     1       2.180   4.652  20.355  0.00  0.00    +0.000 HD
BRANCH  14  17
ATOM     17  C   UNL     1       0.790   2.659  19.543  0.00  0.00    +0.000 C 
ATOM     18 CL   UNL     1       1.364   2.696  21.229  0.00  0.00    +0.000 Cl
ENDBRANCH  14  17
ENDBRANCH   1  13
BRANCH   1  19
ATOM     19  C   UNL     1       4.541   5.675  19.315  0.00  0.00    +0.000 C 
BRANCH  19  20
ATOM     20  C   UNL     1       5.631   5.317  18.365  0.00  0.00    +0.000 A 
ATOM     21  C   UNL     1       5.738   5.361  16.989  0.00  0.00    +0.000 A 
ATOM     22  C   UNL     1       7.040   4.900  16.675  0.00  0.00    +0.000 A 
ATOM     23  C   UNL     1       7.639   4.602  17.876  0.00  0.00    +0.000 A 
ATOM     24  O   UNL     1       6.789   4.846  18.906  0.00  0.00    +0.000 OA
ENDBRANCH  19  20
ENDBRANCH   1  19
TORSDOF 5
ENDMDL
MODEL 6
REMARK VINA RESULT:      -7.4      4.162      6.073
REMARK  Name = 
REMARK  7 active torsions:
REMARK  status: ('A' for Active; 'I' for Inactive)
REMARK    1  A    between atoms: C_1  and  C_2
REMARK    2  A    between atoms: C_6  and  C_8
REMARK    3  A    between atoms: C_8  and  C_9
REMARK    4  A    between atoms: C_8  and  N_15
REMARK    5  A    between atoms: C_9  and  C_10
REMARK    6  A    between atoms: C_16  and  C_18
REMARK    7  A    between atoms: C_21  and  C_22
REMARK                            x       y       z     vdW  Elec       q    Type
REMARK                         _______ _______ _______ _____ _____    ______ ____
ROOT
ATOM      1  C   UNL     1       3.559   6.000  19.296  0.00  0.00    +0.000 C 
ENDROOT
BRANCH   1   7
ATOM      2  C   UNL     1      -0.873  10.273  23.123  0.00  0.00    +0.000 C 
ATOM      3  C   UNL     1      -0.128   9.915  21.888  0.00  0.00    +0.000 A 
ATOM      4  N   UNL     1       0.731   8.822  21.909  0.00  0.00    +0.000 NA
ATOM      5  C   UNL     1       1.234   8.616  20.713  0.00  0.00    +0.000 A 
ATOM      6  N   UNL     1       2.111   7.589  20.462  0.00  0.00    +0.000 N 
ATOM      7  C   UNL     1       2.495   7.117  19.224  0.00  0.00    +0.000 C 
ATOM      8  O   UNL     1       2.132   7.554  18.131  0.00  0.00    +0.000 OA
ATOM      9  S   UNL     1       0.775   9.747  19.524  0.00  0.00    +0.000 S 
ATOM     10  C   UNL     1      -0.193  10.572  20.670  0.00  0.00    +0.000 A 
ATOM     11  C   UNL     1      -0.956  11.795  20.301  0.00  0.00    +0.000 C 
ATOM     12  H   UNL     1       2.431   7.117  21.300  0.00  0.00    +0.000 HD
ENDBRANCH   1   7
BRANCH   1  13
ATOM     13  N   UNL     1       3.885   5.632  17.916  0.00  0.00    +0.000 N 
ATOM     14  C   UNL     1       5.079   5.968  17.328  0.00  0.00    +0.000 C 
ATOM     15  O   UNL     1       5.973   6.541  17.947  0.00  0.00    +0.000 OA
ATOM     16  H   UNL     1       3.116   5.393  17.296  0.00  0.00    +0.000 HD
BRANCH  14  17
ATOM     17  C   UNL     1       5.259   5.493  15.896  0.00  0.00    +0.000 C 
ATOM     18 CL   UNL     1       5.538   3.735  15.821  0.00  0.00    +0.000 Cl
ENDBRANCH  14  17
ENDBRANCH   1  13
BRANCH   1  19
ATOM     19  C   UNL     1       2.992   4.790  20.059  0.00  0.00    +0.000 C 
BRANCH  19  20
ATOM     20  C   UNL     1       3.106   3.524  19.282  0.00  0.00    +0.000 A 
ATOM     21  C   UNL     1       3.918   2.413  19.399  0.00  0.00    +0.000 A 
ATOM     22  C   UNL     1       3.534   1.528  18.363  0.00  0.00    +0.000 A 
ATOM     23  C   UNL     1       2.518   2.156  17.680  0.00  0.00    +0.000 A 
ATOM     24  O   UNL     1       2.257   3.371  18.228  0.00  0.00    +0.000 OA
ENDBRANCH  19  20
ENDBRANCH   1  19
TORSDOF 5
ENDMDL
MODEL 7
REMARK VINA RESULT:      -7.4      4.192      5.857
REMARK  Name = 
REMARK  7 active torsions:
REMARK  status: ('A' for Active; 'I' for Inactive)
REMARK    1  A    between atoms: C_1  and  C_2
REMARK    2  A    between atoms: C_6  and  C_8
REMARK    3  A    between atoms: C_8  and  C_9
REMARK    4  A    between atoms: C_8  and  N_15
REMARK    5  A    between atoms: C_9  and  C_10
REMARK    6  A    between atoms: C_16  and  C_18
REMARK    7  A    between atoms: C_21  and  C_22
REMARK                            x       y       z     vdW  Elec       q    Type
REMARK                         _______ _______ _______ _____ _____    ______ ____
ROOT
ATOM      1  C   UNL     1       3.148   5.896  17.979  0.00  0.00    +0.000 C 
ENDROOT
BRANCH   1   7
ATOM      2  C   UNL     1       0.206  12.102  20.300  0.00  0.00    +0.000 C 
ATOM      3  C   UNL     1       0.539  10.662  20.454  0.00  0.00    +0.000 A 
ATOM      4  N   UNL     1       1.142   9.990  19.397  0.00  0.00    +0.000 NA
ATOM      5  C   UNL     1       1.431   8.757  19.747  0.00  0.00    +0.000 A 
ATOM      6  N   UNL     1       2.040   7.881  18.882  0.00  0.00    +0.000 N 
ATOM      7  C   UNL     1       2.620   6.672  19.206  0.00  0.00    +0.000 C 
ATOM      8  O   UNL     1       2.671   6.162  20.326  0.00  0.00    +0.000 OA
ATOM      9  S   UNL     1       0.937   8.310  21.315  0.00  0.00    +0.000 S 
ATOM     10  C   UNL     1       0.308   9.881  21.575  0.00  0.00    +0.000 A 
ATOM     11  C   UNL     1      -0.356  10.246  22.855  0.00  0.00    +0.000 C 
ATOM     12  H   UNL     1       2.104   8.230  17.932  0.00  0.00    +0.000 HD
ENDBRANCH   1   7
BRANCH   1  13
ATOM     13  N   UNL     1       2.999   4.470  18.280  0.00  0.00    +0.000 N 
ATOM     14  C   UNL     1       1.902   3.746  17.885  0.00  0.00    +0.000 C 
ATOM     15  O   UNL     1       1.009   4.237  17.197  0.00  0.00    +0.000 OA
ATOM     16  H   UNL     1       3.558   4.085  19.036  0.00  0.00    +0.000 HD
BRANCH  14  17
ATOM     17  C   UNL     1       1.917   2.275  18.267  0.00  0.00    +0.000 C 
ATOM     18 CL   UNL     1       3.562   1.597  18.184  0.00  0.00    +0.000 Cl
ENDBRANCH  14  17
ENDBRANCH   1  13
BRANCH   1  19
ATOM     19  C   UNL     1       4.626   6.247  17.738  0.00  0.00    +0.000 C 
BRANCH  19  20
ATOM     20  C   UNL     1       5.204   5.507  16.582  0.00  0.00    +0.000 A 
ATOM     21  C   UNL     1       5.444   5.847  15.265  0.00  0.00    +0.000 A 
ATOM     22  C   UNL     1       6.031   4.711  14.659  0.00  0.00    +0.000 A 
ATOM     23  C   UNL     1       6.107   3.751  15.641  0.00  0.00    +0.000 A 
ATOM     24  O   UNL     1       5.602   4.224  16.810  0.00  0.00    +0.000 OA
ENDBRANCH  19  20
ENDBRANCH   1  19
TORSDOF 5
ENDMDL
MODEL 8
REMARK VINA RESULT:      -7.4      4.418      6.023
REMARK  Name = 
REMARK  7 active torsions:
REMARK  status: ('A' for Active; 'I' for Inactive)
REMARK    1  A    between atoms: C_1  and  C_2
REMARK    2  A    between atoms: C_6  and  C_8
REMARK    3  A    between atoms: C_8  and  C_9
REMARK    4  A    between atoms: C_8  and  N_15
REMARK    5  A    between atoms: C_9  and  C_10
REMARK    6  A    between atoms: C_16  and  C_18
REMARK    7  A    between atoms: C_21  and  C_22
REMARK                            x       y       z     vdW  Elec       q    Type
REMARK                         _______ _______ _______ _____ _____    ______ ____
ROOT
ATOM      1  C   UNL     1       3.117   6.213  17.838  0.00  0.00    +0.000 C 
ENDROOT
BRANCH   1   7
ATOM      2  C   UNL     1      -0.164   9.566  23.364  0.00  0.00    +0.000 C 
ATOM      3  C   UNL     1       0.446   9.545  22.009  0.00  0.00    +0.000 A 
ATOM      4  N   UNL     1       1.050   8.377  21.556  0.00  0.00    +0.000 NA
ATOM      5  C   UNL     1       1.457   8.527  20.317  0.00  0.00    +0.000 A 
ATOM      6  N   UNL     1       2.084   7.515  19.632  0.00  0.00    +0.000 N 
ATOM      7  C   UNL     1       2.317   7.460  18.273  0.00  0.00    +0.000 C 
ATOM      8  O   UNL     1       2.021   8.323  17.445  0.00  0.00    +0.000 OA
ATOM      9  S   UNL     1       1.214  10.077  19.651  0.00  0.00    +0.000 S 
ATOM     10  C   UNL     1       0.484  10.598  21.109  0.00  0.00    +0.000 A 
ATOM     11  C   UNL     1      -0.009  11.992  21.272  0.00  0.00    +0.000 C 
ATOM     12  H   UNL     1       2.322   6.720  20.214  0.00  0.00    +0.000 HD
ENDBRANCH   1   7
BRANCH   1  13
ATOM     13  N   UNL     1       2.718   5.118  18.725  0.00  0.00    +0.000 N 
ATOM     14  C   UNL     1       1.768   4.192  18.370  0.00  0.00    +0.000 C 
ATOM     15  O   UNL     1       1.244   4.189  17.258  0.00  0.00    +0.000 OA
ATOM     16  H   UNL     1       2.920   5.215  19.717  0.00  0.00    +0.000 HD
BRANCH  14  17
ATOM     17  C   UNL     1       1.486   3.115  19.404  0.00  0.00    +0.000 C 
ATOM     18 CL   UNL     1       1.506   3.777  21.057  0.00  0.00    +0.000 Cl
ENDBRANCH  14  17
ENDBRANCH   1  13
BRANCH   1  19
ATOM     19  C   UNL     1       4.625   6.491  17.966  0.00  0.00    +0.000 C 
BRANCH  19  20
ATOM     20  C   UNL     1       5.440   5.645  17.051  0.00  0.00    +0.000 A 
ATOM     21  C   UNL     1       6.734   5.737  16.579  0.00  0.00    +0.000 A 
ATOM     22  C   UNL     1       6.936   4.610  15.746  0.00  0.00    +0.000 A 
ATOM     23  C   UNL     1       5.754   3.908  15.759  0.00  0.00    +0.000 A 
ATOM     24  O   UNL     1       4.838   4.533  16.544  0.00  0.00    +0.000 OA
ENDBRANCH  19  20
ENDBRANCH   1  19
TORSDOF 5
ENDMDL
MODEL 9
REMARK VINA RESULT:      -7.4      4.473      6.562
REMARK  Name = 
REMARK  7 active torsions:
REMARK  status: ('A' for Active; 'I' for Inactive)
REMARK    1  A    between atoms: C_1  and  C_2
REMARK    2  A    between atoms: C_6  and  C_8
REMARK    3  A    between atoms: C_8  and  C_9
REMARK    4  A    between atoms: C_8  and  N_15
REMARK    5  A    between atoms: C_9  and  C_10
REMARK    6  A    between atoms: C_16  and  C_18
REMARK    7  A    between atoms: C_21  and  C_22
REMARK                            x       y       z     vdW  Elec       q    Type
REMARK                         _______ _______ _______ _____ _____    ______ ____
ROOT
ATOM      1  C   UNL     1       3.026   6.322  18.808  0.00  0.00    +0.000 C 
ENDROOT
BRANCH   1   7
ATOM      2  C   UNL     1      -0.991  10.579  23.086  0.00  0.00    +0.000 C 
ATOM      3  C   UNL     1      -0.190  10.319  21.861  0.00  0.00    +0.000 A 
ATOM      4  N   UNL     1       0.461   9.099  21.724  0.00  0.00    +0.000 NA
ATOM      5  C   UNL     1       1.046   9.025  20.550  0.00  0.00    +0.000 A 
ATOM      6  N   UNL     1       1.755   7.914  20.162  0.00  0.00    +0.000 N 
ATOM      7  C   UNL     1       2.183   7.614  18.885  0.00  0.00    +0.000 C 
ATOM      8  O   UNL     1       2.019   8.304  17.878  0.00  0.00    +0.000 OA
ATOM      9  S   UNL     1       0.917  10.420  19.581  0.00  0.00    +0.000 S 
ATOM     10  C   UNL     1      -0.011  11.189  20.797  0.00  0.00    +0.000 A 
ATOM     11  C   UNL     1      -0.510  12.580  20.626  0.00  0.00    +0.000 C 
ATOM     12  H   UNL     1       1.899   7.245  20.910  0.00  0.00    +0.000 HD
ENDBRANCH   1   7
BRANCH   1  13
ATOM     13  N   UNL     1       4.026   6.527  17.759  0.00  0.00    +0.000 N 
ATOM     14  C   UNL     1       5.302   6.028  17.850  0.00  0.00    +0.000 C 
ATOM     15  O   UNL     1       5.660   5.322  18.791  0.00  0.00    +0.000 OA
ATOM     16  H   UNL     1       3.874   7.288  17.102  0.00  0.00    +0.000 HD
BRANCH  14  17
ATOM     17  C   UNL     1       6.205   6.320  16.664  0.00  0.00    +0.000 C 
ATOM     18 CL   UNL     1       5.539   5.648  15.155  0.00  0.00    +0.000 Cl
ENDBRANCH  14  17
ENDBRANCH   1  13
BRANCH   1  19
ATOM     19  C   UNL     1       2.118   5.128  18.465  0.00  0.00    +0.000 C 
BRANCH  19  20
ATOM     20  C   UNL     1       1.858   4.254  19.642  0.00  0.00    +0.000 A 
ATOM     21  C   UNL     1       0.967   3.226  19.879  0.00  0.00    +0.000 A 
ATOM     22  C   UNL     1       1.220   2.774  21.197  0.00  0.00    +0.000 A 
ATOM     23  C   UNL     1       2.243   3.556  21.680  0.00  0.00    +0.000 A 
ATOM     24  O   UNL     1       2.632   4.461  20.745  0.00  0.00    +0.000 OA
ENDBRANCH  19  20
ENDBRANCH   1  19
TORSDOF 5
ENDMDL
