MODEL 1
REMARK VINA RESULT:      -9.1      0.000      0.000
REMARK  Name = 
REMARK  4 active torsions:
REMARK  status: ('A' for Active; 'I' for Inactive)
REMARK    1  A    between atoms: C_11  and  C_12
REMARK    2  A    between atoms: N_15  and  C_16
REMARK    3  A    between atoms: C_16  and  C_17
REMARK    4  A    between atoms: C_22  and  N_23
REMARK                            x       y       z     vdW  Elec       q    Type
REMARK                         _______ _______ _______ _____ _____    ______ ____
ROOT
ATOM      1  C   UNL     1       1.001   9.603  19.490  0.00  0.00    +0.000 A 
ATOM      2  C   UNL     1       1.288   8.480  20.261  0.00  0.00    +0.000 A 
ATOM      3  C   UNL     1       2.112   7.492  19.740  0.00  0.00    +0.000 A 
ATOM      4  N   UNL     1       2.622   7.608  18.489  0.00  0.00    +0.000 N 
ATOM      5  C   UNL     1       2.276   8.651  17.696  0.00  0.00    +0.000 A 
ATOM      6  C   UNL     1       1.460   9.667  18.179  0.00  0.00    +0.000 A 
ENDROOT
BRANCH   1  17
ATOM      7  O   UNL     1      -0.962  13.111  21.214  0.00  0.00    +0.000 OA
ATOM      8  C   UNL     1      -1.426  12.479  20.285  0.00  0.00    +0.000 C 
ATOM      9  N   UNL     1      -2.564  12.752  19.549  0.00  0.00    +0.000 N 
ATOM     10  C   UNL     1      -2.781  11.786  18.569  0.00  0.00    +0.000 A 
ATOM     11  C   UNL     1      -3.826  11.748  17.669  0.00  0.00    +0.000 A 
ATOM     12  C   UNL     1      -3.875  10.668  16.784  0.00  0.00    +0.000 A 
ATOM     13  C   UNL     1      -2.898   9.659  16.831  0.00  0.00    +0.000 A 
ATOM     14  C   UNL     1      -1.844   9.722  17.749  0.00  0.00    +0.000 A 
ATOM     15  C   UNL     1      -1.782  10.806  18.610  0.00  0.00    +0.000 A 
ATOM     16  C   UNL     1      -0.857  11.224  19.673  0.00  0.00    +0.000 C 
ATOM     17  C   UNL     1       0.327  10.747  20.096  0.00  0.00    +0.000 C 
ATOM     18  H   UNL     1      -3.157  13.548  19.732  0.00  0.00    +0.000 HD
ENDBRANCH   1  17
BRANCH   4  19
ATOM     19  C   UNL     1       3.672   6.652  18.033  0.00  0.00    +0.000 C 
BRANCH  19  20
ATOM     20  C   UNL     1       3.241   5.199  18.007  0.00  0.00    +0.000 A 
ATOM     21  C   UNL     1       1.879   4.859  17.875  0.00  0.00    +0.000 A 
ATOM     22  C   UNL     1       1.455   3.529  17.899  0.00  0.00    +0.000 A 
ATOM     23  C   UNL     1       2.378   2.499  18.036  0.00  0.00    +0.000 A 
ATOM     24  C   UNL     1       3.736   2.792  18.133  0.00  0.00    +0.000 A 
ATOM     25  C   UNL     1       4.174   4.128  18.115  0.00  0.00    +0.000 A 
BRANCH  25  26
ATOM     26  N   UNL     1       5.636   4.354  18.206  0.00  0.00    +0.000 N 
ATOM     27  O   UNL     1       6.267   4.434  17.145  0.00  0.00    +0.000 OA
ATOM     28  O   UNL     1       6.142   4.448  19.329  0.00  0.00    +0.000 OA
ENDBRANCH  25  26
ENDBRANCH  19  20
ENDBRANCH   4  19
TORSDOF 4
ENDMDL
MODEL 2
REMARK VINA RESULT:      -8.8      2.005      8.705
REMARK  Name = 
REMARK  4 active torsions:
REMARK  status: ('A' for Active; 'I' for Inactive)
REMARK    1  A    between atoms: C_11  and  C_12
REMARK    2  A    between atoms: N_15  and  C_16
REMARK    3  A    between atoms: C_16  and  C_17
REMARK    4  A    between atoms: C_22  and  N_23
REMARK                            x       y       z     vdW  Elec       q    Type
REMARK                         _______ _______ _______ _____ _____    ______ ____
ROOT
ATOM      1  C   UNL     1       2.725   7.593  18.322  0.00  0.00    +0.000 A 
ATOM      2  C   UNL     1       2.021   8.524  17.563  0.00  0.00    +0.000 A 
ATOM      3  C   UNL     1       1.110   9.363  18.192  0.00  0.00    +0.000 A 
ATOM      4  N   UNL     1       0.896   9.269  19.527  0.00  0.00    +0.000 N 
ATOM      5  C   UNL     1       1.506   8.306  20.260  0.00  0.00    +0.000 A 
ATOM      6  C   UNL     1       2.430   7.450  19.674  0.00  0.00    +0.000 A 
ENDROOT
BRANCH   1  17
ATOM      7  O   UNL     1       6.115   5.387  16.656  0.00  0.00    +0.000 OA
ATOM      8  C   UNL     1       5.112   4.846  17.077  0.00  0.00    +0.000 C 
ATOM      9  N   UNL     1       4.857   3.492  17.198  0.00  0.00    +0.000 N 
ATOM     10  C   UNL     1       3.584   3.257  17.712  0.00  0.00    +0.000 A 
ATOM     11  C   UNL     1       3.008   2.025  17.951  0.00  0.00    +0.000 A 
ATOM     12  C   UNL     1       1.701   2.010  18.442  0.00  0.00    +0.000 A 
ATOM     13  C   UNL     1       1.005   3.211  18.665  0.00  0.00    +0.000 A 
ATOM     14  C   UNL     1       1.612   4.448  18.421  0.00  0.00    +0.000 A 
ATOM     15  C   UNL     1       2.918   4.463  17.957  0.00  0.00    +0.000 A 
ATOM     16  C   UNL     1       3.872   5.524  17.603  0.00  0.00    +0.000 C 
ATOM     17  C   UNL     1       3.839   6.862  17.725  0.00  0.00    +0.000 C 
ATOM     18  H   UNL     1       5.521   2.783  16.924  0.00  0.00    +0.000 HD
ENDBRANCH   1  17
BRANCH   4  19
ATOM     19  C   UNL     1       0.084  10.316  20.215  0.00  0.00    +0.000 C 
BRANCH  19  20
ATOM     20  C   UNL     1       0.344  11.733  19.744  0.00  0.00    +0.000 A 
ATOM     21  C   UNL     1       1.545  12.389  20.081  0.00  0.00    +0.000 A 
ATOM     22  C   UNL     1       1.784  13.712  19.700  0.00  0.00    +0.000 A 
ATOM     23  C   UNL     1       0.840  14.410  18.957  0.00  0.00    +0.000 A 
ATOM     24  C   UNL     1      -0.343  13.785  18.575  0.00  0.00    +0.000 A 
ATOM     25  C   UNL     1      -0.597  12.456  18.956  0.00  0.00    +0.000 A 
BRANCH  25  26
ATOM     26  N   UNL     1      -1.872  11.859  18.494  0.00  0.00    +0.000 N 
ATOM     27  O   UNL     1      -1.854  11.233  17.426  0.00  0.00    +0.000 OA
ATOM     28  O   UNL     1      -2.878  12.017  19.194  0.00  0.00    +0.000 OA
ENDBRANCH  25  26
ENDBRANCH  19  20
ENDBRANCH   4  19
TORSDOF 4
ENDMDL
MODEL 3
REMARK VINA RESULT:      -8.6      2.300      3.259
REMARK  Name = 
REMARK  4 active torsions:
REMARK  status: ('A' for Active; 'I' for Inactive)
REMARK    1  A    between atoms: C_11  and  C_12
REMARK    2  A    between atoms: N_15  and  C_16
REMARK    3  A    between atoms: C_16  and  C_17
REMARK    4  A    between atoms: C_22  and  N_23
REMARK                            x       y       z     vdW  Elec       q    Type
REMARK                         _______ _______ _______ _____ _____    ______ ____
ROOT
ATOM      1  C   UNL     1       1.443   7.583  20.463  0.00  0.00    +0.000 A 
ATOM      2  C   UNL     1       1.414   6.200  20.614  0.00  0.00    +0.000 A 
ATOM      3  C   UNL     1       2.093   5.403  19.702  0.00  0.00    +0.000 A 
ATOM      4  N   UNL     1       2.766   5.962  18.666  0.00  0.00    +0.000 N 
ATOM      5  C   UNL     1       2.724   7.300  18.456  0.00  0.00    +0.000 A 
ATOM      6  C   UNL     1       2.063   8.136  19.348  0.00  0.00    +0.000 A 
ENDROOT
BRANCH   1  17
ATOM      7  O   UNL     1       0.009  10.237  23.630  0.00  0.00    +0.000 OA
ATOM      8  C   UNL     1      -0.264  10.395  22.457  0.00  0.00    +0.000 C 
ATOM      9  N   UNL     1      -0.974  11.430  21.876  0.00  0.00    +0.000 N 
ATOM     10  C   UNL     1      -1.093  11.255  20.499  0.00  0.00    +0.000 A 
ATOM     11  C   UNL     1      -1.745  12.093  19.617  0.00  0.00    +0.000 A 
ATOM     12  C   UNL     1      -1.774  11.716  18.272  0.00  0.00    +0.000 A 
ATOM     13  C   UNL     1      -1.172  10.518  17.851  0.00  0.00    +0.000 A 
ATOM     14  C   UNL     1      -0.511   9.687  18.763  0.00  0.00    +0.000 A 
ATOM     15  C   UNL     1      -0.460  10.073  20.092  0.00  0.00    +0.000 A 
ATOM     16  C   UNL     1       0.127   9.498  21.310  0.00  0.00    +0.000 C 
ATOM     17  C   UNL     1       0.930   8.441  21.527  0.00  0.00    +0.000 C 
ATOM     18  H   UNL     1      -1.362  12.194  22.407  0.00  0.00    +0.000 HD
ENDBRANCH   1  17
BRANCH   4  19
ATOM     19  C   UNL     1       3.663   5.112  17.830  0.00  0.00    +0.000 C 
BRANCH  19  20
ATOM     20  C   UNL     1       5.143   5.394  17.996  0.00  0.00    +0.000 A 
ATOM     21  C   UNL     1       5.760   5.258  19.256  0.00  0.00    +0.000 A 
ATOM     22  C   UNL     1       7.111   5.561  19.441  0.00  0.00    +0.000 A 
ATOM     23  C   UNL     1       7.888   5.989  18.372  0.00  0.00    +0.000 A 
ATOM     24  C   UNL     1       7.324   6.101  17.104  0.00  0.00    +0.000 A 
ATOM     25  C   UNL     1       5.964   5.804  16.906  0.00  0.00    +0.000 A 
BRANCH  25  26
ATOM     26  N   UNL     1       5.445   5.933  15.525  0.00  0.00    +0.000 N 
ATOM     27  O   UNL     1       5.455   4.919  14.816  0.00  0.00    +0.000 OA
ATOM     28  O   UNL     1       5.034   7.039  15.157  0.00  0.00    +0.000 OA
ENDBRANCH  25  26
ENDBRANCH  19  20
ENDBRANCH   4  19
TORSDOF 4
ENDMDL
MODEL 4
REMARK VINA RESULT:      -8.5      2.123      2.261
REMARK  Name = 
REMARK  4 active torsions:
REMARK  status: ('A' for Active; 'I' for Inactive)
REMARK    1  A    between atoms: C_11  and  C_12
REMARK    2  A    between atoms: N_15  and  C_16
REMARK    3  A    between atoms: C_16  and  C_17
REMARK    4  A    between atoms: C_22  and  N_23
REMARK                            x       y       z     vdW  Elec       q    Type
REMARK                         _______ _______ _______ _____ _____    ______ ____
ROOT
ATOM      1  C   UNL     1       1.385   9.643  19.326  0.00  0.00    +0.000 A 
ATOM      2  C   UNL     1       1.266   8.724  20.364  0.00  0.00    +0.000 A 
ATOM      3  C   UNL     1       1.825   7.460  20.220  0.00  0.00    +0.000 A 
ATOM      4  N   UNL     1       2.467   7.118  19.076  0.00  0.00    +0.000 N 
ATOM      5  C   UNL     1       2.509   7.971  18.024  0.00  0.00    +0.000 A 
ATOM      6  C   UNL     1       1.969   9.248  18.127  0.00  0.00    +0.000 A 
ENDROOT
BRANCH   1  17
ATOM      7  O   UNL     1       0.286  13.844  19.846  0.00  0.00    +0.000 OA
ATOM      8  C   UNL     1      -0.462  13.016  19.367  0.00  0.00    +0.000 C 
ATOM      9  N   UNL     1      -1.722  13.211  18.830  0.00  0.00    +0.000 N 
ATOM     10  C   UNL     1      -2.278  12.013  18.389  0.00  0.00    +0.000 A 
ATOM     11  C   UNL     1      -3.522  11.847  17.812  0.00  0.00    +0.000 A 
ATOM     12  C   UNL     1      -3.903  10.548  17.467  0.00  0.00    +0.000 A 
ATOM     13  C   UNL     1      -3.049   9.460  17.719  0.00  0.00    +0.000 A 
ATOM     14  C   UNL     1      -1.791   9.654  18.299  0.00  0.00    +0.000 A 
ATOM     15  C   UNL     1      -1.402  10.945  18.618  0.00  0.00    +0.000 A 
ATOM     16  C   UNL     1      -0.196  11.540  19.211  0.00  0.00    +0.000 C 
ATOM     17  C   UNL     1       1.005  11.036  19.541  0.00  0.00    +0.000 C 
ATOM     18  H   UNL     1      -2.167  14.116  18.792  0.00  0.00    +0.000 HD
ENDBRANCH   1  17
BRANCH   4  19
ATOM     19  C   UNL     1       3.244   5.845  19.024  0.00  0.00    +0.000 C 
BRANCH  19  20
ATOM     20  C   UNL     1       2.579   4.666  19.706  0.00  0.00    +0.000 A 
ATOM     21  C   UNL     1       2.641   4.521  21.107  0.00  0.00    +0.000 A 
ATOM     22  C   UNL     1       2.078   3.416  21.750  0.00  0.00    +0.000 A 
ATOM     23  C   UNL     1       1.420   2.436  21.017  0.00  0.00    +0.000 A 
ATOM     24  C   UNL     1       1.306   2.562  19.636  0.00  0.00    +0.000 A 
ATOM     25  C   UNL     1       1.873   3.666  18.976  0.00  0.00    +0.000 A 
BRANCH  25  26
ATOM     26  N   UNL     1       1.692   3.734  17.507  0.00  0.00    +0.000 N 
ATOM     27  O   UNL     1       0.776   4.446  17.078  0.00  0.00    +0.000 OA
ATOM     28  O   UNL     1       2.461   3.079  16.794  0.00  0.00    +0.000 OA
ENDBRANCH  25  26
ENDBRANCH  19  20
ENDBRANCH   4  19
TORSDOF 4
ENDMDL
MODEL 5
REMARK VINA RESULT:      -8.5      1.080      8.536
REMARK  Name = 
REMARK  4 active torsions:
REMARK  status: ('A' for Active; 'I' for Inactive)
REMARK    1  A    between atoms: C_11  and  C_12
REMARK    2  A    between atoms: N_15  and  C_16
REMARK    3  A    between atoms: C_16  and  C_17
REMARK    4  A    between atoms: C_22  and  N_23
REMARK                            x       y       z     vdW  Elec       q    Type
REMARK                         _______ _______ _______ _____ _____    ______ ____
ROOT
ATOM      1  C   UNL     1       3.040   7.325  18.668  0.00  0.00    +0.000 A 
ATOM      2  C   UNL     1       2.777   8.208  17.624  0.00  0.00    +0.000 A 
ATOM      3  C   UNL     1       1.856   9.230  17.814  0.00  0.00    +0.000 A 
ATOM      4  N   UNL     1       1.208   9.361  18.997  0.00  0.00    +0.000 N 
ATOM      5  C   UNL     1       1.386   8.454  19.988  0.00  0.00    +0.000 A 
ATOM      6  C   UNL     1       2.304   7.420  19.844  0.00  0.00    +0.000 A 
ENDROOT
BRANCH   1  17
ATOM      7  O   UNL     1       6.390   4.519  18.497  0.00  0.00    +0.000 OA
ATOM      8  C   UNL     1       5.230   4.165  18.563  0.00  0.00    +0.000 C 
ATOM      9  N   UNL     1       4.733   2.880  18.678  0.00  0.00    +0.000 N 
ATOM     10  C   UNL     1       3.340   2.874  18.712  0.00  0.00    +0.000 A 
ATOM     11  C   UNL     1       2.526   1.764  18.812  0.00  0.00    +0.000 A 
ATOM     12  C   UNL     1       1.145   1.976  18.797  0.00  0.00    +0.000 A 
ATOM     13  C   UNL     1       0.621   3.273  18.670  0.00  0.00    +0.000 A 
ATOM     14  C   UNL     1       1.467   4.383  18.576  0.00  0.00    +0.000 A 
ATOM     15  C   UNL     1       2.836   4.176  18.616  0.00  0.00    +0.000 A 
ATOM     16  C   UNL     1       4.013   5.055  18.558  0.00  0.00    +0.000 C 
ATOM     17  C   UNL     1       4.157   6.392  18.566  0.00  0.00    +0.000 C 
ATOM     18  H   UNL     1       5.326   2.064  18.712  0.00  0.00    +0.000 HD
ENDBRANCH   1  17
BRANCH   4  19
ATOM     19  C   UNL     1       0.393  10.584  19.255  0.00  0.00    +0.000 C 
BRANCH  19  20
ATOM     20  C   UNL     1      -0.960  10.602  18.572  0.00  0.00    +0.000 A 
ATOM     21  C   UNL     1      -1.248   9.697  17.529  0.00  0.00    +0.000 A 
ATOM     22  C   UNL     1      -2.469   9.729  16.853  0.00  0.00    +0.000 A 
ATOM     23  C   UNL     1      -3.445  10.651  17.210  0.00  0.00    +0.000 A 
ATOM     24  C   UNL     1      -3.213  11.538  18.258  0.00  0.00    +0.000 A 
ATOM     25  C   UNL     1      -1.986  11.518  18.942  0.00  0.00    +0.000 A 
BRANCH  25  26
ATOM     26  N   UNL     1      -1.825  12.483  20.056  0.00  0.00    +0.000 N 
ATOM     27  O   UNL     1      -2.152  12.105  21.188  0.00  0.00    +0.000 OA
ATOM     28  O   UNL     1      -1.377  13.605  19.795  0.00  0.00    +0.000 OA
ENDBRANCH  25  26
ENDBRANCH  19  20
ENDBRANCH   4  19
TORSDOF 4
ENDMDL
MODEL 6
REMARK VINA RESULT:      -8.5      1.403      1.516
REMARK  Name = 
REMARK  4 active torsions:
REMARK  status: ('A' for Active; 'I' for Inactive)
REMARK    1  A    between atoms: C_11  and  C_12
REMARK    2  A    between atoms: N_15  and  C_16
REMARK    3  A    between atoms: C_16  and  C_17
REMARK    4  A    between atoms: C_22  and  N_23
REMARK                            x       y       z     vdW  Elec       q    Type
REMARK                         _______ _______ _______ _____ _____    ______ ____
ROOT
ATOM      1  C   UNL     1       1.433   9.451  19.315  0.00  0.00    +0.000 A 
ATOM      2  C   UNL     1       1.056   8.909  20.541  0.00  0.00    +0.000 A 
ATOM      3  C   UNL     1       1.439   7.613  20.857  0.00  0.00    +0.000 A 
ATOM      4  N   UNL     1       2.161   6.874  19.978  0.00  0.00    +0.000 N 
ATOM      5  C   UNL     1       2.455   7.357  18.747  0.00  0.00    +0.000 A 
ATOM      6  C   UNL     1       2.098   8.652  18.391  0.00  0.00    +0.000 A 
ENDROOT
BRANCH   1  17
ATOM      7  O   UNL     1       0.878  13.696  18.417  0.00  0.00    +0.000 OA
ATOM      8  C   UNL     1       0.016  12.859  18.235  0.00  0.00    +0.000 C 
ATOM      9  N   UNL     1      -1.230  13.028  17.659  0.00  0.00    +0.000 N 
ATOM     10  C   UNL     1      -1.946  11.833  17.636  0.00  0.00    +0.000 A 
ATOM     11  C   UNL     1      -3.221  11.648  17.141  0.00  0.00    +0.000 A 
ATOM     12  C   UNL     1      -3.772  10.368  17.243  0.00  0.00    +0.000 A 
ATOM     13  C   UNL     1      -3.049   9.323  17.843  0.00  0.00    +0.000 A 
ATOM     14  C   UNL     1      -1.754   9.533  18.331  0.00  0.00    +0.000 A 
ATOM     15  C   UNL     1      -1.198  10.796  18.208  0.00  0.00    +0.000 A 
ATOM     16  C   UNL     1       0.094  11.393  18.575  0.00  0.00    +0.000 C 
ATOM     17  C   UNL     1       1.236  10.874  19.058  0.00  0.00    +0.000 C 
ATOM     18  H   UNL     1      -1.562  13.919  17.323  0.00  0.00    +0.000 HD
ENDBRANCH   1  17
BRANCH   4  19
ATOM     19  C   UNL     1       2.746   5.574  20.420  0.00  0.00    +0.000 C 
BRANCH  19  20
ATOM     20  C   UNL     1       2.539   4.423  19.455  0.00  0.00    +0.000 A 
ATOM     21  C   UNL     1       1.280   3.797  19.349  0.00  0.00    +0.000 A 
ATOM     22  C   UNL     1       1.080   2.703  18.504  0.00  0.00    +0.000 A 
ATOM     23  C   UNL     1       2.123   2.216  17.726  0.00  0.00    +0.000 A 
ATOM     24  C   UNL     1       3.372   2.830  17.776  0.00  0.00    +0.000 A 
ATOM     25  C   UNL     1       3.586   3.929  18.626  0.00  0.00    +0.000 A 
BRANCH  25  26
ATOM     26  N   UNL     1       4.938   4.536  18.608  0.00  0.00    +0.000 N 
ATOM     27  O   UNL     1       5.146   5.436  17.785  0.00  0.00    +0.000 OA
ATOM     28  O   UNL     1       5.779   4.112  19.408  0.00  0.00    +0.000 OA
ENDBRANCH  25  26
ENDBRANCH  19  20
ENDBRANCH   4  19
TORSDOF 4
ENDMDL
MODEL 7
REMARK VINA RESULT:      -8.5      2.021      2.796
REMARK  Name = 
REMARK  4 active torsions:
REMARK  status: ('A' for Active; 'I' for Inactive)
REMARK    1  A    between atoms: C_11  and  C_12
REMARK    2  A    between atoms: N_15  and  C_16
REMARK    3  A    between atoms: C_16  and  C_17
REMARK    4  A    between atoms: C_22  and  N_23
REMARK                            x       y       z     vdW  Elec       q    Type
REMARK                         _______ _______ _______ _____ _____    ______ ____
ROOT
ATOM      1  C   UNL     1       1.492   8.338  19.857  0.00  0.00    +0.000 A 
ATOM      2  C   UNL     1       1.514   7.057  20.401  0.00  0.00    +0.000 A 
ATOM      3  C   UNL     1       2.157   6.038  19.710  0.00  0.00    +0.000 A 
ATOM      4  N   UNL     1       2.744   6.280  18.513  0.00  0.00    +0.000 N 
ATOM      5  C   UNL     1       2.649   7.500  17.931  0.00  0.00    +0.000 A 
ATOM      6  C   UNL     1       2.022   8.551  18.589  0.00  0.00    +0.000 A 
ENDROOT
BRANCH   1  17
ATOM      7  O   UNL     1       0.171  11.783  22.206  0.00  0.00    +0.000 OA
ATOM      8  C   UNL     1      -0.300  11.497  21.124  0.00  0.00    +0.000 C 
ATOM      9  N   UNL     1      -1.243  12.194  20.390  0.00  0.00    +0.000 N 
ATOM     10  C   UNL     1      -1.544  11.541  19.197  0.00  0.00    +0.000 A 
ATOM     11  C   UNL     1      -2.446  11.956  18.238  0.00  0.00    +0.000 A 
ATOM     12  C   UNL     1      -2.624  11.133  17.123  0.00  0.00    +0.000 A 
ATOM     13  C   UNL     1      -1.917   9.924  17.004  0.00  0.00    +0.000 A 
ATOM     14  C   UNL     1      -1.003   9.528  17.987  0.00  0.00    +0.000 A 
ATOM     15  C   UNL     1      -0.808  10.356  19.081  0.00  0.00    +0.000 A 
ATOM     16  C   UNL     1       0.043  10.297  20.278  0.00  0.00    +0.000 C 
ATOM     17  C   UNL     1       1.023   9.461  20.663  0.00  0.00    +0.000 C 
ATOM     18  H   UNL     1      -1.657  13.057  20.710  0.00  0.00    +0.000 HD
ENDBRANCH   1  17
BRANCH   4  19
ATOM     19  C   UNL     1       3.610   5.234  17.895  0.00  0.00    +0.000 C 
BRANCH  19  20
ATOM     20  C   UNL     1       5.100   5.469  18.051  0.00  0.00    +0.000 A 
ATOM     21  C   UNL     1       5.719   5.326  19.310  0.00  0.00    +0.000 A 
ATOM     22  C   UNL     1       7.080   5.585  19.486  0.00  0.00    +0.000 A 
ATOM     23  C   UNL     1       7.865   5.975  18.408  0.00  0.00    +0.000 A 
ATOM     24  C   UNL     1       7.299   6.093  17.142  0.00  0.00    +0.000 A 
ATOM     25  C   UNL     1       5.929   5.839  16.953  0.00  0.00    +0.000 A 
BRANCH  25  26
ATOM     26  N   UNL     1       5.408   5.970  15.573  0.00  0.00    +0.000 N 
ATOM     27  O   UNL     1       5.434   4.962  14.856  0.00  0.00    +0.000 OA
ATOM     28  O   UNL     1       4.979   7.073  15.214  0.00  0.00    +0.000 OA
ENDBRANCH  25  26
ENDBRANCH  19  20
ENDBRANCH   4  19
TORSDOF 4
ENDMDL
MODEL 8
REMARK VINA RESULT:      -8.5      1.071      1.179
REMARK  Name = 
REMARK  4 active torsions:
REMARK  status: ('A' for Active; 'I' for Inactive)
REMARK    1  A    between atoms: C_11  and  C_12
REMARK    2  A    between atoms: N_15  and  C_16
REMARK    3  A    between atoms: C_16  and  C_17
REMARK    4  A    between atoms: C_22  and  N_23
REMARK                            x       y       z     vdW  Elec       q    Type
REMARK                         _______ _______ _______ _____ _____    ______ ____
ROOT
ATOM      1  C   UNL     1       0.400   9.837  19.491  0.00  0.00    +0.000 A 
ATOM      2  C   UNL     1       0.902   8.846  20.331  0.00  0.00    +0.000 A 
ATOM      3  C   UNL     1       1.908   8.009  19.867  0.00  0.00    +0.000 A 
ATOM      4  N   UNL     1       2.389   8.143  18.606  0.00  0.00    +0.000 N 
ATOM      5  C   UNL     1       1.845   9.041  17.750  0.00  0.00    +0.000 A 
ATOM      6  C   UNL     1       0.842   9.904  18.174  0.00  0.00    +0.000 A 
ENDROOT
BRANCH   1  17
ATOM      7  O   UNL     1      -2.204  13.000  21.024  0.00  0.00    +0.000 OA
ATOM      8  C   UNL     1      -2.426  12.397  19.993  0.00  0.00    +0.000 C 
ATOM      9  N   UNL     1      -3.442  12.612  19.079  0.00  0.00    +0.000 N 
ATOM     10  C   UNL     1      -3.377  11.705  18.023  0.00  0.00    +0.000 A 
ATOM     11  C   UNL     1      -4.239  11.634  16.947  0.00  0.00    +0.000 A 
ATOM     12  C   UNL     1      -4.014  10.624  16.009  0.00  0.00    +0.000 A 
ATOM     13  C   UNL     1      -2.957   9.713  16.176  0.00  0.00    +0.000 A 
ATOM     14  C   UNL     1      -2.093   9.810  17.272  0.00  0.00    +0.000 A 
ATOM     15  C   UNL     1      -2.300  10.827  18.190  0.00  0.00    +0.000 A 
ATOM     16  C   UNL     1      -1.626  11.252  19.425  0.00  0.00    +0.000 C 
ATOM     17  C   UNL     1      -0.490  10.862  20.028  0.00  0.00    +0.000 C 
ATOM     18  H   UNL     1      -4.140  13.331  19.195  0.00  0.00    +0.000 HD
ENDBRANCH   1  17
BRANCH   4  19
ATOM     19  C   UNL     1       3.610   7.386  18.203  0.00  0.00    +0.000 C 
BRANCH  19  20
ATOM     20  C   UNL     1       3.362   5.944  17.806  0.00  0.00    +0.000 A 
ATOM     21  C   UNL     1       2.173   5.290  18.192  0.00  0.00    +0.000 A 
ATOM     22  C   UNL     1       1.947   3.948  17.880  0.00  0.00    +0.000 A 
ATOM     23  C   UNL     1       2.889   3.225  17.159  0.00  0.00    +0.000 A 
ATOM     24  C   UNL     1       4.060   3.845  16.730  0.00  0.00    +0.000 A 
ATOM     25  C   UNL     1       4.301   5.194  17.041  0.00  0.00    +0.000 A 
BRANCH  25  26
ATOM     26  N   UNL     1       5.562   5.783  16.533  0.00  0.00    +0.000 N 
ATOM     27  O   UNL     1       5.518   6.369  15.444  0.00  0.00    +0.000 OA
ATOM     28  O   UNL     1       6.582   5.658  17.219  0.00  0.00    +0.000 OA
ENDBRANCH  25  26
ENDBRANCH  19  20
ENDBRANCH   4  19
TORSDOF 4
ENDMDL
MODEL 9
REMARK VINA RESULT:      -8.4      2.087      2.434
REMARK  Name = 
REMARK  4 active torsions:
REMARK  status: ('A' for Active; 'I' for Inactive)
REMARK    1  A    between atoms: C_11  and  C_12
REMARK    2  A    between atoms: N_15  and  C_16
REMARK    3  A    between atoms: C_16  and  C_17
REMARK    4  A    between atoms: C_22  and  N_23
REMARK                            x       y       z     vdW  Elec       q    Type
REMARK                         _______ _______ _______ _____ _____    ______ ____
ROOT
ATOM      1  C   UNL     1       1.441   9.441  19.233  0.00  0.00    +0.000 A 
ATOM      2  C   UNL     1       1.198   8.833  20.461  0.00  0.00    +0.000 A 
ATOM      3  C   UNL     1       1.603   7.520  20.660  0.00  0.00    +0.000 A 
ATOM      4  N   UNL     1       2.216   6.829  19.667  0.00  0.00    +0.000 N 
ATOM      5  C   UNL     1       2.374   7.380  18.438  0.00  0.00    +0.000 A 
ATOM      6  C   UNL     1       1.990   8.693  18.197  0.00  0.00    +0.000 A 
ENDROOT
BRANCH   1  17
ATOM      7  O   UNL     1       0.842  13.734  18.642  0.00  0.00    +0.000 OA
ATOM      8  C   UNL     1      -0.009  12.903  18.391  0.00  0.00    +0.000 C 
ATOM      9  N   UNL     1      -1.252  13.099  17.819  0.00  0.00    +0.000 N 
ATOM     10  C   UNL     1      -1.953  11.901  17.703  0.00  0.00    +0.000 A 
ATOM     11  C   UNL     1      -3.223  11.738  17.185  0.00  0.00    +0.000 A 
ATOM     12  C   UNL     1      -3.759  10.448  17.189  0.00  0.00    +0.000 A 
ATOM     13  C   UNL     1      -3.028   9.370  17.717  0.00  0.00    +0.000 A 
ATOM     14  C   UNL     1      -1.740   9.559  18.230  0.00  0.00    +0.000 A 
ATOM     15  C   UNL     1      -1.198  10.833  18.204  0.00  0.00    +0.000 A 
ATOM     16  C   UNL     1       0.084  11.416  18.625  0.00  0.00    +0.000 C 
ATOM     17  C   UNL     1       1.228  10.877  19.078  0.00  0.00    +0.000 C 
ATOM     18  H   UNL     1      -1.593  14.009  17.546  0.00  0.00    +0.000 HD
ENDBRANCH   1  17
BRANCH   4  19
ATOM     19  C   UNL     1       2.835   5.506  19.967  0.00  0.00    +0.000 C 
BRANCH  19  20
ATOM     20  C   UNL     1       3.774   4.985  18.897  0.00  0.00    +0.000 A 
ATOM     21  C   UNL     1       5.129   5.374  18.883  0.00  0.00    +0.000 A 
ATOM     22  C   UNL     1       5.999   4.946  17.878  0.00  0.00    +0.000 A 
ATOM     23  C   UNL     1       5.548   4.103  16.870  0.00  0.00    +0.000 A 
ATOM     24  C   UNL     1       4.225   3.669  16.868  0.00  0.00    +0.000 A 
ATOM     25  C   UNL     1       3.339   4.096  17.872  0.00  0.00    +0.000 A 
BRANCH  25  26
ATOM     26  N   UNL     1       1.953   3.575  17.808  0.00  0.00    +0.000 N 
ATOM     27  O   UNL     1       1.110   4.268  17.224  0.00  0.00    +0.000 OA
ATOM     28  O   UNL     1       1.716   2.484  18.339  0.00  0.00    +0.000 OA
ENDBRANCH  25  26
ENDBRANCH  19  20
ENDBRANCH   4  19
TORSDOF 4
ENDMDL
