MODEL 1
REMARK VINA RESULT:      -6.9      0.000      0.000
REMARK  Name = 
REMARK  3 active torsions:
REMARK  status: ('A' for Active; 'I' for Inactive)
REMARK    1  A    between atoms: C_2  and  C_3
REMARK    2  A    between atoms: C_4  and  O_5
REMARK    3  A    between atoms: C_10  and  C_11
REMARK                            x       y       z     vdW  Elec       q    Type
REMARK                         _______ _______ _______ _____ _____    ______ ____
ROOT
ATOM      1  C   UNL     1       6.098   6.193  17.308  0.00  0.00    +0.000 A 
ATOM      2  C   UNL     1       7.348   6.704  17.567  0.00  0.00    +0.000 A 
ATOM      3  N   UNL     1       8.054   6.414  18.670  0.00  0.00    +0.000 NA
ATOM      4  C   UNL     1       7.492   5.590  19.552  0.00  0.00    +0.000 A 
ATOM      5  N   UNL     1       8.186   5.329  20.711  0.00  0.00    +0.000 N 
ATOM      6  N   UNL     1       6.308   5.000  19.385  0.00  0.00    +0.000 NA
ATOM      7  C   UNL     1       5.628   5.300  18.253  0.00  0.00    +0.000 A 
ATOM      8  H   UNL     1       9.174   5.498  20.577  0.00  0.00    +0.000 HD
ATOM      9  H   UNL     1       7.913   4.441  21.109  0.00  0.00    +0.000 HD
ENDROOT
BRANCH   7  10
ATOM     10  C   UNL     1       4.342   4.595  18.095  0.00  0.00    +0.000 C 
ATOM     11  C   UNL     1       4.335   3.340  17.609  0.00  0.00    +0.000 C 
ATOM     12  C   UNL     1       3.144   2.546  17.474  0.00  0.00    +0.000 C 
ATOM     13  C   UNL     1       1.954   3.001  17.877  0.00  0.00    +0.000 C 
ATOM     14  C   UNL     1       1.758   4.362  18.466  0.00  0.00    +0.000 C 
ATOM     15  C   UNL     1       3.032   5.221  18.500  0.00  0.00    +0.000 C 
ATOM     16  S   UNL     1       2.866   6.821  19.035  0.00  0.00    +0.000 S 
ENDBRANCH   7  10
BRANCH   1  18
ATOM     17  N   UNL     1       4.760   6.933  15.228  0.00  0.00    +0.000 NA
ATOM     18  C   UNL     1       5.334   6.587  16.173  0.00  0.00    +0.000 C 
ENDBRANCH   1  18
BRANCH   2  19
ATOM     19  O   UNL     1       7.996   7.572  16.733  0.00  0.00    +0.000 OA
ATOM     20  H   UNL     1       7.374   8.064  16.175  0.00  0.00    +0.000 HD
ENDBRANCH   2  19
TORSDOF 3
ENDMDL
MODEL 2
REMARK VINA RESULT:      -6.5      3.429      5.069
REMARK  Name = 
REMARK  3 active torsions:
REMARK  status: ('A' for Active; 'I' for Inactive)
REMARK    1  A    between atoms: C_2  and  C_3
REMARK    2  A    between atoms: C_4  and  O_5
REMARK    3  A    between atoms: C_10  and  C_11
REMARK                            x       y       z     vdW  Elec       q    Type
REMARK                         _______ _______ _______ _____ _____    ______ ____
ROOT
ATOM      1  C   UNL     1       3.612   4.207  19.698  0.00  0.00    +0.000 A 
ATOM      2  C   UNL     1       2.620   4.639  20.546  0.00  0.00    +0.000 A 
ATOM      3  N   UNL     1       2.054   5.853  20.469  0.00  0.00    +0.000 NA
ATOM      4  C   UNL     1       2.500   6.671  19.516  0.00  0.00    +0.000 A 
ATOM      5  N   UNL     1       1.963   7.937  19.463  0.00  0.00    +0.000 N 
ATOM      6  N   UNL     1       3.423   6.344  18.612  0.00  0.00    +0.000 NA
ATOM      7  C   UNL     1       3.961   5.105  18.706  0.00  0.00    +0.000 A 
ATOM      8  H   UNL     1       1.056   7.955  19.908  0.00  0.00    +0.000 HD
ATOM      9  H   UNL     1       2.036   8.326  18.534  0.00  0.00    +0.000 HD
ENDROOT
BRANCH   7  10
ATOM     10  C   UNL     1       4.950   4.775  17.663  0.00  0.00    +0.000 C 
ATOM     11  C   UNL     1       4.524   4.285  16.484  0.00  0.00    +0.000 C 
ATOM     12  C   UNL     1       5.400   3.991  15.382  0.00  0.00    +0.000 C 
ATOM     13  C   UNL     1       6.712   4.237  15.450  0.00  0.00    +0.000 C 
ATOM     14  C   UNL     1       7.374   4.804  16.665  0.00  0.00    +0.000 C 
ATOM     15  C   UNL     1       6.427   5.009  17.858  0.00  0.00    +0.000 C 
ATOM     16  S   UNL     1       7.125   5.528  19.314  0.00  0.00    +0.000 S 
ENDBRANCH   7  10
BRANCH   1  18
ATOM     17  N   UNL     1       4.780   1.931  20.049  0.00  0.00    +0.000 NA
ATOM     18  C   UNL     1       4.257   2.948  19.859  0.00  0.00    +0.000 C 
ENDBRANCH   1  18
BRANCH   2  19
ATOM     19  O   UNL     1       2.114   3.880  21.565  0.00  0.00    +0.000 OA
ATOM     20  H   UNL     1       2.640   3.079  21.709  0.00  0.00    +0.000 HD
ENDBRANCH   2  19
TORSDOF 3
ENDMDL
MODEL 3
REMARK VINA RESULT:      -6.4      1.393      1.412
REMARK  Name = 
REMARK  3 active torsions:
REMARK  status: ('A' for Active; 'I' for Inactive)
REMARK    1  A    between atoms: C_2  and  C_3
REMARK    2  A    between atoms: C_4  and  O_5
REMARK    3  A    between atoms: C_10  and  C_11
REMARK                            x       y       z     vdW  Elec       q    Type
REMARK                         _______ _______ _______ _____ _____    ______ ____
ROOT
ATOM      1  C   UNL     1       5.890   4.716  16.577  0.00  0.00    +0.000 A 
ATOM      2  C   UNL     1       7.172   5.213  16.597  0.00  0.00    +0.000 A 
ATOM      3  N   UNL     1       7.843   5.490  17.726  0.00  0.00    +0.000 NA
ATOM      4  C   UNL     1       7.211   5.270  18.877  0.00  0.00    +0.000 A 
ATOM      5  N   UNL     1       7.871   5.600  20.039  0.00  0.00    +0.000 N 
ATOM      6  N   UNL     1       5.988   4.748  18.980  0.00  0.00    +0.000 NA
ATOM      7  C   UNL     1       5.345   4.464  17.823  0.00  0.00    +0.000 A 
ATOM      8  H   UNL     1       8.870   5.618  19.884  0.00  0.00    +0.000 HD
ATOM      9  H   UNL     1       7.528   5.060  20.821  0.00  0.00    +0.000 HD
ENDROOT
BRANCH   7  10
ATOM     10  C   UNL     1       4.011   3.855  17.986  0.00  0.00    +0.000 C 
ATOM     11  C   UNL     1       3.891   2.515  17.950  0.00  0.00    +0.000 C 
ATOM     12  C   UNL     1       2.649   1.822  18.160  0.00  0.00    +0.000 C 
ATOM     13  C   UNL     1       1.524   2.481  18.457  0.00  0.00    +0.000 C 
ATOM     14  C   UNL     1       1.458   3.971  18.566  0.00  0.00    +0.000 C 
ATOM     15  C   UNL     1       2.778   4.685  18.234  0.00  0.00    +0.000 C 
ATOM     16  S   UNL     1       2.750   6.381  18.211  0.00  0.00    +0.000 S 
ENDBRANCH   7  10
BRANCH   1  18
ATOM     17  N   UNL     1       4.635   4.353  14.351  0.00  0.00    +0.000 NA
ATOM     18  C   UNL     1       5.169   4.516  15.366  0.00  0.00    +0.000 C 
ENDBRANCH   1  18
BRANCH   2  19
ATOM     19  O   UNL     1       7.892   5.490  15.469  0.00  0.00    +0.000 OA
ATOM     20  H   UNL     1       7.464   6.174  14.931  0.00  0.00    +0.000 HD
ENDBRANCH   2  19
TORSDOF 3
ENDMDL
MODEL 4
REMARK VINA RESULT:      -6.3      2.220      2.524
REMARK  Name = 
REMARK  3 active torsions:
REMARK  status: ('A' for Active; 'I' for Inactive)
REMARK    1  A    between atoms: C_2  and  C_3
REMARK    2  A    between atoms: C_4  and  O_5
REMARK    3  A    between atoms: C_10  and  C_11
REMARK                            x       y       z     vdW  Elec       q    Type
REMARK                         _______ _______ _______ _____ _____    ______ ____
ROOT
ATOM      1  C   UNL     1       5.053   4.172  17.584  0.00  0.00    +0.000 A 
ATOM      2  C   UNL     1       6.276   4.426  17.009  0.00  0.00    +0.000 A 
ATOM      3  N   UNL     1       7.326   4.915  17.686  0.00  0.00    +0.000 NA
ATOM      4  C   UNL     1       7.149   5.169  18.981  0.00  0.00    +0.000 A 
ATOM      5  N   UNL     1       8.204   5.721  19.671  0.00  0.00    +0.000 N 
ATOM      6  N   UNL     1       6.025   4.920  19.652  0.00  0.00    +0.000 NA
ATOM      7  C   UNL     1       4.989   4.409  18.944  0.00  0.00    +0.000 A 
ATOM      8  H   UNL     1       9.077   5.521  19.201  0.00  0.00    +0.000 HD
ATOM      9  H   UNL     1       8.145   5.513  20.658  0.00  0.00    +0.000 HD
ENDROOT
BRANCH   7  10
ATOM     10  C   UNL     1       3.780   4.116  19.736  0.00  0.00    +0.000 C 
ATOM     11  C   UNL     1       3.670   2.925  20.352  0.00  0.00    +0.000 C 
ATOM     12  C   UNL     1       2.562   2.564  21.196  0.00  0.00    +0.000 C 
ATOM     13  C   UNL     1       1.578   3.430  21.461  0.00  0.00    +0.000 C 
ATOM     14  C   UNL     1       1.532   4.811  20.891  0.00  0.00    +0.000 C 
ATOM     15  C   UNL     1       2.675   5.126  19.913  0.00  0.00    +0.000 C 
ATOM     16  S   UNL     1       2.622   6.628  19.127  0.00  0.00    +0.000 S 
ENDBRANCH   7  10
BRANCH   1  18
ATOM     17  N   UNL     1       2.984   3.380  16.257  0.00  0.00    +0.000 NA
ATOM     18  C   UNL     1       3.930   3.737  16.825  0.00  0.00    +0.000 C 
ENDBRANCH   1  18
BRANCH   2  19
ATOM     19  O   UNL     1       6.546   4.217  15.685  0.00  0.00    +0.000 OA
ATOM     20  H   UNL     1       7.333   4.706  15.400  0.00  0.00    +0.000 HD
ENDBRANCH   2  19
TORSDOF 3
ENDMDL
MODEL 5
REMARK VINA RESULT:      -6.3      3.128      4.904
REMARK  Name = 
REMARK  3 active torsions:
REMARK  status: ('A' for Active; 'I' for Inactive)
REMARK    1  A    between atoms: C_2  and  C_3
REMARK    2  A    between atoms: C_4  and  O_5
REMARK    3  A    between atoms: C_10  and  C_11
REMARK                            x       y       z     vdW  Elec       q    Type
REMARK                         _______ _______ _______ _____ _____    ______ ____
ROOT
ATOM      1  C   UNL     1       3.895   5.276  18.898  0.00  0.00    +0.000 A 
ATOM      2  C   UNL     1       2.955   5.901  19.683  0.00  0.00    +0.000 A 
ATOM      3  N   UNL     1       2.400   7.084  19.377  0.00  0.00    +0.000 NA
ATOM      4  C   UNL     1       2.803   7.670  18.252  0.00  0.00    +0.000 A 
ATOM      5  N   UNL     1       2.279   8.908  17.956  0.00  0.00    +0.000 N 
ATOM      6  N   UNL     1       3.672   7.137  17.392  0.00  0.00    +0.000 NA
ATOM      7  C   UNL     1       4.200   5.935  17.722  0.00  0.00    +0.000 A 
ATOM      8  H   UNL     1       1.397   9.041  18.433  0.00  0.00    +0.000 HD
ATOM      9  H   UNL     1       2.307   9.090  16.963  0.00  0.00    +0.000 HD
ENDROOT
BRANCH   7  10
ATOM     10  C   UNL     1       5.128   5.369  16.724  0.00  0.00    +0.000 C 
ATOM     11  C   UNL     1       4.643   4.583  15.746  0.00  0.00    +0.000 C 
ATOM     12  C   UNL     1       5.451   4.033  14.692  0.00  0.00    +0.000 C 
ATOM     13  C   UNL     1       6.754   4.317  14.593  0.00  0.00    +0.000 C 
ATOM     14  C   UNL     1       7.474   5.192  15.569  0.00  0.00    +0.000 C 
ATOM     15  C   UNL     1       6.604   5.677  16.739  0.00  0.00    +0.000 C 
ATOM     16  S   UNL     1       7.379   6.569  17.956  0.00  0.00    +0.000 S 
ENDBRANCH   7  10
BRANCH   1  18
ATOM     17  N   UNL     1       5.046   3.097  19.667  0.00  0.00    +0.000 NA
ATOM     18  C   UNL     1       4.533   4.065  19.291  0.00  0.00    +0.000 C 
ENDBRANCH   1  18
BRANCH   2  19
ATOM     19  O   UNL     1       2.495   5.387  20.864  0.00  0.00    +0.000 OA
ATOM     20  H   UNL     1       2.995   5.731  21.621  0.00  0.00    +0.000 HD
ENDBRANCH   2  19
TORSDOF 3
ENDMDL
MODEL 6
REMARK VINA RESULT:      -6.3      1.732      3.299
REMARK  Name = 
REMARK  3 active torsions:
REMARK  status: ('A' for Active; 'I' for Inactive)
REMARK    1  A    between atoms: C_2  and  C_3
REMARK    2  A    between atoms: C_4  and  O_5
REMARK    3  A    between atoms: C_10  and  C_11
REMARK                            x       y       z     vdW  Elec       q    Type
REMARK                         _______ _______ _______ _____ _____    ______ ____
ROOT
ATOM      1  C   UNL     1       5.944   5.010  17.260  0.00  0.00    +0.000 A 
ATOM      2  C   UNL     1       6.766   5.511  16.278  0.00  0.00    +0.000 A 
ATOM      3  N   UNL     1       6.600   5.258  14.971  0.00  0.00    +0.000 NA
ATOM      4  C   UNL     1       5.582   4.471  14.629  0.00  0.00    +0.000 A 
ATOM      5  N   UNL     1       5.436   4.163  13.296  0.00  0.00    +0.000 N 
ATOM      6  N   UNL     1       4.696   3.968  15.488  0.00  0.00    +0.000 NA
ATOM      7  C   UNL     1       4.881   4.256  16.798  0.00  0.00    +0.000 A 
ATOM      8  H   UNL     1       5.889   4.860  12.721  0.00  0.00    +0.000 HD
ATOM      9  H   UNL     1       4.478   3.926  13.078  0.00  0.00    +0.000 HD
ENDROOT
BRANCH   7  10
ATOM     10  C   UNL     1       3.855   3.708  17.706  0.00  0.00    +0.000 C 
ATOM     11  C   UNL     1       3.837   2.387  17.957  0.00  0.00    +0.000 C 
ATOM     12  C   UNL     1       2.920   1.763  18.873  0.00  0.00    +0.000 C 
ATOM     13  C   UNL     1       2.043   2.484  19.579  0.00  0.00    +0.000 C 
ATOM     14  C   UNL     1       1.924   3.970  19.459  0.00  0.00    +0.000 C 
ATOM     15  C   UNL     1       2.846   4.590  18.397  0.00  0.00    +0.000 C 
ATOM     16  S   UNL     1       2.680   6.253  18.111  0.00  0.00    +0.000 S 
ENDBRANCH   7  10
BRANCH   1  18
ATOM     17  N   UNL     1       6.435   5.344  19.772  0.00  0.00    +0.000 NA
ATOM     18  C   UNL     1       6.195   5.221  18.645  0.00  0.00    +0.000 C 
ENDBRANCH   1  18
BRANCH   2  19
ATOM     19  O   UNL     1       7.847   6.309  16.533  0.00  0.00    +0.000 OA
ATOM     20  H   UNL     1       7.840   7.106  15.980  0.00  0.00    +0.000 HD
ENDBRANCH   2  19
TORSDOF 3
ENDMDL
MODEL 7
REMARK VINA RESULT:      -6.2      2.239      2.584
REMARK  Name = 
REMARK  3 active torsions:
REMARK  status: ('A' for Active; 'I' for Inactive)
REMARK    1  A    between atoms: C_2  and  C_3
REMARK    2  A    between atoms: C_4  and  O_5
REMARK    3  A    between atoms: C_10  and  C_11
REMARK                            x       y       z     vdW  Elec       q    Type
REMARK                         _______ _______ _______ _____ _____    ______ ____
ROOT
ATOM      1  C   UNL     1       5.806   4.557  17.618  0.00  0.00    +0.000 A 
ATOM      2  C   UNL     1       7.147   4.587  17.317  0.00  0.00    +0.000 A 
ATOM      3  N   UNL     1       8.103   4.862  18.218  0.00  0.00    +0.000 NA
ATOM      4  C   UNL     1       7.708   5.124  19.462  0.00  0.00    +0.000 A 
ATOM      5  N   UNL     1       8.677   5.458  20.380  0.00  0.00    +0.000 N 
ATOM      6  N   UNL     1       6.442   5.078  19.877  0.00  0.00    +0.000 NA
ATOM      7  C   UNL     1       5.503   4.781  18.948  0.00  0.00    +0.000 A 
ATOM      8  H   UNL     1       9.578   5.106  20.087  0.00  0.00    +0.000 HD
ATOM      9  H   UNL     1       8.377   5.249  21.322  0.00  0.00    +0.000 HD
ENDROOT
BRANCH   7  10
ATOM     10  C   UNL     1       4.122   4.706  19.462  0.00  0.00    +0.000 C 
ATOM     11  C   UNL     1       3.388   5.831  19.539  0.00  0.00    +0.000 C 
ATOM     12  C   UNL     1       2.015   5.856  19.966  0.00  0.00    +0.000 C 
ATOM     13  C   UNL     1       1.359   4.732  20.273  0.00  0.00    +0.000 C 
ATOM     14  C   UNL     1       1.995   3.379  20.225  0.00  0.00    +0.000 C 
ATOM     15  C   UNL     1       3.489   3.399  19.866  0.00  0.00    +0.000 C 
ATOM     16  S   UNL     1       4.312   1.917  19.916  0.00  0.00    +0.000 S 
ENDBRANCH   7  10
BRANCH   1  18
ATOM     17  N   UNL     1       4.030   4.145  15.789  0.00  0.00    +0.000 NA
ATOM     18  C   UNL     1       4.807   4.352  16.624  0.00  0.00    +0.000 C 
ENDBRANCH   1  18
BRANCH   2  19
ATOM     19  O   UNL     1       7.646   4.353  16.066  0.00  0.00    +0.000 OA
ATOM     20  H   UNL     1       6.955   4.050  15.457  0.00  0.00    +0.000 HD
ENDBRANCH   2  19
TORSDOF 3
ENDMDL
MODEL 8
REMARK VINA RESULT:      -6.2      1.461      1.899
REMARK  Name = 
REMARK  3 active torsions:
REMARK  status: ('A' for Active; 'I' for Inactive)
REMARK    1  A    between atoms: C_2  and  C_3
REMARK    2  A    between atoms: C_4  and  O_5
REMARK    3  A    between atoms: C_10  and  C_11
REMARK                            x       y       z     vdW  Elec       q    Type
REMARK                         _______ _______ _______ _____ _____    ______ ____
ROOT
ATOM      1  C   UNL     1       5.663   6.460  17.848  0.00  0.00    +0.000 A 
ATOM      2  C   UNL     1       6.982   6.831  17.741  0.00  0.00    +0.000 A 
ATOM      3  N   UNL     1       7.942   6.411  18.581  0.00  0.00    +0.000 NA
ATOM      4  C   UNL     1       7.571   5.597  19.567  0.00  0.00    +0.000 A 
ATOM      5  N   UNL     1       8.537   5.203  20.464  0.00  0.00    +0.000 N 
ATOM      6  N   UNL     1       6.332   5.135  19.740  0.00  0.00    +0.000 NA
ATOM      7  C   UNL     1       5.391   5.564  18.866  0.00  0.00    +0.000 A 
ATOM      8  H   UNL     1       9.456   5.283  20.051  0.00  0.00    +0.000 HD
ATOM      9  H   UNL     1       8.295   4.325  20.901  0.00  0.00    +0.000 HD
ENDROOT
BRANCH   7  10
ATOM     10  C   UNL     1       4.045   4.998  19.074  0.00  0.00    +0.000 C 
ATOM     11  C   UNL     1       3.284   5.465  20.080  0.00  0.00    +0.000 C 
ATOM     12  C   UNL     1       1.938   5.025  20.330  0.00  0.00    +0.000 C 
ATOM     13  C   UNL     1       1.334   4.141  19.529  0.00  0.00    +0.000 C 
ATOM     14  C   UNL     1       2.005   3.524  18.343  0.00  0.00    +0.000 C 
ATOM     15  C   UNL     1       3.474   3.938  18.167  0.00  0.00    +0.000 C 
ATOM     16  S   UNL     1       4.341   3.182  16.921  0.00  0.00    +0.000 S 
ENDBRANCH   7  10
BRANCH   1  18
ATOM     17  N   UNL     1       3.840   7.477  16.329  0.00  0.00    +0.000 NA
ATOM     18  C   UNL     1       4.651   6.991  16.998  0.00  0.00    +0.000 C 
ENDBRANCH   1  18
BRANCH   2  19
ATOM     19  O   UNL     1       7.453   7.678  16.776  0.00  0.00    +0.000 OA
ATOM     20  H   UNL     1       8.351   7.983  16.977  0.00  0.00    +0.000 HD
ENDBRANCH   2  19
TORSDOF 3
ENDMDL
MODEL 9
REMARK VINA RESULT:      -6.2      3.246      4.476
REMARK  Name = 
REMARK  3 active torsions:
REMARK  status: ('A' for Active; 'I' for Inactive)
REMARK    1  A    between atoms: C_2  and  C_3
REMARK    2  A    between atoms: C_4  and  O_5
REMARK    3  A    between atoms: C_10  and  C_11
REMARK                            x       y       z     vdW  Elec       q    Type
REMARK                         _______ _______ _______ _____ _____    ______ ____
ROOT
ATOM      1  C   UNL     1       3.220   5.834  19.128  0.00  0.00    +0.000 A 
ATOM      2  C   UNL     1       2.425   5.807  20.250  0.00  0.00    +0.000 A 
ATOM      3  N   UNL     1       2.274   4.722  21.026  0.00  0.00    +0.000 NA
ATOM      4  C   UNL     1       2.931   3.622  20.665  0.00  0.00    +0.000 A 
ATOM      5  N   UNL     1       2.741   2.490  21.424  0.00  0.00    +0.000 N 
ATOM      6  N   UNL     1       3.764   3.546  19.626  0.00  0.00    +0.000 NA
ATOM      7  C   UNL     1       3.908   4.662  18.875  0.00  0.00    +0.000 A 
ATOM      8  H   UNL     1       2.423   2.736  22.352  0.00  0.00    +0.000 HD
ATOM      9  H   UNL     1       3.529   1.862  21.350  0.00  0.00    +0.000 HD
ENDROOT
BRANCH   7  10
ATOM     10  C   UNL     1       4.866   4.541  17.759  0.00  0.00    +0.000 C 
ATOM     11  C   UNL     1       4.438   4.071  16.573  0.00  0.00    +0.000 C 
ATOM     12  C   UNL     1       5.275   3.972  15.408  0.00  0.00    +0.000 C 
ATOM     13  C   UNL     1       6.543   4.396  15.423  0.00  0.00    +0.000 C 
ATOM     14  C   UNL     1       7.196   4.972  16.639  0.00  0.00    +0.000 C 
ATOM     15  C   UNL     1       6.306   4.966  17.892  0.00  0.00    +0.000 C 
ATOM     16  S   UNL     1       7.016   5.485  19.342  0.00  0.00    +0.000 S 
ENDBRANCH   7  10
BRANCH   1  18
ATOM     17  N   UNL     1       3.303   7.876  17.550  0.00  0.00    +0.000 NA
ATOM     18  C   UNL     1       3.292   6.971  18.274  0.00  0.00    +0.000 C 
ENDBRANCH   1  18
BRANCH   2  19
ATOM     19  O   UNL     1       1.697   6.879  20.686  0.00  0.00    +0.000 OA
ATOM     20  H   UNL     1       1.791   7.009  21.643  0.00  0.00    +0.000 HD
ENDBRANCH   2  19
TORSDOF 3
ENDMDL
