MODEL 1
REMARK VINA RESULT:      -5.9      0.000      0.000
REMARK  Name = 
REMARK  3 active torsions:
REMARK  status: ('A' for Active; 'I' for Inactive)
REMARK    1  A    between atoms: C_1  and  C_2
REMARK    2  A    between atoms: C_2  and  N_3
REMARK    3  A    between atoms: C_7  and  C_8
REMARK                            x       y       z     vdW  Elec       q    Type
REMARK                         _______ _______ _______ _____ _____    ______ ____
ROOT
ATOM      1  N   UNL     1       5.997   4.390  15.514  0.00  0.00    +0.000 N 
ATOM      2  C   UNL     1       7.305   4.731  15.747  0.00  0.00    +0.000 A 
ATOM      3  N   UNL     1       7.565   4.840  17.024  0.00  0.00    +0.000 NA
ATOM      4  C   UNL     1       6.391   4.526  17.649  0.00  0.00    +0.000 A 
ATOM      5  C   UNL     1       5.398   4.202  16.741  0.00  0.00    +0.000 A 
ENDROOT
BRANCH   5   6
ATOM      6  C   UNL     1       3.997   3.764  17.024  0.00  0.00    +0.000 C 
ATOM      7  C   UNL     1       3.127   4.869  17.643  0.00  0.00    +0.000 C 
ATOM      8  C   UNL     1       1.705   4.364  17.888  0.00  0.00    +0.000 C 
ATOM      9  C   UNL     1       1.716   3.042  18.650  0.00  0.00    +0.000 C 
ATOM     10  C   UNL     1       2.648   2.023  17.996  0.00  0.00    +0.000 C 
ATOM     11  N   UNL     1       4.005   2.556  17.853  0.00  0.00    +0.000 NA
ATOM     12  H   UNL     1       4.586   1.857  17.390  0.00  0.00    +0.000 HD
ENDBRANCH   5   6
BRANCH   1  14
ATOM     13  C   UNL     1       6.438   3.810  13.143  0.00  0.00    +0.000 C 
ATOM     14  C   UNL     1       5.426   4.257  14.187  0.00  0.00    +0.000 C 
ENDBRANCH   1  14
TORSDOF 2
ENDMDL
MODEL 2
REMARK VINA RESULT:      -5.9      1.071      1.184
REMARK  Name = 
REMARK  3 active torsions:
REMARK  status: ('A' for Active; 'I' for Inactive)
REMARK    1  A    between atoms: C_1  and  C_2
REMARK    2  A    between atoms: C_2  and  N_3
REMARK    3  A    between atoms: C_7  and  C_8
REMARK                            x       y       z     vdW  Elec       q    Type
REMARK                         _______ _______ _______ _____ _____    ______ ____
ROOT
ATOM      1  N   UNL     1       6.369   4.255  16.858  0.00  0.00    +0.000 N 
ATOM      2  C   UNL     1       7.509   4.694  17.481  0.00  0.00    +0.000 A 
ATOM      3  N   UNL     1       7.283   5.068  18.713  0.00  0.00    +0.000 NA
ATOM      4  C   UNL     1       5.951   4.834  18.912  0.00  0.00    +0.000 A 
ATOM      5  C   UNL     1       5.353   4.291  17.789  0.00  0.00    +0.000 A 
ENDROOT
BRANCH   5   6
ATOM      6  C   UNL     1       3.933   3.857  17.618  0.00  0.00    +0.000 C 
ATOM      7  C   UNL     1       2.916   4.965  17.931  0.00  0.00    +0.000 C 
ATOM      8  C   UNL     1       1.487   4.465  17.719  0.00  0.00    +0.000 C 
ATOM      9  C   UNL     1       1.255   3.145  18.448  0.00  0.00    +0.000 C 
ATOM     10  C   UNL     1       2.342   2.122  18.122  0.00  0.00    +0.000 C 
ATOM     11  N   UNL     1       3.677   2.651  18.410  0.00  0.00    +0.000 NA
ATOM     12  H   UNL     1       4.371   1.949  18.155  0.00  0.00    +0.000 HD
ENDBRANCH   5   6
BRANCH   1  14
ATOM     13  C   UNL     1       6.867   4.878  14.508  0.00  0.00    +0.000 C 
ATOM     14  C   UNL     1       6.325   3.833  15.470  0.00  0.00    +0.000 C 
ENDBRANCH   1  14
TORSDOF 2
ENDMDL
MODEL 3
REMARK VINA RESULT:      -5.7      1.162      2.543
REMARK  Name = 
REMARK  3 active torsions:
REMARK  status: ('A' for Active; 'I' for Inactive)
REMARK    1  A    between atoms: C_1  and  C_2
REMARK    2  A    between atoms: C_2  and  N_3
REMARK    3  A    between atoms: C_7  and  C_8
REMARK                            x       y       z     vdW  Elec       q    Type
REMARK                         _______ _______ _______ _____ _____    ______ ____
ROOT
ATOM      1  N   UNL     1       6.073   5.171  17.389  0.00  0.00    +0.000 N 
ATOM      2  C   UNL     1       6.972   5.793  16.561  0.00  0.00    +0.000 A 
ATOM      3  N   UNL     1       6.706   5.580  15.298  0.00  0.00    +0.000 NA
ATOM      4  C   UNL     1       5.573   4.816  15.303  0.00  0.00    +0.000 A 
ATOM      5  C   UNL     1       5.125   4.571  16.589  0.00  0.00    +0.000 A 
ENDROOT
BRANCH   5   6
ATOM      6  C   UNL     1       3.905   3.819  17.014  0.00  0.00    +0.000 C 
ATOM      7  C   UNL     1       2.853   4.703  17.702  0.00  0.00    +0.000 C 
ATOM      8  C   UNL     1       1.626   3.880  18.092  0.00  0.00    +0.000 C 
ATOM      9  C   UNL     1       2.029   2.628  18.866  0.00  0.00    +0.000 C 
ATOM     10  C   UNL     1       3.116   1.840  18.136  0.00  0.00    +0.000 C 
ATOM     11  N   UNL     1       4.283   2.679  17.854  0.00  0.00    +0.000 NA
ATOM     12  H   UNL     1       4.972   2.124  17.345  0.00  0.00    +0.000 HD
ENDBRANCH   5   6
BRANCH   1  14
ATOM     13  C   UNL     1       7.507   5.703  19.343  0.00  0.00    +0.000 C 
ATOM     14  C   UNL     1       6.165   5.198  18.837  0.00  0.00    +0.000 C 
ENDBRANCH   1  14
TORSDOF 2
ENDMDL
MODEL 4
REMARK VINA RESULT:      -5.7      1.727      5.269
REMARK  Name = 
REMARK  3 active torsions:
REMARK  status: ('A' for Active; 'I' for Inactive)
REMARK    1  A    between atoms: C_1  and  C_2
REMARK    2  A    between atoms: C_2  and  N_3
REMARK    3  A    between atoms: C_7  and  C_8
REMARK                            x       y       z     vdW  Elec       q    Type
REMARK                         _______ _______ _______ _____ _____    ______ ____
ROOT
ATOM      1  N   UNL     1       3.027   3.828  19.382  0.00  0.00    +0.000 N 
ATOM      2  C   UNL     1       2.243   2.749  19.704  0.00  0.00    +0.000 A 
ATOM      3  N   UNL     1       2.432   1.744  18.889  0.00  0.00    +0.000 NA
ATOM      4  C   UNL     1       3.397   2.172  18.022  0.00  0.00    +0.000 A 
ATOM      5  C   UNL     1       3.822   3.455  18.320  0.00  0.00    +0.000 A 
ENDROOT
BRANCH   5   6
ATOM      6  C   UNL     1       4.885   4.255  17.640  0.00  0.00    +0.000 C 
ATOM      7  C   UNL     1       4.875   4.107  16.111  0.00  0.00    +0.000 C 
ATOM      8  C   UNL     1       5.970   4.964  15.477  0.00  0.00    +0.000 C 
ATOM      9  C   UNL     1       7.319   4.713  16.146  0.00  0.00    +0.000 C 
ATOM     10  C   UNL     1       7.224   4.827  17.666  0.00  0.00    +0.000 C 
ATOM     11  N   UNL     1       6.198   3.931  18.205  0.00  0.00    +0.000 NA
ATOM     12  H   UNL     1       6.149   4.056  19.216  0.00  0.00    +0.000 HD
ENDBRANCH   5   6
BRANCH   1  14
ATOM     13  C   UNL     1       1.606   5.405  20.667  0.00  0.00    +0.000 C 
ATOM     14  C   UNL     1       2.978   5.094  20.088  0.00  0.00    +0.000 C 
ENDBRANCH   1  14
TORSDOF 2
ENDMDL
MODEL 5
REMARK VINA RESULT:      -5.7      1.925      5.035
REMARK  Name = 
REMARK  3 active torsions:
REMARK  status: ('A' for Active; 'I' for Inactive)
REMARK    1  A    between atoms: C_1  and  C_2
REMARK    2  A    between atoms: C_2  and  N_3
REMARK    3  A    between atoms: C_7  and  C_8
REMARK                            x       y       z     vdW  Elec       q    Type
REMARK                         _______ _______ _______ _____ _____    ______ ____
ROOT
ATOM      1  N   UNL     1       2.936   4.265  19.423  0.00  0.00    +0.000 N 
ATOM      2  C   UNL     1       2.536   3.444  20.447  0.00  0.00    +0.000 A 
ATOM      3  N   UNL     1       3.396   2.484  20.671  0.00  0.00    +0.000 NA
ATOM      4  C   UNL     1       4.409   2.707  19.781  0.00  0.00    +0.000 A 
ATOM      5  C   UNL     1       4.177   3.832  19.011  0.00  0.00    +0.000 A 
ENDROOT
BRANCH   5   6
ATOM      6  C   UNL     1       5.060   4.431  17.964  0.00  0.00    +0.000 C 
ATOM      7  C   UNL     1       4.623   4.090  16.531  0.00  0.00    +0.000 C 
ATOM      8  C   UNL     1       5.551   4.748  15.511  0.00  0.00    +0.000 C 
ATOM      9  C   UNL     1       7.014   4.453  15.831  0.00  0.00    +0.000 C 
ATOM     10  C   UNL     1       7.346   4.769  17.289  0.00  0.00    +0.000 C 
ATOM     11  N   UNL     1       6.455   4.054  18.205  0.00  0.00    +0.000 NA
ATOM     12  H   UNL     1       6.693   4.312  19.163  0.00  0.00    +0.000 HD
ENDBRANCH   5   6
BRANCH   1  14
ATOM     13  C   UNL     1       2.499   6.702  19.588  0.00  0.00    +0.000 C 
ATOM     14  C   UNL     1       2.144   5.377  18.932  0.00  0.00    +0.000 C 
ENDBRANCH   1  14
TORSDOF 2
ENDMDL
MODEL 6
REMARK VINA RESULT:      -5.7      2.440      5.408
REMARK  Name = 
REMARK  3 active torsions:
REMARK  status: ('A' for Active; 'I' for Inactive)
REMARK    1  A    between atoms: C_1  and  C_2
REMARK    2  A    between atoms: C_2  and  N_3
REMARK    3  A    between atoms: C_7  and  C_8
REMARK                            x       y       z     vdW  Elec       q    Type
REMARK                         _______ _______ _______ _____ _____    ______ ____
ROOT
ATOM      1  N   UNL     1       2.739   3.748  19.301  0.00  0.00    +0.000 N 
ATOM      2  C   UNL     1       1.934   2.788  18.742  0.00  0.00    +0.000 A 
ATOM      3  N   UNL     1       2.185   2.615  17.471  0.00  0.00    +0.000 NA
ATOM      4  C   UNL     1       3.215   3.471  17.197  0.00  0.00    +0.000 A 
ATOM      5  C   UNL     1       3.615   4.168  18.323  0.00  0.00    +0.000 A 
ENDROOT
BRANCH   5   6
ATOM      6  C   UNL     1       4.727   5.158  18.447  0.00  0.00    +0.000 C 
ATOM      7  C   UNL     1       5.065   5.865  17.125  0.00  0.00    +0.000 C 
ATOM      8  C   UNL     1       6.194   6.876  17.325  0.00  0.00    +0.000 C 
ATOM      9  C   UNL     1       7.380   6.238  18.043  0.00  0.00    +0.000 C 
ATOM     10  C   UNL     1       6.945   5.513  19.315  0.00  0.00    +0.000 C 
ATOM     11  N   UNL     1       5.908   4.517  19.033  0.00  0.00    +0.000 NA
ATOM     12  H   UNL     1       5.629   4.076  19.909  0.00  0.00    +0.000 HD
ENDBRANCH   5   6
BRANCH   1  14
ATOM     13  C   UNL     1       1.920   3.171  21.570  0.00  0.00    +0.000 C 
ATOM     14  C   UNL     1       2.636   4.177  20.683  0.00  0.00    +0.000 C 
ENDBRANCH   1  14
TORSDOF 2
ENDMDL
MODEL 7
REMARK VINA RESULT:      -5.7      1.308      1.414
REMARK  Name = 
REMARK  3 active torsions:
REMARK  status: ('A' for Active; 'I' for Inactive)
REMARK    1  A    between atoms: C_1  and  C_2
REMARK    2  A    between atoms: C_2  and  N_3
REMARK    3  A    between atoms: C_7  and  C_8
REMARK                            x       y       z     vdW  Elec       q    Type
REMARK                         _______ _______ _______ _____ _____    ______ ____
ROOT
ATOM      1  N   UNL     1       5.682   4.799  16.250  0.00  0.00    +0.000 N 
ATOM      2  C   UNL     1       6.352   5.993  16.340  0.00  0.00    +0.000 A 
ATOM      3  N   UNL     1       5.755   6.832  17.146  0.00  0.00    +0.000 NA
ATOM      4  C   UNL     1       4.672   6.148  17.625  0.00  0.00    +0.000 A 
ATOM      5  C   UNL     1       4.613   4.862  17.118  0.00  0.00    +0.000 A 
ENDROOT
BRANCH   5   6
ATOM      6  C   UNL     1       3.615   3.794  17.427  0.00  0.00    +0.000 C 
ATOM      7  C   UNL     1       2.307   4.337  18.024  0.00  0.00    +0.000 C 
ATOM      8  C   UNL     1       1.324   3.199  18.298  0.00  0.00    +0.000 C 
ATOM      9  C   UNL     1       1.988   2.081  19.097  0.00  0.00    +0.000 C 
ATOM     10  C   UNL     1       3.307   1.642  18.463  0.00  0.00    +0.000 C 
ATOM     11  N   UNL     1       4.219   2.776  18.291  0.00  0.00    +0.000 NA
ATOM     12  H   UNL     1       5.074   2.445  17.842  0.00  0.00    +0.000 HD
ENDBRANCH   5   6
BRANCH   1  14
ATOM     13  C   UNL     1       6.174   4.109  13.918  0.00  0.00    +0.000 C 
ATOM     14  C   UNL     1       6.095   3.711  15.384  0.00  0.00    +0.000 C 
ENDBRANCH   1  14
TORSDOF 2
ENDMDL
MODEL 8
REMARK VINA RESULT:      -5.7      1.962      2.230
REMARK  Name = 
REMARK  3 active torsions:
REMARK  status: ('A' for Active; 'I' for Inactive)
REMARK    1  A    between atoms: C_1  and  C_2
REMARK    2  A    between atoms: C_2  and  N_3
REMARK    3  A    between atoms: C_7  and  C_8
REMARK                            x       y       z     vdW  Elec       q    Type
REMARK                         _______ _______ _______ _____ _____    ______ ____
ROOT
ATOM      1  N   UNL     1       6.094   5.910  17.255  0.00  0.00    +0.000 N 
ATOM      2  C   UNL     1       7.306   6.544  17.363  0.00  0.00    +0.000 A 
ATOM      3  N   UNL     1       7.830   6.404  18.553  0.00  0.00    +0.000 NA
ATOM      4  C   UNL     1       6.941   5.624  19.238  0.00  0.00    +0.000 A 
ATOM      5  C   UNL     1       5.862   5.263  18.450  0.00  0.00    +0.000 A 
ENDROOT
BRANCH   5   6
ATOM      6  C   UNL     1       4.707   4.387  18.812  0.00  0.00    +0.000 C 
ATOM      7  C   UNL     1       3.661   5.091  19.691  0.00  0.00    +0.000 C 
ATOM      8  C   UNL     1       2.500   4.150  20.009  0.00  0.00    +0.000 C 
ATOM      9  C   UNL     1       3.007   2.814  20.545  0.00  0.00    +0.000 C 
ATOM     10  C   UNL     1       4.081   2.214  19.639  0.00  0.00    +0.000 C 
ATOM     11  N   UNL     1       5.189   3.150  19.434  0.00  0.00    +0.000 NA
ATOM     12  H   UNL     1       5.868   2.722  18.805  0.00  0.00    +0.000 HD
ENDBRANCH   5   6
BRANCH   1  14
ATOM     13  C   UNL     1       5.527   4.785  15.118  0.00  0.00    +0.000 C 
ATOM     14  C   UNL     1       5.271   5.951  16.061  0.00  0.00    +0.000 C 
ENDBRANCH   1  14
TORSDOF 2
ENDMDL
MODEL 9
REMARK VINA RESULT:      -5.6      1.610      1.877
REMARK  Name = 
REMARK  3 active torsions:
REMARK  status: ('A' for Active; 'I' for Inactive)
REMARK    1  A    between atoms: C_1  and  C_2
REMARK    2  A    between atoms: C_2  and  N_3
REMARK    3  A    between atoms: C_7  and  C_8
REMARK                            x       y       z     vdW  Elec       q    Type
REMARK                         _______ _______ _______ _____ _____    ______ ____
ROOT
ATOM      1  N   UNL     1       5.685   4.426  17.282  0.00  0.00    +0.000 N 
ATOM      2  C   UNL     1       7.016   4.701  17.466  0.00  0.00    +0.000 A 
ATOM      3  N   UNL     1       7.273   5.096  18.686  0.00  0.00    +0.000 NA
ATOM      4  C   UNL     1       6.069   5.046  19.330  0.00  0.00    +0.000 A 
ATOM      5  C   UNL     1       5.060   4.596  18.498  0.00  0.00    +0.000 A 
ENDROOT
BRANCH   5   6
ATOM      6  C   UNL     1       3.622   4.362  18.834  0.00  0.00    +0.000 C 
ATOM      7  C   UNL     1       3.120   5.229  19.999  0.00  0.00    +0.000 C 
ATOM      8  C   UNL     1       1.643   4.958  20.279  0.00  0.00    +0.000 C 
ATOM      9  C   UNL     1       1.378   3.462  20.421  0.00  0.00    +0.000 C 
ATOM     10  C   UNL     1       1.958   2.673  19.248  0.00  0.00    +0.000 C 
ATOM     11  N   UNL     1       3.389   2.938  19.083  0.00  0.00    +0.000 NA
ATOM     12  H   UNL     1       3.730   2.414  18.277  0.00  0.00    +0.000 HD
ENDBRANCH   5   6
BRANCH   1  14
ATOM     13  C   UNL     1       6.139   3.986  14.882  0.00  0.00    +0.000 C 
ATOM     14  C   UNL     1       5.118   4.021  16.009  0.00  0.00    +0.000 C 
ENDBRANCH   1  14
TORSDOF 2
ENDMDL
