MODEL 1
REMARK VINA RESULT:      -8.0      0.000      0.000
REMARK  Name = 
REMARK  8 active torsions:
REMARK  status: ('A' for Active; 'I' for Inactive)
REMARK    1  A    between atoms: C_1  and  C_2
REMARK    2  A    between atoms: C_11  and  C_12
REMARK    3  A    between atoms: N_14  and  C_15
REMARK    4  A    between atoms: C_15  and  C_16
REMARK    5  A    between atoms: N_24  and  C_25
REMARK    6  A    between atoms: C_25  and  C_26
REMARK    7  A    between atoms: C_26  and  C_27
REMARK    8  A    between atoms: C_27  and  N_28
REMARK                            x       y       z     vdW  Elec       q    Type
REMARK                         _______ _______ _______ _____ _____    ______ ____
ROOT
ATOM      1  C   UNL     1      -4.280  14.271  20.441  0.00  0.00    +0.000 C 
ATOM      2  C   UNL     1      -3.553  13.701  21.618  0.00  0.00    +0.000 A 
ATOM      3  C   UNL     1      -3.782  14.107  22.877  0.00  0.00    +0.000 A 
ATOM      4  C   UNL     1      -3.059  13.548  23.983  0.00  0.00    +0.000 A 
ATOM      5  C   UNL     1      -2.136  12.606  23.762  0.00  0.00    +0.000 A 
ATOM      6  N   UNL     1      -1.850  12.143  22.484  0.00  0.00    +0.000 N 
ATOM      7  C   UNL     1      -0.884  11.165  22.330  0.00  0.00    +0.000 A 
ATOM      8  O   UNL     1      -0.246  10.673  23.259  0.00  0.00    +0.000 OA
ATOM      9  C   UNL     1      -0.612  10.724  20.933  0.00  0.00    +0.000 A 
ATOM     10  C   UNL     1       0.386   9.690  20.711  0.00  0.00    +0.000 A 
ATOM     11  C   UNL     1       0.731   9.254  19.488  0.00  0.00    +0.000 A 
ATOM     12  C   UNL     1      -0.017   9.900  18.336  0.00  0.00    +0.000 A 
ATOM     13  N   UNL     1       0.233   9.523  17.112  0.00  0.00    +0.000 NA
ATOM     14  N   UNL     1      -0.976  10.904  18.590  0.00  0.00    +0.000 N 
ATOM     15  C   UNL     1      -1.298  11.292  19.920  0.00  0.00    +0.000 A 
ATOM     16  N   UNL     1      -2.277  12.230  20.165  0.00  0.00    +0.000 NA
ATOM     17  C   UNL     1      -2.515  12.635  21.373  0.00  0.00    +0.000 A 
ATOM     18  H   UNL     1       0.922   8.752  17.105  0.00  0.00    +0.000 HD
ENDROOT
BRANCH  11  19
ATOM     19  C   UNL     1       1.706   8.139  19.284  0.00  0.00    +0.000 C 
ATOM     20  O   UNL     1       2.294   8.020  18.211  0.00  0.00    +0.000 OA
ATOM     21  N   UNL     1       1.941   7.303  20.349  0.00  0.00    +0.000 N 
ATOM     22  H   UNL     1       1.619   7.547  21.274  0.00  0.00    +0.000 HD
BRANCH  21  23
ATOM     23  C   UNL     1       2.921   6.239  20.257  0.00  0.00    +0.000 C 
BRANCH  23  24
ATOM     24  C   UNL     1       2.299   4.983  19.710  0.00  0.00    +0.000 A 
ATOM     25  C   UNL     1       2.702   4.464  18.469  0.00  0.00    +0.000 A 
ATOM     26  C   UNL     1       2.083   3.329  17.941  0.00  0.00    +0.000 A 
ATOM     27  C   UNL     1       1.059   2.700  18.647  0.00  0.00    +0.000 A 
ATOM     28  C   UNL     1       0.661   3.197  19.886  0.00  0.00    +0.000 A 
ATOM     29  C   UNL     1       1.274   4.335  20.413  0.00  0.00    +0.000 A 
ENDBRANCH  23  24
ENDBRANCH  21  23
ENDBRANCH  11  19
BRANCH  14  30
ATOM     30  C   UNL     1      -1.795  11.399  17.459  0.00  0.00    +0.000 C 
BRANCH  30  31
ATOM     31  C   UNL     1      -3.170  10.736  17.311  0.00  0.00    +0.000 C 
BRANCH  31  32
ATOM     32  C   UNL     1      -4.254  11.641  16.734  0.00  0.00    +0.000 C 
BRANCH  32  33
ATOM     33  N   UNL     1      -5.315  12.031  17.667  0.00  0.00    +0.000 NA
ATOM     34  C   UNL     1      -6.313  12.982  17.147  0.00  0.00    +0.000 C 
ATOM     35  C   UNL     1      -7.186  13.498  18.305  0.00  0.00    +0.000 C 
ATOM     36  O   UNL     1      -7.824  12.418  19.008  0.00  0.00    +0.000 OA
ATOM     37  C   UNL     1      -6.840  11.483  19.482  0.00  0.00    +0.000 C 
ATOM     38  C   UNL     1      -6.020  10.910  18.310  0.00  0.00    +0.000 C 
ENDBRANCH  32  33
ENDBRANCH  31  32
ENDBRANCH  30  31
ENDBRANCH  14  30
TORSDOF 7
ENDMDL
MODEL 2
REMARK VINA RESULT:      -8.0      3.989      8.174
REMARK  Name = 
REMARK  8 active torsions:
REMARK  status: ('A' for Active; 'I' for Inactive)
REMARK    1  A    between atoms: C_1  and  C_2
REMARK    2  A    between atoms: C_11  and  C_12
REMARK    3  A    between atoms: N_14  and  C_15
REMARK    4  A    between atoms: C_15  and  C_16
REMARK    5  A    between atoms: N_24  and  C_25
REMARK    6  A    between atoms: C_25  and  C_26
REMARK    7  A    between atoms: C_26  and  C_27
REMARK    8  A    between atoms: C_27  and  N_28
REMARK                            x       y       z     vdW  Elec       q    Type
REMARK                         _______ _______ _______ _____ _____    ______ ____
ROOT
ATOM      1  C   UNL     1      -0.534   8.855  22.363  0.00  0.00    +0.000 C 
ATOM      2  C   UNL     1      -0.244   9.786  21.228  0.00  0.00    +0.000 A 
ATOM      3  C   UNL     1      -0.852  10.976  21.093  0.00  0.00    +0.000 A 
ATOM      4  C   UNL     1      -0.559  11.841  19.987  0.00  0.00    +0.000 A 
ATOM      5  C   UNL     1       0.333  11.460  19.067  0.00  0.00    +0.000 A 
ATOM      6  N   UNL     1       0.995  10.242  19.146  0.00  0.00    +0.000 N 
ATOM      7  C   UNL     1       1.907   9.913  18.159  0.00  0.00    +0.000 A 
ATOM      8  O   UNL     1       2.173  10.632  17.197  0.00  0.00    +0.000 OA
ATOM      9  C   UNL     1       2.570   8.586  18.292  0.00  0.00    +0.000 A 
ATOM     10  C   UNL     1       3.547   8.191  17.289  0.00  0.00    +0.000 A 
ATOM     11  C   UNL     1       4.168   7.000  17.300  0.00  0.00    +0.000 A 
ATOM     12  C   UNL     1       3.800   6.088  18.456  0.00  0.00    +0.000 A 
ATOM     13  N   UNL     1       4.371   4.919  18.562  0.00  0.00    +0.000 NA
ATOM     14  N   UNL     1       2.844   6.503  19.407  0.00  0.00    +0.000 N 
ATOM     15  C   UNL     1       2.249   7.793  19.335  0.00  0.00    +0.000 A 
ATOM     16  N   UNL     1       1.361   8.217  20.300  0.00  0.00    +0.000 NA
ATOM     17  C   UNL     1       0.765   9.362  20.190  0.00  0.00    +0.000 A 
ATOM     18  H   UNL     1       5.075   4.792  17.816  0.00  0.00    +0.000 HD
ENDROOT
BRANCH  11  19
ATOM     19  C   UNL     1       5.222   6.641  16.301  0.00  0.00    +0.000 C 
ATOM     20  O   UNL     1       5.218   7.155  15.186  0.00  0.00    +0.000 OA
ATOM     21  N   UNL     1       6.201   5.764  16.705  0.00  0.00    +0.000 N 
ATOM     22  H   UNL     1       6.309   5.529  17.680  0.00  0.00    +0.000 HD
BRANCH  21  23
ATOM     23  C   UNL     1       7.297   5.417  15.823  0.00  0.00    +0.000 C 
BRANCH  23  24
ATOM     24  C   UNL     1       6.793   4.713  14.592  0.00  0.00    +0.000 A 
ATOM     25  C   UNL     1       7.418   4.902  13.350  0.00  0.00    +0.000 A 
ATOM     26  C   UNL     1       6.911   4.289  12.201  0.00  0.00    +0.000 A 
ATOM     27  C   UNL     1       5.779   3.480  12.282  0.00  0.00    +0.000 A 
ATOM     28  C   UNL     1       5.160   3.273  13.513  0.00  0.00    +0.000 A 
ATOM     29  C   UNL     1       5.660   3.890  14.661  0.00  0.00    +0.000 A 
ENDBRANCH  23  24
ENDBRANCH  21  23
ENDBRANCH  11  19
BRANCH  14  30
ATOM     30  C   UNL     1       2.626   5.657  20.603  0.00  0.00    +0.000 C 
BRANCH  30  31
ATOM     31  C   UNL     1       1.269   4.944  20.659  0.00  0.00    +0.000 C 
BRANCH  31  32
ATOM     32  C   UNL     1       1.079   3.857  19.605  0.00  0.00    +0.000 C 
BRANCH  32  33
ATOM     33  N   UNL     1       2.270   3.057  19.299  0.00  0.00    +0.000 NA
ATOM     34  C   UNL     1       2.871   2.338  20.436  0.00  0.00    +0.000 C 
ATOM     35  C   UNL     1       4.243   1.777  20.022  0.00  0.00    +0.000 C 
ATOM     36  O   UNL     1       4.141   0.923  18.870  0.00  0.00    +0.000 OA
ATOM     37  C   UNL     1       3.524   1.630  17.781  0.00  0.00    +0.000 C 
ATOM     38  C   UNL     1       2.117   2.122  18.173  0.00  0.00    +0.000 C 
ENDBRANCH  32  33
ENDBRANCH  31  32
ENDBRANCH  30  31
ENDBRANCH  14  30
TORSDOF 7
ENDMDL
MODEL 3
REMARK VINA RESULT:      -7.8      4.014      8.244
REMARK  Name = 
REMARK  8 active torsions:
REMARK  status: ('A' for Active; 'I' for Inactive)
REMARK    1  A    between atoms: C_1  and  C_2
REMARK    2  A    between atoms: C_11  and  C_12
REMARK    3  A    between atoms: N_14  and  C_15
REMARK    4  A    between atoms: C_15  and  C_16
REMARK    5  A    between atoms: N_24  and  C_25
REMARK    6  A    between atoms: C_25  and  C_26
REMARK    7  A    between atoms: C_26  and  C_27
REMARK    8  A    between atoms: C_27  and  N_28
REMARK                            x       y       z     vdW  Elec       q    Type
REMARK                         _______ _______ _______ _____ _____    ______ ____
ROOT
ATOM      1  C   UNL     1      -0.762   8.807  22.086  0.00  0.00    +0.000 C 
ATOM      2  C   UNL     1      -0.363   9.693  20.948  0.00  0.00    +0.000 A 
ATOM      3  C   UNL     1      -0.958  10.871  20.704  0.00  0.00    +0.000 A 
ATOM      4  C   UNL     1      -0.560  11.692  19.597  0.00  0.00    +0.000 A 
ATOM      5  C   UNL     1       0.421  11.280  18.786  0.00  0.00    +0.000 A 
ATOM      6  N   UNL     1       1.076  10.072  18.982  0.00  0.00    +0.000 N 
ATOM      7  C   UNL     1       2.083   9.710  18.105  0.00  0.00    +0.000 A 
ATOM      8  O   UNL     1       2.440  10.390  17.145  0.00  0.00    +0.000 OA
ATOM      9  C   UNL     1       2.734   8.394  18.359  0.00  0.00    +0.000 A 
ATOM     10  C   UNL     1       3.808   7.966  17.475  0.00  0.00    +0.000 A 
ATOM     11  C   UNL     1       4.428   6.781  17.597  0.00  0.00    +0.000 A 
ATOM     12  C   UNL     1       3.950   5.915  18.748  0.00  0.00    +0.000 A 
ATOM     13  N   UNL     1       4.512   4.756  18.960  0.00  0.00    +0.000 NA
ATOM     14  N   UNL     1       2.903   6.361  19.582  0.00  0.00    +0.000 N 
ATOM     15  C   UNL     1       2.313   7.642  19.397  0.00  0.00    +0.000 A 
ATOM     16  N   UNL     1       1.332   8.098  20.250  0.00  0.00    +0.000 NA
ATOM     17  C   UNL     1       0.746   9.234  20.034  0.00  0.00    +0.000 A 
ATOM     18  H   UNL     1       5.288   4.603  18.293  0.00  0.00    +0.000 HD
ENDROOT
BRANCH  11  19
ATOM     19  C   UNL     1       5.579   6.390  16.725  0.00  0.00    +0.000 C 
ATOM     20  O   UNL     1       6.417   7.225  16.396  0.00  0.00    +0.000 OA
ATOM     21  N   UNL     1       5.672   5.068  16.359  0.00  0.00    +0.000 N 
ATOM     22  H   UNL     1       5.106   4.368  16.814  0.00  0.00    +0.000 HD
BRANCH  21  23
ATOM     23  C   UNL     1       6.792   4.592  15.572  0.00  0.00    +0.000 C 
BRANCH  23  24
ATOM     24  C   UNL     1       6.349   4.207  14.186  0.00  0.00    +0.000 A 
ATOM     25  C   UNL     1       5.024   3.814  13.941  0.00  0.00    +0.000 A 
ATOM     26  C   UNL     1       4.633   3.404  12.663  0.00  0.00    +0.000 A 
ATOM     27  C   UNL     1       5.558   3.386  11.621  0.00  0.00    +0.000 A 
ATOM     28  C   UNL     1       6.871   3.789  11.851  0.00  0.00    +0.000 A 
ATOM     29  C   UNL     1       7.267   4.192  13.128  0.00  0.00    +0.000 A 
ENDBRANCH  23  24
ENDBRANCH  21  23
ENDBRANCH  11  19
BRANCH  14  30
ATOM     30  C   UNL     1       2.570   5.563  20.785  0.00  0.00    +0.000 C 
BRANCH  30  31
ATOM     31  C   UNL     1       1.264   4.764  20.695  0.00  0.00    +0.000 C 
BRANCH  31  32
ATOM     32  C   UNL     1       1.418   3.265  20.940  0.00  0.00    +0.000 C 
BRANCH  32  33
ATOM     33  N   UNL     1       2.072   2.513  19.865  0.00  0.00    +0.000 NA
ATOM     34  C   UNL     1       1.863   3.026  18.500  0.00  0.00    +0.000 C 
ATOM     35  C   UNL     1       2.373   1.994  17.478  0.00  0.00    +0.000 C 
ATOM     36  O   UNL     1       3.755   1.670  17.698  0.00  0.00    +0.000 OA
ATOM     37  C   UNL     1       3.949   1.201  19.043  0.00  0.00    +0.000 C 
ATOM     38  C   UNL     1       3.510   2.268  20.064  0.00  0.00    +0.000 C 
ENDBRANCH  32  33
ENDBRANCH  31  32
ENDBRANCH  30  31
ENDBRANCH  14  30
TORSDOF 7
ENDMDL
MODEL 4
REMARK VINA RESULT:      -7.6      2.062      4.512
REMARK  Name = 
REMARK  8 active torsions:
REMARK  status: ('A' for Active; 'I' for Inactive)
REMARK    1  A    between atoms: C_1  and  C_2
REMARK    2  A    between atoms: C_11  and  C_12
REMARK    3  A    between atoms: N_14  and  C_15
REMARK    4  A    between atoms: C_15  and  C_16
REMARK    5  A    between atoms: N_24  and  C_25
REMARK    6  A    between atoms: C_25  and  C_26
REMARK    7  A    between atoms: C_26  and  C_27
REMARK    8  A    between atoms: C_27  and  N_28
REMARK                            x       y       z     vdW  Elec       q    Type
REMARK                         _______ _______ _______ _____ _____    ______ ____
ROOT
ATOM      1  C   UNL     1      -5.353  13.958  20.484  0.00  0.00    +0.000 C 
ATOM      2  C   UNL     1      -5.392  13.108  19.253  0.00  0.00    +0.000 A 
ATOM      3  C   UNL     1      -6.464  13.050  18.446  0.00  0.00    +0.000 A 
ATOM      4  C   UNL     1      -6.474  12.215  17.280  0.00  0.00    +0.000 A 
ATOM      5  C   UNL     1      -5.399  11.475  16.986  0.00  0.00    +0.000 A 
ATOM      6  N   UNL     1      -4.260  11.487  17.780  0.00  0.00    +0.000 N 
ATOM      7  C   UNL     1      -3.184  10.698  17.416  0.00  0.00    +0.000 A 
ATOM      8  O   UNL     1      -3.167   9.969  16.425  0.00  0.00    +0.000 OA
ATOM      9  C   UNL     1      -2.000  10.742  18.318  0.00  0.00    +0.000 A 
ATOM     10  C   UNL     1      -0.834   9.941  17.978  0.00  0.00    +0.000 A 
ATOM     11  C   UNL     1       0.265   9.883  18.748  0.00  0.00    +0.000 A 
ATOM     12  C   UNL     1       0.225  10.739  20.000  0.00  0.00    +0.000 A 
ATOM     13  N   UNL     1       1.258  10.765  20.798  0.00  0.00    +0.000 NA
ATOM     14  N   UNL     1      -0.925  11.500  20.300  0.00  0.00    +0.000 N 
ATOM     15  C   UNL     1      -2.041  11.523  19.417  0.00  0.00    +0.000 A 
ATOM     16  N   UNL     1      -3.137  12.314  19.684  0.00  0.00    +0.000 NA
ATOM     17  C   UNL     1      -4.181  12.275  18.917  0.00  0.00    +0.000 A 
ATOM     18  H   UNL     1       2.027  10.193  20.410  0.00  0.00    +0.000 HD
ENDROOT
BRANCH  11  19
ATOM     19  C   UNL     1       1.481   9.110  18.345  0.00  0.00    +0.000 C 
ATOM     20  O   UNL     1       2.166   9.486  17.398  0.00  0.00    +0.000 OA
ATOM     21  N   UNL     1       1.810   8.012  19.103  0.00  0.00    +0.000 N 
ATOM     22  H   UNL     1       1.367   7.852  19.996  0.00  0.00    +0.000 HD
BRANCH  21  23
ATOM     23  C   UNL     1       3.010   7.248  18.823  0.00  0.00    +0.000 C 
BRANCH  23  24
ATOM     24  C   UNL     1       2.912   5.864  19.406  0.00  0.00    +0.000 A 
ATOM     25  C   UNL     1       1.927   5.552  20.354  0.00  0.00    +0.000 A 
ATOM     26  C   UNL     1       1.876   4.281  20.932  0.00  0.00    +0.000 A 
ATOM     27  C   UNL     1       2.806   3.310  20.565  0.00  0.00    +0.000 A 
ATOM     28  C   UNL     1       3.779   3.604  19.613  0.00  0.00    +0.000 A 
ATOM     29  C   UNL     1       3.836   4.875  19.039  0.00  0.00    +0.000 A 
ENDBRANCH  23  24
ENDBRANCH  21  23
ENDBRANCH  11  19
BRANCH  14  30
ATOM     30  C   UNL     1      -0.871  12.442  21.442  0.00  0.00    +0.000 C 
BRANCH  30  31
ATOM     31  C   UNL     1      -1.654  12.003  22.686  0.00  0.00    +0.000 C 
BRANCH  31  32
ATOM     32  C   UNL     1      -2.027  13.138  23.635  0.00  0.00    +0.000 C 
BRANCH  32  33
ATOM     33  N   UNL     1      -3.438  13.539  23.617  0.00  0.00    +0.000 NA
ATOM     34  C   UNL     1      -4.383  12.594  24.237  0.00  0.00    +0.000 C 
ATOM     35  C   UNL     1      -5.825  13.015  23.903  0.00  0.00    +0.000 C 
ATOM     36  O   UNL     1      -6.095  14.362  24.325  0.00  0.00    +0.000 OA
ATOM     37  C   UNL     1      -5.145  15.267  23.736  0.00  0.00    +0.000 C 
ATOM     38  C   UNL     1      -3.706  14.889  24.138  0.00  0.00    +0.000 C 
ENDBRANCH  32  33
ENDBRANCH  31  32
ENDBRANCH  30  31
ENDBRANCH  14  30
TORSDOF 7
ENDMDL
MODEL 5
REMARK VINA RESULT:      -7.5      2.801      4.938
REMARK  Name = 
REMARK  8 active torsions:
REMARK  status: ('A' for Active; 'I' for Inactive)
REMARK    1  A    between atoms: C_1  and  C_2
REMARK    2  A    between atoms: C_11  and  C_12
REMARK    3  A    between atoms: N_14  and  C_15
REMARK    4  A    between atoms: C_15  and  C_16
REMARK    5  A    between atoms: N_24  and  C_25
REMARK    6  A    between atoms: C_25  and  C_26
REMARK    7  A    between atoms: C_26  and  C_27
REMARK    8  A    between atoms: C_27  and  N_28
REMARK                            x       y       z     vdW  Elec       q    Type
REMARK                         _______ _______ _______ _____ _____    ______ ____
ROOT
ATOM      1  C   UNL     1      -5.426  13.748  20.996  0.00  0.00    +0.000 C 
ATOM      2  C   UNL     1      -5.413  13.156  19.621  0.00  0.00    +0.000 A 
ATOM      3  C   UNL     1      -6.445  13.276  18.771  0.00  0.00    +0.000 A 
ATOM      4  C   UNL     1      -6.406  12.686  17.463  0.00  0.00    +0.000 A 
ATOM      5  C   UNL     1      -5.324  12.001  17.079  0.00  0.00    +0.000 A 
ATOM      6  N   UNL     1      -4.224  11.838  17.911  0.00  0.00    +0.000 N 
ATOM      7  C   UNL     1      -3.139  11.117  17.447  0.00  0.00    +0.000 A 
ATOM      8  O   UNL     1      -3.080  10.596  16.334  0.00  0.00    +0.000 OA
ATOM      9  C   UNL     1      -1.998  10.963  18.393  0.00  0.00    +0.000 A 
ATOM     10  C   UNL     1      -0.824  10.224  17.955  0.00  0.00    +0.000 A 
ATOM     11  C   UNL     1       0.236   9.997  18.748  0.00  0.00    +0.000 A 
ATOM     12  C   UNL     1       0.143  10.592  20.141  0.00  0.00    +0.000 A 
ATOM     13  N   UNL     1       1.137  10.443  20.974  0.00  0.00    +0.000 NA
ATOM     14  N   UNL     1      -1.014  11.299  20.532  0.00  0.00    +0.000 N 
ATOM     15  C   UNL     1      -2.085  11.513  19.621  0.00  0.00    +0.000 A 
ATOM     16  N   UNL     1      -3.187  12.255  19.989  0.00  0.00    +0.000 NA
ATOM     17  C   UNL     1      -4.193  12.385  19.183  0.00  0.00    +0.000 A 
ATOM     18  H   UNL     1       1.920   9.945  20.517  0.00  0.00    +0.000 HD
ENDROOT
BRANCH  11  19
ATOM     19  C   UNL     1       1.464   9.298  18.256  0.00  0.00    +0.000 C 
ATOM     20  O   UNL     1       2.220   9.858  17.466  0.00  0.00    +0.000 OA
ATOM     21  N   UNL     1       1.722   8.045  18.760  0.00  0.00    +0.000 N 
ATOM     22  H   UNL     1       1.215   7.700  19.562  0.00  0.00    +0.000 HD
BRANCH  21  23
ATOM     23  C   UNL     1       2.925   7.328  18.389  0.00  0.00    +0.000 C 
BRANCH  23  24
ATOM     24  C   UNL     1       2.758   5.849  18.615  0.00  0.00    +0.000 A 
ATOM     25  C   UNL     1       1.847   5.104  17.851  0.00  0.00    +0.000 A 
ATOM     26  C   UNL     1       1.657   3.743  18.103  0.00  0.00    +0.000 A 
ATOM     27  C   UNL     1       2.377   3.114  19.117  0.00  0.00    +0.000 A 
ATOM     28  C   UNL     1       3.295   3.840  19.871  0.00  0.00    +0.000 A 
ATOM     29  C   UNL     1       3.482   5.201  19.626  0.00  0.00    +0.000 A 
ENDBRANCH  23  24
ENDBRANCH  21  23
ENDBRANCH  11  19
BRANCH  14  30
ATOM     30  C   UNL     1      -1.006  11.997  21.838  0.00  0.00    +0.000 C 
BRANCH  30  31
ATOM     31  C   UNL     1      -0.835  13.519  21.763  0.00  0.00    +0.000 C 
BRANCH  31  32
ATOM     32  C   UNL     1       0.572  13.984  21.398  0.00  0.00    +0.000 C 
BRANCH  32  33
ATOM     33  N   UNL     1       0.642  15.116  20.468  0.00  0.00    +0.000 NA
ATOM     34  C   UNL     1       1.787  15.117  19.541  0.00  0.00    +0.000 C 
ATOM     35  C   UNL     1       1.873  16.480  18.831  0.00  0.00    +0.000 C 
ATOM     36  O   UNL     1       0.653  16.794  18.140  0.00  0.00    +0.000 OA
ATOM     37  C   UNL     1      -0.458  16.758  19.051  0.00  0.00    +0.000 C 
ATOM     38  C   UNL     1      -0.589  15.368  19.702  0.00  0.00    +0.000 C 
ENDBRANCH  32  33
ENDBRANCH  31  32
ENDBRANCH  30  31
ENDBRANCH  14  30
TORSDOF 7
ENDMDL
MODEL 6
REMARK VINA RESULT:      -7.5      3.412      5.178
REMARK  Name = 
REMARK  8 active torsions:
REMARK  status: ('A' for Active; 'I' for Inactive)
REMARK    1  A    between atoms: C_1  and  C_2
REMARK    2  A    between atoms: C_11  and  C_12
REMARK    3  A    between atoms: N_14  and  C_15
REMARK    4  A    between atoms: C_15  and  C_16
REMARK    5  A    between atoms: N_24  and  C_25
REMARK    6  A    between atoms: C_25  and  C_26
REMARK    7  A    between atoms: C_26  and  C_27
REMARK    8  A    between atoms: C_27  and  N_28
REMARK                            x       y       z     vdW  Elec       q    Type
REMARK                         _______ _______ _______ _____ _____    ______ ____
ROOT
ATOM      1  C   UNL     1      -2.159  15.167  21.014  0.00  0.00    +0.000 C 
ATOM      2  C   UNL     1      -2.245  13.962  21.896  0.00  0.00    +0.000 A 
ATOM      3  C   UNL     1      -2.975  13.939  23.024  0.00  0.00    +0.000 A 
ATOM      4  C   UNL     1      -3.026  12.770  23.855  0.00  0.00    +0.000 A 
ATOM      5  C   UNL     1      -2.334  11.680  23.506  0.00  0.00    +0.000 A 
ATOM      6  N   UNL     1      -1.559  11.639  22.356  0.00  0.00    +0.000 N 
ATOM      7  C   UNL     1      -0.871  10.476  22.057  0.00  0.00    +0.000 A 
ATOM      8  O   UNL     1      -0.892   9.463  22.753  0.00  0.00    +0.000 OA
ATOM      9  C   UNL     1      -0.044  10.502  20.818  0.00  0.00    +0.000 A 
ATOM     10  C   UNL     1       0.694   9.303  20.448  0.00  0.00    +0.000 A 
ATOM     11  C   UNL     1       1.497   9.241  19.373  0.00  0.00    +0.000 A 
ATOM     12  C   UNL     1       1.569  10.509  18.542  0.00  0.00    +0.000 A 
ATOM     13  N   UNL     1       2.306  10.534  17.466  0.00  0.00    +0.000 NA
ATOM     14  N   UNL     1       0.843  11.653  18.935  0.00  0.00    +0.000 N 
ATOM     15  C   UNL     1      -0.004  11.629  20.078  0.00  0.00    +0.000 A 
ATOM     16  N   UNL     1      -0.757  12.730  20.424  0.00  0.00    +0.000 NA
ATOM     17  C   UNL     1      -1.469  12.729  21.506  0.00  0.00    +0.000 A 
ATOM     18  H   UNL     1       2.730   9.606  17.296  0.00  0.00    +0.000 HD
ENDROOT
BRANCH  11  19
ATOM     19  C   UNL     1       2.190   7.978  18.968  0.00  0.00    +0.000 C 
ATOM     20  O   UNL     1       2.398   7.741  17.781  0.00  0.00    +0.000 OA
ATOM     21  N   UNL     1       2.613   7.140  19.972  0.00  0.00    +0.000 N 
ATOM     22  H   UNL     1       2.628   7.454  20.931  0.00  0.00    +0.000 HD
BRANCH  21  23
ATOM     23  C   UNL     1       3.351   5.931  19.669  0.00  0.00    +0.000 C 
BRANCH  23  24
ATOM     24  C   UNL     1       2.416   4.770  19.455  0.00  0.00    +0.000 A 
ATOM     25  C   UNL     1       1.581   4.322  20.490  0.00  0.00    +0.000 A 
ATOM     26  C   UNL     1       0.756   3.210  20.303  0.00  0.00    +0.000 A 
ATOM     27  C   UNL     1       0.754   2.540  19.081  0.00  0.00    +0.000 A 
ATOM     28  C   UNL     1       1.568   2.986  18.042  0.00  0.00    +0.000 A 
ATOM     29  C   UNL     1       2.398   4.092  18.229  0.00  0.00    +0.000 A 
ENDBRANCH  23  24
ENDBRANCH  21  23
ENDBRANCH  11  19
BRANCH  14  30
ATOM     30  C   UNL     1       0.812  12.817  18.020  0.00  0.00    +0.000 C 
BRANCH  30  31
ATOM     31  C   UNL     1       1.997  13.783  18.154  0.00  0.00    +0.000 C 
BRANCH  31  32
ATOM     32  C   UNL     1       2.630  13.824  19.541  0.00  0.00    +0.000 C 
BRANCH  32  33
ATOM     33  N   UNL     1       3.255  15.098  19.913  0.00  0.00    +0.000 NA
ATOM     34  C   UNL     1       4.628  15.308  19.424  0.00  0.00    +0.000 C 
ATOM     35  C   UNL     1       5.236  16.544  20.111  0.00  0.00    +0.000 C 
ATOM     36  O   UNL     1       4.432  17.716  19.902  0.00  0.00    +0.000 OA
ATOM     37  C   UNL     1       3.087  17.484  20.356  0.00  0.00    +0.000 C 
ATOM     38  C   UNL     1       2.454  16.294  19.609  0.00  0.00    +0.000 C 
ENDBRANCH  32  33
ENDBRANCH  31  32
ENDBRANCH  30  31
ENDBRANCH  14  30
TORSDOF 7
ENDMDL
MODEL 7
REMARK VINA RESULT:      -7.5      2.066      4.644
REMARK  Name = 
REMARK  8 active torsions:
REMARK  status: ('A' for Active; 'I' for Inactive)
REMARK    1  A    between atoms: C_1  and  C_2
REMARK    2  A    between atoms: C_11  and  C_12
REMARK    3  A    between atoms: N_14  and  C_15
REMARK    4  A    between atoms: C_15  and  C_16
REMARK    5  A    between atoms: N_24  and  C_25
REMARK    6  A    between atoms: C_25  and  C_26
REMARK    7  A    between atoms: C_26  and  C_27
REMARK    8  A    between atoms: C_27  and  N_28
REMARK                            x       y       z     vdW  Elec       q    Type
REMARK                         _______ _______ _______ _____ _____    ______ ____
ROOT
ATOM      1  C   UNL     1      -5.395  13.953  20.782  0.00  0.00    +0.000 C 
ATOM      2  C   UNL     1      -5.490  13.088  19.564  0.00  0.00    +0.000 A 
ATOM      3  C   UNL     1      -6.612  12.987  18.833  0.00  0.00    +0.000 A 
ATOM      4  C   UNL     1      -6.673  12.138  17.677  0.00  0.00    +0.000 A 
ATOM      5  C   UNL     1      -5.597  11.430  17.318  0.00  0.00    +0.000 A 
ATOM      6  N   UNL     1      -4.408  11.488  18.032  0.00  0.00    +0.000 N 
ATOM      7  C   UNL     1      -3.334  10.730  17.602  0.00  0.00    +0.000 A 
ATOM      8  O   UNL     1      -3.361   9.990  16.619  0.00  0.00    +0.000 OA
ATOM      9  C   UNL     1      -2.093  10.822  18.421  0.00  0.00    +0.000 A 
ATOM     10  C   UNL     1      -0.928  10.054  18.009  0.00  0.00    +0.000 A 
ATOM     11  C   UNL     1       0.222  10.040  18.703  0.00  0.00    +0.000 A 
ATOM     12  C   UNL     1       0.239  10.909  19.947  0.00  0.00    +0.000 A 
ATOM     13  N   UNL     1       1.323  10.977  20.672  0.00  0.00    +0.000 NA
ATOM     14  N   UNL     1      -0.912  11.636  20.318  0.00  0.00    +0.000 N 
ATOM     15  C   UNL     1      -2.085  11.613  19.513  0.00  0.00    +0.000 A 
ATOM     16  N   UNL     1      -3.186  12.371  19.847  0.00  0.00    +0.000 NA
ATOM     17  C   UNL     1      -4.278  12.290  19.153  0.00  0.00    +0.000 A 
ATOM     18  H   UNL     1       2.083  10.426  20.238  0.00  0.00    +0.000 HD
ENDROOT
BRANCH  11  19
ATOM     19  C   UNL     1       1.433   9.303  18.225  0.00  0.00    +0.000 C 
ATOM     20  O   UNL     1       2.103   9.749  17.297  0.00  0.00    +0.000 OA
ATOM     21  N   UNL     1       1.776   8.152  18.894  0.00  0.00    +0.000 N 
ATOM     22  H   UNL     1       1.347   7.925  19.779  0.00  0.00    +0.000 HD
BRANCH  21  23
ATOM     23  C   UNL     1       2.972   7.414  18.540  0.00  0.00    +0.000 C 
BRANCH  23  24
ATOM     24  C   UNL     1       2.763   5.935  18.722  0.00  0.00    +0.000 A 
ATOM     25  C   UNL     1       3.510   5.216  19.668  0.00  0.00    +0.000 A 
ATOM     26  C   UNL     1       3.351   3.834  19.794  0.00  0.00    +0.000 A 
ATOM     27  C   UNL     1       2.443   3.158  18.980  0.00  0.00    +0.000 A 
ATOM     28  C   UNL     1       1.686   3.864  18.049  0.00  0.00    +0.000 A 
ATOM     29  C   UNL     1       1.847   5.244  17.916  0.00  0.00    +0.000 A 
ENDBRANCH  23  24
ENDBRANCH  21  23
ENDBRANCH  11  19
BRANCH  14  30
ATOM     30  C   UNL     1      -0.811  12.592  21.445  0.00  0.00    +0.000 C 
BRANCH  30  31
ATOM     31  C   UNL     1      -1.263  12.045  22.805  0.00  0.00    +0.000 C 
BRANCH  31  32
ATOM     32  C   UNL     1      -2.733  12.291  23.133  0.00  0.00    +0.000 C 
BRANCH  32  33
ATOM     33  N   UNL     1      -3.082  13.675  23.468  0.00  0.00    +0.000 NA
ATOM     34  C   UNL     1      -4.180  13.845  24.436  0.00  0.00    +0.000 C 
ATOM     35  C   UNL     1      -4.606  15.323  24.477  0.00  0.00    +0.000 C 
ATOM     36  O   UNL     1      -3.501  16.184  24.799  0.00  0.00    +0.000 OA
ATOM     37  C   UNL     1      -2.427  15.984  23.864  0.00  0.00    +0.000 C 
ATOM     38  C   UNL     1      -1.950  14.519  23.883  0.00  0.00    +0.000 C 
ENDBRANCH  32  33
ENDBRANCH  31  32
ENDBRANCH  30  31
ENDBRANCH  14  30
TORSDOF 7
ENDMDL
MODEL 8
REMARK VINA RESULT:      -7.5      0.963      1.079
REMARK  Name = 
REMARK  8 active torsions:
REMARK  status: ('A' for Active; 'I' for Inactive)
REMARK    1  A    between atoms: C_1  and  C_2
REMARK    2  A    between atoms: C_11  and  C_12
REMARK    3  A    between atoms: N_14  and  C_15
REMARK    4  A    between atoms: C_15  and  C_16
REMARK    5  A    between atoms: N_24  and  C_25
REMARK    6  A    between atoms: C_25  and  C_26
REMARK    7  A    between atoms: C_26  and  C_27
REMARK    8  A    between atoms: C_27  and  N_28
REMARK                            x       y       z     vdW  Elec       q    Type
REMARK                         _______ _______ _______ _____ _____    ______ ____
ROOT
ATOM      1  C   UNL     1      -4.323  14.355  20.355  0.00  0.00    +0.000 C 
ATOM      2  C   UNL     1      -3.834  13.727  21.622  0.00  0.00    +0.000 A 
ATOM      3  C   UNL     1      -4.300  14.078  22.832  0.00  0.00    +0.000 A 
ATOM      4  C   UNL     1      -3.801  13.464  24.029  0.00  0.00    +0.000 A 
ATOM      5  C   UNL     1      -2.852  12.526  23.946  0.00  0.00    +0.000 A 
ATOM      6  N   UNL     1      -2.326  12.120  22.727  0.00  0.00    +0.000 N 
ATOM      7  C   UNL     1      -1.346  11.143  22.716  0.00  0.00    +0.000 A 
ATOM      8  O   UNL     1      -0.896  10.605  23.726  0.00  0.00    +0.000 OA
ATOM      9  C   UNL     1      -0.811  10.764  21.378  0.00  0.00    +0.000 A 
ATOM     10  C   UNL     1       0.214   9.734  21.304  0.00  0.00    +0.000 A 
ATOM     11  C   UNL     1       0.787   9.352  20.151  0.00  0.00    +0.000 A 
ATOM     12  C   UNL     1       0.273  10.054  18.908  0.00  0.00    +0.000 A 
ATOM     13  N   UNL     1       0.754   9.732  17.739  0.00  0.00    +0.000 NA
ATOM     14  N   UNL     1      -0.719  11.052  19.019  0.00  0.00    +0.000 N 
ATOM     15  C   UNL     1      -1.290  11.382  20.279  0.00  0.00    +0.000 A 
ATOM     16  N   UNL     1      -2.300  12.315  20.375  0.00  0.00    +0.000 NA
ATOM     17  C   UNL     1      -2.766  12.666  21.533  0.00  0.00    +0.000 A 
ATOM     18  H   UNL     1       1.432   8.956  17.829  0.00  0.00    +0.000 HD
ENDROOT
BRANCH  11  19
ATOM     19  C   UNL     1       1.786   8.240  20.087  0.00  0.00    +0.000 C 
ATOM     20  O   UNL     1       2.283   7.795  21.118  0.00  0.00    +0.000 OA
ATOM     21  N   UNL     1       2.074   7.722  18.847  0.00  0.00    +0.000 N 
ATOM     22  H   UNL     1       1.499   7.949  18.049  0.00  0.00    +0.000 HD
BRANCH  21  23
ATOM     23  C   UNL     1       2.979   6.599  18.703  0.00  0.00    +0.000 C 
BRANCH  23  24
ATOM     24  C   UNL     1       2.253   5.296  18.910  0.00  0.00    +0.000 A 
ATOM     25  C   UNL     1       1.730   4.585  17.820  0.00  0.00    +0.000 A 
ATOM     26  C   UNL     1       1.010   3.405  18.023  0.00  0.00    +0.000 A 
ATOM     27  C   UNL     1       0.808   2.924  19.316  0.00  0.00    +0.000 A 
ATOM     28  C   UNL     1       1.336   3.615  20.404  0.00  0.00    +0.000 A 
ATOM     29  C   UNL     1       2.050   4.797  20.204  0.00  0.00    +0.000 A 
ENDBRANCH  23  24
ENDBRANCH  21  23
ENDBRANCH  11  19
BRANCH  14  30
ATOM     30  C   UNL     1      -1.307  11.604  17.777  0.00  0.00    +0.000 C 
BRANCH  30  31
ATOM     31  C   UNL     1      -2.318  10.690  17.073  0.00  0.00    +0.000 C 
BRANCH  31  32
ATOM     32  C   UNL     1      -3.447  10.183  17.967  0.00  0.00    +0.000 C 
BRANCH  32  33
ATOM     33  N   UNL     1      -4.636  11.039  18.030  0.00  0.00    +0.000 NA
ATOM     34  C   UNL     1      -4.957  11.786  16.801  0.00  0.00    +0.000 C 
ATOM     35  C   UNL     1      -6.049  12.828  17.103  0.00  0.00    +0.000 C 
ATOM     36  O   UNL     1      -7.227  12.216  17.654  0.00  0.00    +0.000 OA
ATOM     37  C   UNL     1      -6.892  11.465  18.834  0.00  0.00    +0.000 C 
ATOM     38  C   UNL     1      -5.856  10.371  18.511  0.00  0.00    +0.000 C 
ENDBRANCH  32  33
ENDBRANCH  31  32
ENDBRANCH  30  31
ENDBRANCH  14  30
TORSDOF 7
ENDMDL
MODEL 9
REMARK VINA RESULT:      -7.4      3.614      5.610
REMARK  Name = 
REMARK  8 active torsions:
REMARK  status: ('A' for Active; 'I' for Inactive)
REMARK    1  A    between atoms: C_1  and  C_2
REMARK    2  A    between atoms: C_11  and  C_12
REMARK    3  A    between atoms: N_14  and  C_15
REMARK    4  A    between atoms: C_15  and  C_16
REMARK    5  A    between atoms: N_24  and  C_25
REMARK    6  A    between atoms: C_25  and  C_26
REMARK    7  A    between atoms: C_26  and  C_27
REMARK    8  A    between atoms: C_27  and  N_28
REMARK                            x       y       z     vdW  Elec       q    Type
REMARK                         _______ _______ _______ _____ _____    ______ ____
ROOT
ATOM      1  C   UNL     1      -1.838  15.637  21.408  0.00  0.00    +0.000 C 
ATOM      2  C   UNL     1      -2.043  14.350  22.144  0.00  0.00    +0.000 A 
ATOM      3  C   UNL     1      -2.822  14.255  23.235  0.00  0.00    +0.000 A 
ATOM      4  C   UNL     1      -2.988  13.009  23.925  0.00  0.00    +0.000 A 
ATOM      5  C   UNL     1      -2.356  11.917  23.481  0.00  0.00    +0.000 A 
ATOM      6  N   UNL     1      -1.535  11.948  22.362  0.00  0.00    +0.000 N 
ATOM      7  C   UNL     1      -0.914  10.780  21.959  0.00  0.00    +0.000 A 
ATOM      8  O   UNL     1      -1.034   9.699  22.535  0.00  0.00    +0.000 OA
ATOM      9  C   UNL     1      -0.033  10.882  20.762  0.00  0.00    +0.000 A 
ATOM     10  C   UNL     1       0.638   9.683  20.285  0.00  0.00    +0.000 A 
ATOM     11  C   UNL     1       1.482   9.682  19.240  0.00  0.00    +0.000 A 
ATOM     12  C   UNL     1       1.675  11.025  18.562  0.00  0.00    +0.000 A 
ATOM     13  N   UNL     1       2.459  11.117  17.522  0.00  0.00    +0.000 NA
ATOM     14  N   UNL     1       1.011  12.168  19.055  0.00  0.00    +0.000 N 
ATOM     15  C   UNL     1       0.114  12.079  20.156  0.00  0.00    +0.000 A 
ATOM     16  N   UNL     1      -0.577  13.186  20.597  0.00  0.00    +0.000 NA
ATOM     17  C   UNL     1      -1.335  13.116  21.645  0.00  0.00    +0.000 A 
ATOM     18  H   UNL     1       2.827  10.185  17.265  0.00  0.00    +0.000 HD
ENDROOT
BRANCH  11  19
ATOM     19  C   UNL     1       2.106   8.425  18.720  0.00  0.00    +0.000 C 
ATOM     20  O   UNL     1       2.217   8.245  17.510  0.00  0.00    +0.000 OA
ATOM     21  N   UNL     1       2.580   7.526  19.645  0.00  0.00    +0.000 N 
ATOM     22  H   UNL     1       2.677   7.790  20.615  0.00  0.00    +0.000 HD
BRANCH  21  23
ATOM     23  C   UNL     1       3.259   6.317  19.226  0.00  0.00    +0.000 C 
BRANCH  23  24
ATOM     24  C   UNL     1       2.342   5.126  19.323  0.00  0.00    +0.000 A 
ATOM     25  C   UNL     1       1.873   4.682  20.568  0.00  0.00    +0.000 A 
ATOM     26  C   UNL     1       1.067   3.544  20.656  0.00  0.00    +0.000 A 
ATOM     27  C   UNL     1       0.721   2.842  19.503  0.00  0.00    +0.000 A 
ATOM     28  C   UNL     1       1.169   3.284  18.260  0.00  0.00    +0.000 A 
ATOM     29  C   UNL     1       1.980   4.417  18.170  0.00  0.00    +0.000 A 
ENDBRANCH  23  24
ENDBRANCH  21  23
ENDBRANCH  11  19
BRANCH  14  30
ATOM     30  C   UNL     1       1.099  13.426  18.278  0.00  0.00    +0.000 C 
BRANCH  30  31
ATOM     31  C   UNL     1       1.782  14.593  19.001  0.00  0.00    +0.000 C 
BRANCH  31  32
ATOM     32  C   UNL     1       2.585  15.521  18.093  0.00  0.00    +0.000 C 
BRANCH  32  33
ATOM     33  N   UNL     1       4.025  15.579  18.364  0.00  0.00    +0.000 NA
ATOM     34  C   UNL     1       4.407  15.942  19.740  0.00  0.00    +0.000 C 
ATOM     35  C   UNL     1       5.918  16.226  19.798  0.00  0.00    +0.000 C 
ATOM     36  O   UNL     1       6.686  15.104  19.331  0.00  0.00    +0.000 OA
ATOM     37  C   UNL     1       6.280  14.743  18.000  0.00  0.00    +0.000 C 
ATOM     38  C   UNL     1       4.782  14.383  17.962  0.00  0.00    +0.000 C 
ENDBRANCH  32  33
ENDBRANCH  31  32
ENDBRANCH  30  31
ENDBRANCH  14  30
TORSDOF 7
ENDMDL
