MODEL 1
REMARK VINA RESULT:      -8.6      0.000      0.000
REMARK  Name = 
REMARK  5 active torsions:
REMARK  status: ('A' for Active; 'I' for Inactive)
REMARK    1  A    between atoms: C_1  and  O_2
REMARK    2  A    between atoms: O_2  and  C_3
REMARK    3  A    between atoms: C_6  and  N_7
REMARK    4  A    between atoms: N_10  and  C_11
REMARK    5  A    between atoms: C_21  and  C_22
REMARK                            x       y       z     vdW  Elec       q    Type
REMARK                         _______ _______ _______ _____ _____    ______ ____
ROOT
ATOM      1  C   UNL     1       1.323   9.078  19.974  0.00  0.00    +0.000 A 
ATOM      2  C   UNL     1       1.729   9.406  18.656  0.00  0.00    +0.000 A 
ATOM      3  C   UNL     1       2.381   8.465  17.827  0.00  0.00    +0.000 A 
ATOM      4  C   UNL     1       2.665   7.229  18.377  0.00  0.00    +0.000 A 
ATOM      5  C   UNL     1       2.225   6.954  19.685  0.00  0.00    +0.000 A 
ATOM      6  C   UNL     1       1.476   7.793  20.458  0.00  0.00    +0.000 A 
ATOM      7  N   UNL     1       2.931   5.900  20.252  0.00  0.00    +0.000 N 
ATOM      8  C   UNL     1       4.010   5.621  19.444  0.00  0.00    +0.000 C 
ATOM      9  O   UNL     1       5.078   5.139  19.775  0.00  0.00    +0.000 OA
ATOM     10  C   UNL     1       3.601   6.120  18.072  0.00  0.00    +0.000 C 
ATOM     11  C   UNL     1       3.330   5.178  17.130  0.00  0.00    +0.000 C 
ATOM     12  H   UNL     1       2.936   5.678  21.232  0.00  0.00    +0.000 HD
ENDROOT
BRANCH   1  16
ATOM     13  N   UNL     1      -0.238  11.660  21.972  0.00  0.00    +0.000 N 
ATOM     14  C   UNL     1      -0.219  10.764  20.913  0.00  0.00    +0.000 C 
ATOM     15  O   UNL     1      -1.096  10.628  20.078  0.00  0.00    +0.000 OA
ATOM     16  N   UNL     1       0.922  10.007  20.945  0.00  0.00    +0.000 N 
ATOM     17  H   UNL     1       0.655  12.045  22.240  0.00  0.00    +0.000 HD
ATOM     18  H   UNL     1       1.366   9.951  21.850  0.00  0.00    +0.000 HD
BRANCH  13  22
ATOM     19  C   UNL     1      -3.742  13.735  23.029  0.00  0.00    +0.000 A 
ATOM     20  C   UNL     1      -3.462  12.496  23.603  0.00  0.00    +0.000 A 
ATOM     21  C   UNL     1      -2.286  11.826  23.289  0.00  0.00    +0.000 A 
ATOM     22  C   UNL     1      -1.395  12.360  22.360  0.00  0.00    +0.000 A 
ATOM     23  C   UNL     1      -1.642  13.626  21.823  0.00  0.00    +0.000 A 
ATOM     24  C   UNL     1      -2.825  14.307  22.146  0.00  0.00    +0.000 A 
BRANCH  19  26
ATOM     25  C   UNL     1      -5.995  13.314  23.600  0.00  0.00    +0.000 C 
ATOM     26  O   UNL     1      -4.954  14.252  23.383  0.00  0.00    +0.000 OA
ENDBRANCH  19  26
ENDBRANCH  13  22
ENDBRANCH   1  16
BRANCH  11  27
ATOM     27  C   UNL     1       2.963   3.825  17.665  0.00  0.00    +0.000 A 
ATOM     28  C   UNL     1       1.646   3.684  18.118  0.00  0.00    +0.000 A 
ATOM     29  C   UNL     1       1.395   2.780  19.136  0.00  0.00    +0.000 A 
ATOM     30  N   UNL     1       2.342   2.005  19.702  0.00  0.00    +0.000 NA
ATOM     31  C   UNL     1       3.585   2.089  19.177  0.00  0.00    +0.000 A 
ATOM     32  C   UNL     1       3.928   2.923  18.121  0.00  0.00    +0.000 A 
ENDBRANCH  11  27
TORSDOF 4
ENDMDL
MODEL 2
REMARK VINA RESULT:      -8.6      6.595      8.724
REMARK  Name = 
REMARK  5 active torsions:
REMARK  status: ('A' for Active; 'I' for Inactive)
REMARK    1  A    between atoms: C_1  and  O_2
REMARK    2  A    between atoms: O_2  and  C_3
REMARK    3  A    between atoms: C_6  and  N_7
REMARK    4  A    between atoms: N_10  and  C_11
REMARK    5  A    between atoms: C_21  and  C_22
REMARK                            x       y       z     vdW  Elec       q    Type
REMARK                         _______ _______ _______ _____ _____    ______ ____
ROOT
ATOM      1  C   UNL     1       7.033   6.519  17.958  0.00  0.00    +0.000 A 
ATOM      2  C   UNL     1       7.045   5.907  16.680  0.00  0.00    +0.000 A 
ATOM      3  C   UNL     1       6.127   4.888  16.338  0.00  0.00    +0.000 A 
ATOM      4  C   UNL     1       5.256   4.466  17.325  0.00  0.00    +0.000 A 
ATOM      5  C   UNL     1       5.279   5.120  18.572  0.00  0.00    +0.000 A 
ATOM      6  C   UNL     1       6.060   6.195  18.883  0.00  0.00    +0.000 A 
ATOM      7  N   UNL     1       4.701   4.343  19.569  0.00  0.00    +0.000 N 
ATOM      8  C   UNL     1       4.513   3.074  19.070  0.00  0.00    +0.000 C 
ATOM      9  O   UNL     1       4.486   2.030  19.695  0.00  0.00    +0.000 OA
ATOM     10  C   UNL     1       4.427   3.261  17.568  0.00  0.00    +0.000 C 
ATOM     11  C   UNL     1       3.206   3.090  16.995  0.00  0.00    +0.000 C 
ATOM     12  H   UNL     1       4.801   4.512  20.554  0.00  0.00    +0.000 HD
ENDROOT
BRANCH   1  16
ATOM     13  N   UNL     1       9.384   9.132  18.818  0.00  0.00    +0.000 N 
ATOM     14  C   UNL     1       8.195   8.676  18.267  0.00  0.00    +0.000 C 
ATOM     15  O   UNL     1       7.360   9.364  17.705  0.00  0.00    +0.000 OA
ATOM     16  N   UNL     1       8.057   7.329  18.469  0.00  0.00    +0.000 N 
ATOM     17  H   UNL     1      10.166   8.498  18.765  0.00  0.00    +0.000 HD
ATOM     18  H   UNL     1       8.599   6.961  19.237  0.00  0.00    +0.000 HD
BRANCH  13  22
ATOM     19  C   UNL     1      10.300  13.186  19.471  0.00  0.00    +0.000 A 
ATOM     20  C   UNL     1      10.433  12.634  18.198  0.00  0.00    +0.000 A 
ATOM     21  C   UNL     1      10.092  11.307  17.968  0.00  0.00    +0.000 A 
ATOM     22  C   UNL     1       9.660  10.497  19.016  0.00  0.00    +0.000 A 
ATOM     23  C   UNL     1       9.471  11.057  20.283  0.00  0.00    +0.000 A 
ATOM     24  C   UNL     1       9.807  12.399  20.513  0.00  0.00    +0.000 A 
BRANCH  19  26
ATOM     25  C   UNL     1      11.293  15.038  18.392  0.00  0.00    +0.000 C 
ATOM     26  O   UNL     1      10.723  14.480  19.565  0.00  0.00    +0.000 OA
ENDBRANCH  19  26
ENDBRANCH  13  22
ENDBRANCH   1  16
BRANCH  11  27
ATOM     27  C   UNL     1       2.036   3.256  17.920  0.00  0.00    +0.000 A 
ATOM     28  C   UNL     1       1.771   4.563  18.341  0.00  0.00    +0.000 A 
ATOM     29  C   UNL     1       1.190   4.748  19.585  0.00  0.00    +0.000 A 
ATOM     30  N   UNL     1       0.840   3.739  20.406  0.00  0.00    +0.000 NA
ATOM     31  C   UNL     1       1.015   2.485  19.933  0.00  0.00    +0.000 A 
ATOM     32  C   UNL     1       1.538   2.193  18.680  0.00  0.00    +0.000 A 
ENDBRANCH  11  27
TORSDOF 4
ENDMDL
MODEL 3
REMARK VINA RESULT:      -8.4      0.589      1.031
REMARK  Name = 
REMARK  5 active torsions:
REMARK  status: ('A' for Active; 'I' for Inactive)
REMARK    1  A    between atoms: C_1  and  O_2
REMARK    2  A    between atoms: O_2  and  C_3
REMARK    3  A    between atoms: C_6  and  N_7
REMARK    4  A    between atoms: N_10  and  C_11
REMARK    5  A    between atoms: C_21  and  C_22
REMARK                            x       y       z     vdW  Elec       q    Type
REMARK                         _______ _______ _______ _____ _____    ______ ____
ROOT
ATOM      1  C   UNL     1       1.149   8.826  20.394  0.00  0.00    +0.000 A 
ATOM      2  C   UNL     1       1.479   9.273  19.091  0.00  0.00    +0.000 A 
ATOM      3  C   UNL     1       2.133   8.432  18.163  0.00  0.00    +0.000 A 
ATOM      4  C   UNL     1       2.498   7.173  18.601  0.00  0.00    +0.000 A 
ATOM      5  C   UNL     1       2.132   6.776  19.901  0.00  0.00    +0.000 A 
ATOM      6  C   UNL     1       1.383   7.517  20.769  0.00  0.00    +0.000 A 
ATOM      7  N   UNL     1       2.911   5.718  20.352  0.00  0.00    +0.000 N 
ATOM      8  C   UNL     1       3.963   5.554  19.479  0.00  0.00    +0.000 C 
ATOM      9  O   UNL     1       5.065   5.101  19.725  0.00  0.00    +0.000 OA
ATOM     10  C   UNL     1       3.468   6.136  18.170  0.00  0.00    +0.000 C 
ATOM     11  C   UNL     1       3.196   5.257  17.169  0.00  0.00    +0.000 C 
ATOM     12  H   UNL     1       2.972   5.422  21.311  0.00  0.00    +0.000 HD
ENDROOT
BRANCH   1  16
ATOM     13  N   UNL     1      -0.247  11.345  22.585  0.00  0.00    +0.000 N 
ATOM     14  C   UNL     1      -0.194  10.644  21.389  0.00  0.00    +0.000 C 
ATOM     15  O   UNL     1      -0.903  10.838  20.417  0.00  0.00    +0.000 OA
ATOM     16  N   UNL     1       0.753   9.658  21.452  0.00  0.00    +0.000 N 
ATOM     17  H   UNL     1       0.634  11.476  23.059  0.00  0.00    +0.000 HD
ATOM     18  H   UNL     1       0.994   9.364  22.387  0.00  0.00    +0.000 HD
BRANCH  13  22
ATOM     19  C   UNL     1      -3.387  13.921  23.680  0.00  0.00    +0.000 A 
ATOM     20  C   UNL     1      -2.201  14.443  23.169  0.00  0.00    +0.000 A 
ATOM     21  C   UNL     1      -1.176  13.594  22.767  0.00  0.00    +0.000 A 
ATOM     22  C   UNL     1      -1.302  12.215  22.915  0.00  0.00    +0.000 A 
ATOM     23  C   UNL     1      -2.510  11.682  23.375  0.00  0.00    +0.000 A 
ATOM     24  C   UNL     1      -3.547  12.538  23.773  0.00  0.00    +0.000 A 
BRANCH  19  26
ATOM     25  C   UNL     1      -5.570  14.804  23.495  0.00  0.00    +0.000 C 
ATOM     26  O   UNL     1      -4.283  14.868  24.086  0.00  0.00    +0.000 OA
ENDBRANCH  19  26
ENDBRANCH  13  22
ENDBRANCH   1  16
BRANCH  11  27
ATOM     27  C   UNL     1       2.915   3.851  17.611  0.00  0.00    +0.000 A 
ATOM     28  C   UNL     1       1.632   3.614  18.115  0.00  0.00    +0.000 A 
ATOM     29  C   UNL     1       1.473   2.623  19.069  0.00  0.00    +0.000 A 
ATOM     30  N   UNL     1       2.481   1.851  19.524  0.00  0.00    +0.000 NA
ATOM     31  C   UNL     1       3.690   2.034  18.947  0.00  0.00    +0.000 A 
ATOM     32  C   UNL     1       3.941   2.963  17.946  0.00  0.00    +0.000 A 
ENDBRANCH  11  27
TORSDOF 4
ENDMDL
MODEL 4
REMARK VINA RESULT:      -8.3      0.874      1.562
REMARK  Name = 
REMARK  5 active torsions:
REMARK  status: ('A' for Active; 'I' for Inactive)
REMARK    1  A    between atoms: C_1  and  O_2
REMARK    2  A    between atoms: O_2  and  C_3
REMARK    3  A    between atoms: C_6  and  N_7
REMARK    4  A    between atoms: N_10  and  C_11
REMARK    5  A    between atoms: C_21  and  C_22
REMARK                            x       y       z     vdW  Elec       q    Type
REMARK                         _______ _______ _______ _____ _____    ______ ____
ROOT
ATOM      1  C   UNL     1       1.206   9.558  19.790  0.00  0.00    +0.000 A 
ATOM      2  C   UNL     1       1.444   9.673  18.398  0.00  0.00    +0.000 A 
ATOM      3  C   UNL     1       2.005   8.611  17.653  0.00  0.00    +0.000 A 
ATOM      4  C   UNL     1       2.372   7.476  18.351  0.00  0.00    +0.000 A 
ATOM      5  C   UNL     1       2.098   7.412  19.730  0.00  0.00    +0.000 A 
ATOM      6  C   UNL     1       1.436   8.366  20.447  0.00  0.00    +0.000 A 
ATOM      7  N   UNL     1       2.884   6.457  20.365  0.00  0.00    +0.000 N 
ATOM      8  C   UNL     1       3.860   6.049  19.485  0.00  0.00    +0.000 C 
ATOM      9  O   UNL     1       4.967   5.621  19.755  0.00  0.00    +0.000 OA
ATOM     10  C   UNL     1       3.280   6.328  18.112  0.00  0.00    +0.000 C 
ATOM     11  C   UNL     1       2.911   5.250  17.370  0.00  0.00    +0.000 C 
ATOM     12  H   UNL     1       3.011   6.392  21.360  0.00  0.00    +0.000 HD
ENDROOT
BRANCH   1  16
ATOM     13  N   UNL     1      -0.197  12.357  21.606  0.00  0.00    +0.000 N 
ATOM     14  C   UNL     1      -0.296  11.266  20.754  0.00  0.00    +0.000 C 
ATOM     15  O   UNL     1      -1.311  10.888  20.196  0.00  0.00    +0.000 OA
ATOM     16  N   UNL     1       0.912  10.631  20.645  0.00  0.00    +0.000 N 
ATOM     17  H   UNL     1       0.676  12.863  21.576  0.00  0.00    +0.000 HD
ATOM     18  H   UNL     1       1.548  10.801  21.410  0.00  0.00    +0.000 HD
BRANCH  13  22
ATOM     19  C   UNL     1      -3.502  14.359  23.269  0.00  0.00    +0.000 A 
ATOM     20  C   UNL     1      -2.771  14.950  22.240  0.00  0.00    +0.000 A 
ATOM     21  C   UNL     1      -1.704  14.275  21.659  0.00  0.00    +0.000 A 
ATOM     22  C   UNL     1      -1.321  13.022  22.130  0.00  0.00    +0.000 A 
ATOM     23  C   UNL     1      -2.082  12.400  23.124  0.00  0.00    +0.000 A 
ATOM     24  C   UNL     1      -3.164  13.077  23.705  0.00  0.00    +0.000 A 
BRANCH  19  26
ATOM     25  C   UNL     1      -4.059  16.184  24.662  0.00  0.00    +0.000 C 
ATOM     26  O   UNL     1      -4.484  15.155  23.783  0.00  0.00    +0.000 OA
ENDBRANCH  19  26
ENDBRANCH  13  22
ENDBRANCH   1  16
BRANCH  11  27
ATOM     27  C   UNL     1       2.631   4.000  18.151  0.00  0.00    +0.000 A 
ATOM     28  C   UNL     1       3.532   2.946  17.962  0.00  0.00    +0.000 A 
ATOM     29  C   UNL     1       3.065   1.650  18.102  0.00  0.00    +0.000 A 
ATOM     30  N   UNL     1       1.797   1.342  18.437  0.00  0.00    +0.000 NA
ATOM     31  C   UNL     1       0.975   2.379  18.712  0.00  0.00    +0.000 A 
ATOM     32  C   UNL     1       1.359   3.712  18.654  0.00  0.00    +0.000 A 
ENDBRANCH  11  27
TORSDOF 4
ENDMDL
MODEL 5
REMARK VINA RESULT:      -8.3      0.583      1.038
REMARK  Name = 
REMARK  5 active torsions:
REMARK  status: ('A' for Active; 'I' for Inactive)
REMARK    1  A    between atoms: C_1  and  O_2
REMARK    2  A    between atoms: O_2  and  C_3
REMARK    3  A    between atoms: C_6  and  N_7
REMARK    4  A    between atoms: N_10  and  C_11
REMARK    5  A    between atoms: C_21  and  C_22
REMARK                            x       y       z     vdW  Elec       q    Type
REMARK                         _______ _______ _______ _____ _____    ______ ____
ROOT
ATOM      1  C   UNL     1       1.264   9.457  19.607  0.00  0.00    +0.000 A 
ATOM      2  C   UNL     1       1.579   9.563  18.230  0.00  0.00    +0.000 A 
ATOM      3  C   UNL     1       2.198   8.504  17.528  0.00  0.00    +0.000 A 
ATOM      4  C   UNL     1       2.544   7.382  18.257  0.00  0.00    +0.000 A 
ATOM      5  C   UNL     1       2.193   7.325  19.619  0.00  0.00    +0.000 A 
ATOM      6  C   UNL     1       1.477   8.275  20.288  0.00  0.00    +0.000 A 
ATOM      7  N   UNL     1       2.958   6.390  20.306  0.00  0.00    +0.000 N 
ATOM      8  C   UNL     1       3.989   5.991  19.487  0.00  0.00    +0.000 C 
ATOM      9  O   UNL     1       5.085   5.583  19.822  0.00  0.00    +0.000 OA
ATOM     10  C   UNL     1       3.482   6.247  18.081  0.00  0.00    +0.000 C 
ATOM     11  C   UNL     1       3.173   5.157  17.330  0.00  0.00    +0.000 C 
ATOM     12  H   UNL     1       3.030   6.336  21.308  0.00  0.00    +0.000 HD
ENDROOT
BRANCH   1  16
ATOM     13  N   UNL     1      -0.318  12.193  21.371  0.00  0.00    +0.000 N 
ATOM     14  C   UNL     1      -0.348  11.067  20.561  0.00  0.00    +0.000 C 
ATOM     15  O   UNL     1      -1.344  10.583  20.050  0.00  0.00    +0.000 OA
ATOM     16  N   UNL     1       0.906  10.533  20.434  0.00  0.00    +0.000 N 
ATOM     17  H   UNL     1       0.507  12.769  21.294  0.00  0.00    +0.000 HD
ATOM     18  H   UNL     1       1.548  10.784  21.170  0.00  0.00    +0.000 HD
BRANCH  13  22
ATOM     19  C   UNL     1      -3.844  13.916  22.886  0.00  0.00    +0.000 A 
ATOM     20  C   UNL     1      -3.317  12.768  23.474  0.00  0.00    +0.000 A 
ATOM     21  C   UNL     1      -2.131  12.219  23.004  0.00  0.00    +0.000 A 
ATOM     22  C   UNL     1      -1.478  12.779  21.909  0.00  0.00    +0.000 A 
ATOM     23  C   UNL     1      -1.970  13.962  21.349  0.00  0.00    +0.000 A 
ATOM     24  C   UNL     1      -3.164  14.521  21.828  0.00  0.00    +0.000 A 
BRANCH  19  26
ATOM     25  C   UNL     1      -5.907  13.277  23.843  0.00  0.00    +0.000 C 
ATOM     26  O   UNL     1      -5.040  14.312  23.410  0.00  0.00    +0.000 OA
ENDBRANCH  19  26
ENDBRANCH  13  22
ENDBRANCH   1  16
BRANCH  11  27
ATOM     27  C   UNL     1       2.870   3.909  18.107  0.00  0.00    +0.000 A 
ATOM     28  C   UNL     1       3.783   2.859  17.957  0.00  0.00    +0.000 A 
ATOM     29  C   UNL     1       3.318   1.561  18.086  0.00  0.00    +0.000 A 
ATOM     30  N   UNL     1       2.039   1.248  18.375  0.00  0.00    +0.000 NA
ATOM     31  C   UNL     1       1.202   2.282  18.613  0.00  0.00    +0.000 A 
ATOM     32  C   UNL     1       1.581   3.617  18.562  0.00  0.00    +0.000 A 
ENDBRANCH  11  27
TORSDOF 4
ENDMDL
MODEL 6
REMARK VINA RESULT:      -8.2      2.197     10.545
REMARK  Name = 
REMARK  5 active torsions:
REMARK  status: ('A' for Active; 'I' for Inactive)
REMARK    1  A    between atoms: C_1  and  O_2
REMARK    2  A    between atoms: O_2  and  C_3
REMARK    3  A    between atoms: C_6  and  N_7
REMARK    4  A    between atoms: N_10  and  C_11
REMARK    5  A    between atoms: C_21  and  C_22
REMARK                            x       y       z     vdW  Elec       q    Type
REMARK                         _______ _______ _______ _____ _____    ______ ____
ROOT
ATOM      1  C   UNL     1       0.327   9.529  20.961  0.00  0.00    +0.000 A 
ATOM      2  C   UNL     1       0.198   9.255  22.345  0.00  0.00    +0.000 A 
ATOM      3  C   UNL     1      -0.562  10.088  23.198  0.00  0.00    +0.000 A 
ATOM      4  C   UNL     1      -1.123  11.220  22.637  0.00  0.00    +0.000 A 
ATOM      5  C   UNL     1      -0.975  11.434  21.253  0.00  0.00    +0.000 A 
ATOM      6  C   UNL     1      -0.362  10.577  20.385  0.00  0.00    +0.000 A 
ATOM      7  N   UNL     1      -1.186  12.765  20.916  0.00  0.00    +0.000 N 
ATOM      8  C   UNL     1      -1.229  13.502  22.077  0.00  0.00    +0.000 C 
ATOM      9  O   UNL     1      -0.934  14.675  22.221  0.00  0.00    +0.000 OA
ATOM     10  C   UNL     1      -1.646  12.511  23.145  0.00  0.00    +0.000 C 
ATOM     11  C   UNL     1      -2.903  12.640  23.648  0.00  0.00    +0.000 C 
ATOM     12  H   UNL     1      -0.925  13.180  20.038  0.00  0.00    +0.000 HD
ENDROOT
BRANCH   1  16
ATOM     13  N   UNL     1       2.676   7.388  19.230  0.00  0.00    +0.000 N 
ATOM     14  C   UNL     1       1.648   7.613  20.135  0.00  0.00    +0.000 C 
ATOM     15  O   UNL     1       1.124   6.769  20.842  0.00  0.00    +0.000 OA
ATOM     16  N   UNL     1       1.263   8.926  20.107  0.00  0.00    +0.000 N 
ATOM     17  H   UNL     1       3.338   8.140  19.119  0.00  0.00    +0.000 HD
ATOM     18  H   UNL     1       1.496   9.416  19.256  0.00  0.00    +0.000 HD
BRANCH  13  22
ATOM     19  C   UNL     1       3.850   3.495  18.150  0.00  0.00    +0.000 A 
ATOM     20  C   UNL     1       2.711   4.065  17.584  0.00  0.00    +0.000 A 
ATOM     21  C   UNL     1       2.342   5.365  17.906  0.00  0.00    +0.000 A 
ATOM     22  C   UNL     1       3.077   6.099  18.834  0.00  0.00    +0.000 A 
ATOM     23  C   UNL     1       4.251   5.555  19.363  0.00  0.00    +0.000 A 
ATOM     24  C   UNL     1       4.628   4.245  19.033  0.00  0.00    +0.000 A 
BRANCH  19  26
ATOM     25  C   UNL     1       3.590   1.211  18.694  0.00  0.00    +0.000 C 
ATOM     26  O   UNL     1       4.062   2.196  17.789  0.00  0.00    +0.000 OA
ENDBRANCH  19  26
ENDBRANCH  13  22
ENDBRANCH   1  16
BRANCH  11  27
ATOM     27  C   UNL     1      -3.874  13.365  22.763  0.00  0.00    +0.000 A 
ATOM     28  C   UNL     1      -4.354  14.585  23.253  0.00  0.00    +0.000 A 
ATOM     29  C   UNL     1      -5.623  14.991  22.876  0.00  0.00    +0.000 A 
ATOM     30  N   UNL     1      -6.417  14.291  22.042  0.00  0.00    +0.000 NA
ATOM     31  C   UNL     1      -5.890  13.167  21.505  0.00  0.00    +0.000 A 
ATOM     32  C   UNL     1      -4.610  12.704  21.776  0.00  0.00    +0.000 A 
ENDBRANCH  11  27
TORSDOF 4
ENDMDL
MODEL 7
REMARK VINA RESULT:      -8.0      2.413     10.594
REMARK  Name = 
REMARK  5 active torsions:
REMARK  status: ('A' for Active; 'I' for Inactive)
REMARK    1  A    between atoms: C_1  and  O_2
REMARK    2  A    between atoms: O_2  and  C_3
REMARK    3  A    between atoms: C_6  and  N_7
REMARK    4  A    between atoms: N_10  and  C_11
REMARK    5  A    between atoms: C_21  and  C_22
REMARK                            x       y       z     vdW  Elec       q    Type
REMARK                         _______ _______ _______ _____ _____    ______ ____
ROOT
ATOM      1  C   UNL     1       0.578   9.520  19.990  0.00  0.00    +0.000 A 
ATOM      2  C   UNL     1       0.400   8.825  21.211  0.00  0.00    +0.000 A 
ATOM      3  C   UNL     1      -0.309   9.396  22.292  0.00  0.00    +0.000 A 
ATOM      4  C   UNL     1      -0.767  10.690  22.133  0.00  0.00    +0.000 A 
ATOM      5  C   UNL     1      -0.575  11.327  20.892  0.00  0.00    +0.000 A 
ATOM      6  C   UNL     1      -0.015  10.751  19.789  0.00  0.00    +0.000 A 
ATOM      7  N   UNL     1      -0.673  12.709  21.005  0.00  0.00    +0.000 N 
ATOM      8  C   UNL     1      -0.681  13.031  22.343  0.00  0.00    +0.000 C 
ATOM      9  O   UNL     1      -0.297  14.066  22.857  0.00  0.00    +0.000 OA
ATOM     10  C   UNL     1      -1.196  11.785  23.036  0.00  0.00    +0.000 C 
ATOM     11  C   UNL     1      -2.449  11.846  23.561  0.00  0.00    +0.000 C 
ATOM     12  H   UNL     1      -0.363  13.362  20.308  0.00  0.00    +0.000 HD
ENDROOT
BRANCH   1  16
ATOM     13  N   UNL     1       3.089   8.014  17.861  0.00  0.00    +0.000 N 
ATOM     14  C   UNL     1       2.214   7.997  18.939  0.00  0.00    +0.000 C 
ATOM     15  O   UNL     1       2.077   7.081  19.731  0.00  0.00    +0.000 OA
ATOM     16  N   UNL     1       1.480   9.152  18.980  0.00  0.00    +0.000 N 
ATOM     17  H   UNL     1       3.486   8.912  17.631  0.00  0.00    +0.000 HD
ATOM     18  H   UNL     1       1.415   9.642  18.100  0.00  0.00    +0.000 HD
BRANCH  13  22
ATOM     19  C   UNL     1       4.997   4.553  16.423  0.00  0.00    +0.000 A 
ATOM     20  C   UNL     1       5.458   5.813  16.048  0.00  0.00    +0.000 A 
ATOM     21  C   UNL     1       4.857   6.960  16.553  0.00  0.00    +0.000 A 
ATOM     22  C   UNL     1       3.757   6.865  17.401  0.00  0.00    +0.000 A 
ATOM     23  C   UNL     1       3.324   5.606  17.825  0.00  0.00    +0.000 A 
ATOM     24  C   UNL     1       3.935   4.448  17.322  0.00  0.00    +0.000 A 
BRANCH  19  26
ATOM     25  C   UNL     1       6.427   3.854  14.677  0.00  0.00    +0.000 C 
ATOM     26  O   UNL     1       5.641   3.518  15.809  0.00  0.00    +0.000 OA
ENDBRANCH  19  26
ENDBRANCH  13  22
ENDBRANCH   1  16
BRANCH  11  27
ATOM     27  C   UNL     1      -3.342  12.895  22.966  0.00  0.00    +0.000 A 
ATOM     28  C   UNL     1      -3.702  13.945  23.816  0.00  0.00    +0.000 A 
ATOM     29  C   UNL     1      -4.925  14.564  23.615  0.00  0.00    +0.000 A 
ATOM     30  N   UNL     1      -5.780  14.231  22.629  0.00  0.00    +0.000 NA
ATOM     31  C   UNL     1      -5.363  13.282  21.761  0.00  0.00    +0.000 A 
ATOM     32  C   UNL     1      -4.135  12.640  21.843  0.00  0.00    +0.000 A 
ENDBRANCH  11  27
TORSDOF 4
ENDMDL
MODEL 8
REMARK VINA RESULT:      -7.8      6.507      8.189
REMARK  Name = 
REMARK  5 active torsions:
REMARK  status: ('A' for Active; 'I' for Inactive)
REMARK    1  A    between atoms: C_1  and  O_2
REMARK    2  A    between atoms: O_2  and  C_3
REMARK    3  A    between atoms: C_6  and  N_7
REMARK    4  A    between atoms: N_10  and  C_11
REMARK    5  A    between atoms: C_21  and  C_22
REMARK                            x       y       z     vdW  Elec       q    Type
REMARK                         _______ _______ _______ _____ _____    ______ ____
ROOT
ATOM      1  C   UNL     1       6.716   6.402  17.134  0.00  0.00    +0.000 A 
ATOM      2  C   UNL     1       6.542   5.640  15.952  0.00  0.00    +0.000 A 
ATOM      3  C   UNL     1       5.631   4.562  15.892  0.00  0.00    +0.000 A 
ATOM      4  C   UNL     1       4.960   4.238  17.057  0.00  0.00    +0.000 A 
ATOM      5  C   UNL     1       5.160   5.039  18.198  0.00  0.00    +0.000 A 
ATOM      6  C   UNL     1       5.929   6.165  18.244  0.00  0.00    +0.000 A 
ATOM      7  N   UNL     1       4.796   4.372  19.361  0.00  0.00    +0.000 N 
ATOM      8  C   UNL     1       4.589   3.048  19.052  0.00  0.00    +0.000 C 
ATOM      9  O   UNL     1       4.718   2.086  19.787  0.00  0.00    +0.000 OA
ATOM     10  C   UNL     1       4.243   3.048  17.576  0.00  0.00    +0.000 C 
ATOM     11  C   UNL     1       2.953   2.775  17.245  0.00  0.00    +0.000 C 
ATOM     12  H   UNL     1       5.052   4.663  20.289  0.00  0.00    +0.000 HD
ENDROOT
BRANCH   1  16
ATOM     13  N   UNL     1       8.890   9.229  17.746  0.00  0.00    +0.000 N 
ATOM     14  C   UNL     1       7.647   8.614  17.716  0.00  0.00    +0.000 C 
ATOM     15  O   UNL     1       6.583   9.143  17.991  0.00  0.00    +0.000 OA
ATOM     16  N   UNL     1       7.771   7.297  17.364  0.00  0.00    +0.000 N 
ATOM     17  H   UNL     1       9.553   8.918  17.051  0.00  0.00    +0.000 HD
ATOM     18  H   UNL     1       8.686   6.902  17.525  0.00  0.00    +0.000 HD
BRANCH  13  22
ATOM     19  C   UNL     1       9.428  13.002  19.527  0.00  0.00    +0.000 A 
ATOM     20  C   UNL     1       9.705  11.843  20.247  0.00  0.00    +0.000 A 
ATOM     21  C   UNL     1       9.569  10.595  19.650  0.00  0.00    +0.000 A 
ATOM     22  C   UNL     1       9.107  10.485  18.341  0.00  0.00    +0.000 A 
ATOM     23  C   UNL     1       8.880  11.645  17.594  0.00  0.00    +0.000 A 
ATOM     24  C   UNL     1       9.025  12.905  18.194  0.00  0.00    +0.000 A 
BRANCH  19  26
ATOM     25  C   UNL     1       8.525  14.405  21.200  0.00  0.00    +0.000 C 
ATOM     26  O   UNL     1       9.550  14.152  20.252  0.00  0.00    +0.000 OA
ENDBRANCH  19  26
ENDBRANCH  13  22
ENDBRANCH   1  16
BRANCH  11  27
ATOM     27  C   UNL     1       1.949   3.018  18.333  0.00  0.00    +0.000 A 
ATOM     28  C   UNL     1       1.654   4.359  18.604  0.00  0.00    +0.000 A 
ATOM     29  C   UNL     1       1.281   4.703  19.892  0.00  0.00    +0.000 A 
ATOM     30  N   UNL     1       1.158   3.816  20.900  0.00  0.00    +0.000 NA
ATOM     31  C   UNL     1       1.352   2.515  20.586  0.00  0.00    +0.000 A 
ATOM     32  C   UNL     1       1.675   2.062  19.315  0.00  0.00    +0.000 A 
ENDBRANCH  11  27
TORSDOF 4
ENDMDL
MODEL 9
REMARK VINA RESULT:      -7.8      3.427     10.824
REMARK  Name = 
REMARK  5 active torsions:
REMARK  status: ('A' for Active; 'I' for Inactive)
REMARK    1  A    between atoms: C_1  and  O_2
REMARK    2  A    between atoms: O_2  and  C_3
REMARK    3  A    between atoms: C_6  and  N_7
REMARK    4  A    between atoms: N_10  and  C_11
REMARK    5  A    between atoms: C_21  and  C_22
REMARK                            x       y       z     vdW  Elec       q    Type
REMARK                         _______ _______ _______ _____ _____    ______ ____
ROOT
ATOM      1  C   UNL     1       0.893  10.046  19.143  0.00  0.00    +0.000 A 
ATOM      2  C   UNL     1      -0.477  10.292  18.879  0.00  0.00    +0.000 A 
ATOM      3  C   UNL     1      -1.055  11.564  19.092  0.00  0.00    +0.000 A 
ATOM      4  C   UNL     1      -0.243  12.544  19.632  0.00  0.00    +0.000 A 
ATOM      5  C   UNL     1       1.114  12.247  19.861  0.00  0.00    +0.000 A 
ATOM      6  C   UNL     1       1.728  11.072  19.538  0.00  0.00    +0.000 A 
ATOM      7  N   UNL     1       1.682  13.124  20.777  0.00  0.00    +0.000 N 
ATOM      8  C   UNL     1       0.670  13.852  21.360  0.00  0.00    +0.000 C 
ATOM      9  O   UNL     1       0.661  14.350  22.471  0.00  0.00    +0.000 OA
ATOM     10  C   UNL     1      -0.455  13.827  20.345  0.00  0.00    +0.000 C 
ATOM     11  C   UNL     1      -0.720  14.988  19.689  0.00  0.00    +0.000 C 
ATOM     12  H   UNL     1       2.558  12.971  21.246  0.00  0.00    +0.000 HD
ENDROOT
BRANCH   1  16
ATOM     13  N   UNL     1       2.511   6.855  18.598  0.00  0.00    +0.000 N 
ATOM     14  C   UNL     1       2.175   8.147  18.220  0.00  0.00    +0.000 C 
ATOM     15  O   UNL     1       2.473   8.682  17.166  0.00  0.00    +0.000 OA
ATOM     16  N   UNL     1       1.480   8.774  19.219  0.00  0.00    +0.000 N 
ATOM     17  H   UNL     1       1.832   6.371  19.166  0.00  0.00    +0.000 HD
ATOM     18  H   UNL     1       1.619   8.383  20.139  0.00  0.00    +0.000 HD
BRANCH  13  22
ATOM     19  C   UNL     1       5.273   4.531  16.437  0.00  0.00    +0.000 A 
ATOM     20  C   UNL     1       5.567   5.857  16.749  0.00  0.00    +0.000 A 
ATOM     21  C   UNL     1       4.676   6.617  17.498  0.00  0.00    +0.000 A 
ATOM     22  C   UNL     1       3.458   6.078  17.905  0.00  0.00    +0.000 A 
ATOM     23  C   UNL     1       3.181   4.733  17.644  0.00  0.00    +0.000 A 
ATOM     24  C   UNL     1       4.083   3.964  16.895  0.00  0.00    +0.000 A 
BRANCH  19  26
ATOM     25  C   UNL     1       5.998   4.008  14.251  0.00  0.00    +0.000 C 
ATOM     26  O   UNL     1       6.208   3.923  15.650  0.00  0.00    +0.000 OA
ENDBRANCH  19  26
ENDBRANCH  13  22
ENDBRANCH   1  16
BRANCH  11  27
ATOM     27  C   UNL     1       0.412  15.972  19.649  0.00  0.00    +0.000 A 
ATOM     28  C   UNL     1       0.200  17.175  20.333  0.00  0.00    +0.000 A 
ATOM     29  C   UNL     1       0.837  18.314  19.870  0.00  0.00    +0.000 A 
ATOM     30  N   UNL     1       1.672  18.329  18.812  0.00  0.00    +0.000 NA
ATOM     31  C   UNL     1       1.936  17.137  18.233  0.00  0.00    +0.000 A 
ATOM     32  C   UNL     1       1.392  15.931  18.654  0.00  0.00    +0.000 A 
ENDBRANCH  11  27
TORSDOF 4
ENDMDL
