MODEL 1
REMARK VINA RESULT:      -8.2      0.000      0.000
REMARK  Name = 
REMARK  4 active torsions:
REMARK  status: ('A' for Active; 'I' for Inactive)
REMARK    1  A    between atoms: C_1  and  C_2
REMARK    2  A    between atoms: C_2  and  C_3
REMARK    3  A    between atoms: C_2  and  C_4
REMARK    4  A    between atoms: C_7  and  N_8
REMARK                            x       y       z     vdW  Elec       q    Type
REMARK                         _______ _______ _______ _____ _____    ______ ____
ROOT
ATOM      1  N   UNL     1       2.217   7.687  18.835  0.00  0.00    +0.000 N 
ATOM      2  C   UNL     1       1.758   8.908  18.382  0.00  0.00    +0.000 C 
ATOM      3  O   UNL     1       2.050   9.404  17.300  0.00  0.00    +0.000 OA
ATOM      4  N   UNL     1       0.847   9.531  19.227  0.00  0.00    +0.000 N 
ATOM      5  C   UNL     1       0.209  10.746  18.689  0.00  0.00    +0.000 C 
ATOM      6  C   UNL     1      -1.140  11.041  19.364  0.00  0.00    +0.000 C 
ATOM      7  N   UNL     1      -0.899  11.100  20.805  0.00  0.00    +0.000 N 
ATOM      8  C   UNL     1      -1.573  12.030  21.563  0.00  0.00    +0.000 A 
ATOM      9  C   UNL     1      -0.998  12.497  22.746  0.00  0.00    +0.000 A 
ATOM     10  C   UNL     1      -1.613  13.514  23.472  0.00  0.00    +0.000 A 
ATOM     11  C   UNL     1      -2.804  14.042  23.008  0.00  0.00    +0.000 A 
ATOM     12 CL   UNL     1      -3.595  15.301  23.862  0.00  0.00    +0.000 Cl
ATOM     13  C   UNL     1      -3.322  13.532  21.833  0.00  0.00    +0.000 A 
ATOM     14  N   UNL     1      -2.729  12.555  21.102  0.00  0.00    +0.000 NA
ATOM     15  C   UNL     1      -0.376   9.865  21.391  0.00  0.00    +0.000 C 
ATOM     16  C   UNL     1       0.955   9.503  20.699  0.00  0.00    +0.000 C 
ATOM     17  H   UNL     1       1.645   7.245  19.536  0.00  0.00    +0.000 HD
ENDROOT
BRANCH   1  21
ATOM     18  C   UNL     1       4.775   5.070  16.681  0.00  0.00    +0.000 A 
ATOM     19  C   UNL     1       5.045   6.441  16.721  0.00  0.00    +0.000 A 
ATOM     20  C   UNL     1       4.225   7.313  17.443  0.00  0.00    +0.000 A 
ATOM     21  C   UNL     1       3.105   6.840  18.133  0.00  0.00    +0.000 A 
ATOM     22  C   UNL     1       2.844   5.470  18.120  0.00  0.00    +0.000 A 
ATOM     23  C   UNL     1       3.663   4.595  17.395  0.00  0.00    +0.000 A 
BRANCH  18  25
ATOM     24  C   UNL     1       5.480   4.355  14.365  0.00  0.00    +0.000 C 
ATOM     25  C   UNL     1       5.664   4.147  15.871  0.00  0.00    +0.000 C 
ATOM     26  C   UNL     1       7.136   4.306  16.263  0.00  0.00    +0.000 C 
ENDBRANCH  18  25
ENDBRANCH   1  21
TORSDOF 2
ENDMDL
MODEL 2
REMARK VINA RESULT:      -7.4      1.214      1.985
REMARK  Name = 
REMARK  4 active torsions:
REMARK  status: ('A' for Active; 'I' for Inactive)
REMARK    1  A    between atoms: C_1  and  C_2
REMARK    2  A    between atoms: C_2  and  C_3
REMARK    3  A    between atoms: C_2  and  C_4
REMARK    4  A    between atoms: C_7  and  N_8
REMARK                            x       y       z     vdW  Elec       q    Type
REMARK                         _______ _______ _______ _____ _____    ______ ____
ROOT
ATOM      1  N   UNL     1       2.374   8.119  18.529  0.00  0.00    +0.000 N 
ATOM      2  C   UNL     1       1.724   7.974  19.739  0.00  0.00    +0.000 C 
ATOM      3  O   UNL     1       1.767   6.967  20.437  0.00  0.00    +0.000 OA
ATOM      4  N   UNL     1       1.054   9.112  20.173  0.00  0.00    +0.000 N 
ATOM      5  C   UNL     1       0.502   9.043  21.537  0.00  0.00    +0.000 C 
ATOM      6  C   UNL     1       0.310  10.436  22.158  0.00  0.00    +0.000 C 
ATOM      7  N   UNL     1      -0.518  11.211  21.234  0.00  0.00    +0.000 N 
ATOM      8  C   UNL     1      -1.465  12.072  21.739  0.00  0.00    +0.000 A 
ATOM      9  C   UNL     1      -2.595  12.370  20.978  0.00  0.00    +0.000 A 
ATOM     10  C   UNL     1      -3.615  13.155  21.511  0.00  0.00    +0.000 A 
ATOM     11  C   UNL     1      -3.481  13.640  22.800  0.00  0.00    +0.000 A 
ATOM     12 CL   UNL     1      -4.713  14.603  23.504  0.00  0.00    +0.000 Cl
ATOM     13  C   UNL     1      -2.335  13.312  23.498  0.00  0.00    +0.000 A 
ATOM     14  N   UNL     1      -1.340  12.534  23.002  0.00  0.00    +0.000 NA
ATOM     15  C   UNL     1       0.060  11.399  19.902  0.00  0.00    +0.000 C 
ATOM     16  C   UNL     1       0.320  10.017  19.266  0.00  0.00    +0.000 C 
ATOM     17  H   UNL     1       2.554   9.069  18.248  0.00  0.00    +0.000 HD
ENDROOT
BRANCH   1  21
ATOM     18  C   UNL     1       4.861   5.207  16.696  0.00  0.00    +0.000 A 
ATOM     19  C   UNL     1       3.714   4.813  17.390  0.00  0.00    +0.000 A 
ATOM     20  C   UNL     1       2.873   5.761  17.981  0.00  0.00    +0.000 A 
ATOM     21  C   UNL     1       3.164   7.126  17.906  0.00  0.00    +0.000 A 
ATOM     22  C   UNL     1       4.293   7.528  17.193  0.00  0.00    +0.000 A 
ATOM     23  C   UNL     1       5.139   6.580  16.602  0.00  0.00    +0.000 A 
BRANCH  18  25
ATOM     24  C   UNL     1       5.683   4.147  14.556  0.00  0.00    +0.000 C 
ATOM     25  C   UNL     1       5.772   4.159  16.085  0.00  0.00    +0.000 C 
ATOM     26  C   UNL     1       7.222   4.347  16.541  0.00  0.00    +0.000 C 
ENDBRANCH  18  25
ENDBRANCH   1  21
TORSDOF 2
ENDMDL
MODEL 3
REMARK VINA RESULT:      -7.3      1.342      2.150
REMARK  Name = 
REMARK  4 active torsions:
REMARK  status: ('A' for Active; 'I' for Inactive)
REMARK    1  A    between atoms: C_1  and  C_2
REMARK    2  A    between atoms: C_2  and  C_3
REMARK    3  A    between atoms: C_2  and  C_4
REMARK    4  A    between atoms: C_7  and  N_8
REMARK                            x       y       z     vdW  Elec       q    Type
REMARK                         _______ _______ _______ _____ _____    ______ ____
ROOT
ATOM      1  N   UNL     1       1.831   8.451  18.415  0.00  0.00    +0.000 N 
ATOM      2  C   UNL     1       1.416   8.668  19.713  0.00  0.00    +0.000 C 
ATOM      3  O   UNL     1       1.757   7.992  20.677  0.00  0.00    +0.000 OA
ATOM      4  N   UNL     1       0.618   9.794  19.882  0.00  0.00    +0.000 N 
ATOM      5  C   UNL     1       0.307  10.150  21.278  0.00  0.00    +0.000 C 
ATOM      6  C   UNL     1      -0.047  11.637  21.434  0.00  0.00    +0.000 C 
ATOM      7  N   UNL     1      -1.140  11.921  20.505  0.00  0.00    +0.000 N 
ATOM      8  C   UNL     1      -2.144  12.781  20.887  0.00  0.00    +0.000 A 
ATOM      9  C   UNL     1      -3.415  12.644  20.328  0.00  0.00    +0.000 A 
ATOM     10  C   UNL     1      -4.469  13.434  20.778  0.00  0.00    +0.000 A 
ATOM     11  C   UNL     1      -4.232  14.361  21.778  0.00  0.00    +0.000 A 
ATOM     12 CL   UNL     1      -5.501  15.351  22.371  0.00  0.00    +0.000 Cl
ATOM     13  C   UNL     1      -2.950  14.450  22.285  0.00  0.00    +0.000 A 
ATOM     14  N   UNL     1      -1.915  13.676  21.873  0.00  0.00    +0.000 NA
ATOM     15  C   UNL     1      -0.822  11.690  19.094  0.00  0.00    +0.000 C 
ATOM     16  C   UNL     1      -0.406  10.216  18.906  0.00  0.00    +0.000 C 
ATOM     17  H   UNL     1       1.782   9.252  17.806  0.00  0.00    +0.000 HD
ENDROOT
BRANCH   1  21
ATOM     18  C   UNL     1       4.517   5.389  17.213  0.00  0.00    +0.000 A 
ATOM     19  C   UNL     1       3.282   5.058  17.778  0.00  0.00    +0.000 A 
ATOM     20  C   UNL     1       2.378   6.054  18.159  0.00  0.00    +0.000 A 
ATOM     21  C   UNL     1       2.689   7.407  17.999  0.00  0.00    +0.000 A 
ATOM     22  C   UNL     1       3.909   7.745  17.412  0.00  0.00    +0.000 A 
ATOM     23  C   UNL     1       4.818   6.749  17.032  0.00  0.00    +0.000 A 
BRANCH  18  25
ATOM     24  C   UNL     1       5.568   4.099  15.314  0.00  0.00    +0.000 C 
ATOM     25  C   UNL     1       5.492   4.293  16.831  0.00  0.00    +0.000 C 
ATOM     26  C   UNL     1       6.884   4.558  17.412  0.00  0.00    +0.000 C 
ENDBRANCH  18  25
ENDBRANCH   1  21
TORSDOF 2
ENDMDL
MODEL 4
REMARK VINA RESULT:      -7.3      1.422      2.016
REMARK  Name = 
REMARK  4 active torsions:
REMARK  status: ('A' for Active; 'I' for Inactive)
REMARK    1  A    between atoms: C_1  and  C_2
REMARK    2  A    between atoms: C_2  and  C_3
REMARK    3  A    between atoms: C_2  and  C_4
REMARK    4  A    between atoms: C_7  and  N_8
REMARK                            x       y       z     vdW  Elec       q    Type
REMARK                         _______ _______ _______ _____ _____    ______ ____
ROOT
ATOM      1  N   UNL     1       2.052   8.384  18.179  0.00  0.00    +0.000 N 
ATOM      2  C   UNL     1       1.558   8.597  19.451  0.00  0.00    +0.000 C 
ATOM      3  O   UNL     1       1.887   7.955  20.442  0.00  0.00    +0.000 OA
ATOM      4  N   UNL     1       0.691   9.677  19.558  0.00  0.00    +0.000 N 
ATOM      5  C   UNL     1       0.288  10.035  20.930  0.00  0.00    +0.000 C 
ATOM      6  C   UNL     1      -0.157  11.502  21.042  0.00  0.00    +0.000 C 
ATOM      7  N   UNL     1      -1.214  11.709  20.053  0.00  0.00    +0.000 N 
ATOM      8  C   UNL     1      -2.283  12.517  20.368  0.00  0.00    +0.000 A 
ATOM      9  C   UNL     1      -3.514  12.299  19.747  0.00  0.00    +0.000 A 
ATOM     10  C   UNL     1      -4.633  13.035  20.128  0.00  0.00    +0.000 A 
ATOM     11  C   UNL     1      -4.501  13.988  21.123  0.00  0.00    +0.000 A 
ATOM     12 CL   UNL     1      -5.852  14.913  21.633  0.00  0.00    +0.000 Cl
ATOM     13  C   UNL     1      -3.254  14.157  21.693  0.00  0.00    +0.000 A 
ATOM     14  N   UNL     1      -2.157  13.437  21.348  0.00  0.00    +0.000 NA
ATOM     15  C   UNL     1      -0.811  11.476  18.664  0.00  0.00    +0.000 C 
ATOM     16  C   UNL     1      -0.303  10.026  18.524  0.00  0.00    +0.000 C 
ATOM     17  H   UNL     1       1.990   9.172  17.555  0.00  0.00    +0.000 HD
ENDROOT
BRANCH   1  21
ATOM     18  C   UNL     1       4.759   5.308  17.065  0.00  0.00    +0.000 A 
ATOM     19  C   UNL     1       5.130   6.649  16.938  0.00  0.00    +0.000 A 
ATOM     20  C   UNL     1       4.258   7.674  17.321  0.00  0.00    +0.000 A 
ATOM     21  C   UNL     1       2.988   7.385  17.826  0.00  0.00    +0.000 A 
ATOM     22  C   UNL     1       2.621   6.048  17.981  0.00  0.00    +0.000 A 
ATOM     23  C   UNL     1       3.491   5.020  17.596  0.00  0.00    +0.000 A 
BRANCH  18  25
ATOM     24  C   UNL     1       5.691   4.023  15.102  0.00  0.00    +0.000 C 
ATOM     25  C   UNL     1       5.711   4.215  16.621  0.00  0.00    +0.000 C 
ATOM     26  C   UNL     1       7.137   4.484  17.113  0.00  0.00    +0.000 C 
ENDBRANCH  18  25
ENDBRANCH   1  21
TORSDOF 2
ENDMDL
MODEL 5
REMARK VINA RESULT:      -7.3      3.768     10.563
REMARK  Name = 
REMARK  4 active torsions:
REMARK  status: ('A' for Active; 'I' for Inactive)
REMARK    1  A    between atoms: C_1  and  C_2
REMARK    2  A    between atoms: C_2  and  C_3
REMARK    3  A    between atoms: C_2  and  C_4
REMARK    4  A    between atoms: C_7  and  N_8
REMARK                            x       y       z     vdW  Elec       q    Type
REMARK                         _______ _______ _______ _____ _____    ______ ____
ROOT
ATOM      1  N   UNL     1      -0.790  11.344  22.438  0.00  0.00    +0.000 N 
ATOM      2  C   UNL     1      -0.726  11.081  21.084  0.00  0.00    +0.000 C 
ATOM      3  O   UNL     1      -1.343  11.700  20.224  0.00  0.00    +0.000 OA
ATOM      4  N   UNL     1       0.176  10.084  20.733  0.00  0.00    +0.000 N 
ATOM      5  C   UNL     1       0.394   9.904  19.287  0.00  0.00    +0.000 C 
ATOM      6  C   UNL     1       1.751   9.251  18.980  0.00  0.00    +0.000 C 
ATOM      7  N   UNL     1       1.810   8.001  19.736  0.00  0.00    +0.000 N 
ATOM      8  C   UNL     1       2.398   6.895  19.166  0.00  0.00    +0.000 A 
ATOM      9  C   UNL     1       1.992   5.621  19.563  0.00  0.00    +0.000 A 
ATOM     10  C   UNL     1       2.498   4.491  18.925  0.00  0.00    +0.000 A 
ATOM     11  C   UNL     1       3.414   4.655  17.901  0.00  0.00    +0.000 A 
ATOM     12 CL   UNL     1       4.058   3.295  17.078  0.00  0.00    +0.000 Cl
ATOM     13  C   UNL     1       3.777   5.943  17.559  0.00  0.00    +0.000 A 
ATOM     14  N   UNL     1       3.282   7.056  18.157  0.00  0.00    +0.000 NA
ATOM     15  C   UNL     1       1.715   8.157  21.189  0.00  0.00    +0.000 C 
ATOM     16  C   UNL     1       0.387   8.862  21.535  0.00  0.00    +0.000 C 
ATOM     17  H   UNL     1       0.001  11.030  22.976  0.00  0.00    +0.000 HD
ENDROOT
BRANCH   1  21
ATOM     18  C   UNL     1      -3.135  14.446  24.143  0.00  0.00    +0.000 A 
ATOM     19  C   UNL     1      -3.679  13.171  23.967  0.00  0.00    +0.000 A 
ATOM     20  C   UNL     1      -2.913  12.133  23.427  0.00  0.00    +0.000 A 
ATOM     21  C   UNL     1      -1.589  12.346  23.035  0.00  0.00    +0.000 A 
ATOM     22  C   UNL     1      -1.031  13.610  23.232  0.00  0.00    +0.000 A 
ATOM     23  C   UNL     1      -1.797  14.651  23.771  0.00  0.00    +0.000 A 
BRANCH  18  25
ATOM     24  C   UNL     1      -3.215  16.876  24.825  0.00  0.00    +0.000 C 
ATOM     25  C   UNL     1      -3.993  15.562  24.707  0.00  0.00    +0.000 C 
ATOM     26  C   UNL     1      -5.265  15.760  23.878  0.00  0.00    +0.000 C 
ENDBRANCH  18  25
ENDBRANCH   1  21
TORSDOF 2
ENDMDL
MODEL 6
REMARK VINA RESULT:      -7.3      3.787     10.499
REMARK  Name = 
REMARK  4 active torsions:
REMARK  status: ('A' for Active; 'I' for Inactive)
REMARK    1  A    between atoms: C_1  and  C_2
REMARK    2  A    between atoms: C_2  and  C_3
REMARK    3  A    between atoms: C_2  and  C_4
REMARK    4  A    between atoms: C_7  and  N_8
REMARK                            x       y       z     vdW  Elec       q    Type
REMARK                         _______ _______ _______ _____ _____    ______ ____
ROOT
ATOM      1  N   UNL     1      -0.416  11.213  21.450  0.00  0.00    +0.000 N 
ATOM      2  C   UNL     1       0.392  10.185  21.894  0.00  0.00    +0.000 C 
ATOM      3  O   UNL     1       0.634   9.949  23.073  0.00  0.00    +0.000 OA
ATOM      4  N   UNL     1       0.871   9.353  20.889  0.00  0.00    +0.000 N 
ATOM      5  C   UNL     1       1.587   8.150  21.347  0.00  0.00    +0.000 C 
ATOM      6  C   UNL     1       1.574   7.029  20.296  0.00  0.00    +0.000 C 
ATOM      7  N   UNL     1       2.113   7.591  19.058  0.00  0.00    +0.000 N 
ATOM      8  C   UNL     1       2.925   6.814  18.263  0.00  0.00    +0.000 A 
ATOM      9  C   UNL     1       3.874   7.428  17.445  0.00  0.00    +0.000 A 
ATOM     10  C   UNL     1       4.775   6.658  16.714  0.00  0.00    +0.000 A 
ATOM     11  C   UNL     1       4.705   5.279  16.805  0.00  0.00    +0.000 A 
ATOM     12 CL   UNL     1       5.799   4.289  15.931  0.00  0.00    +0.000 Cl
ATOM     13  C   UNL     1       3.740   4.735  17.630  0.00  0.00    +0.000 A 
ATOM     14  N   UNL     1       2.866   5.468  18.364  0.00  0.00    +0.000 NA
ATOM     15  C   UNL     1       1.352   8.716  18.512  0.00  0.00    +0.000 C 
ATOM     16  C   UNL     1       1.296   9.844  19.563  0.00  0.00    +0.000 C 
ATOM     17  H   UNL     1      -0.813  11.083  20.533  0.00  0.00    +0.000 HD
ENDROOT
BRANCH   1  21
ATOM     18  C   UNL     1      -2.327  14.145  23.854  0.00  0.00    +0.000 A 
ATOM     19  C   UNL     1      -2.899  12.879  23.703  0.00  0.00    +0.000 A 
ATOM     20  C   UNL     1      -2.272  11.896  22.932  0.00  0.00    +0.000 A 
ATOM     21  C   UNL     1      -1.063  12.156  22.281  0.00  0.00    +0.000 A 
ATOM     22  C   UNL     1      -0.472  13.409  22.448  0.00  0.00    +0.000 A 
ATOM     23  C   UNL     1      -1.100  14.396  23.218  0.00  0.00    +0.000 A 
BRANCH  18  25
ATOM     24  C   UNL     1      -2.143  15.764  25.783  0.00  0.00    +0.000 C 
ATOM     25  C   UNL     1      -3.038  15.204  24.674  0.00  0.00    +0.000 C 
ATOM     26  C   UNL     1      -3.569  16.333  23.786  0.00  0.00    +0.000 C 
ENDBRANCH  18  25
ENDBRANCH   1  21
TORSDOF 2
ENDMDL
MODEL 7
REMARK VINA RESULT:      -7.2      3.816     10.402
REMARK  Name = 
REMARK  4 active torsions:
REMARK  status: ('A' for Active; 'I' for Inactive)
REMARK    1  A    between atoms: C_1  and  C_2
REMARK    2  A    between atoms: C_2  and  C_3
REMARK    3  A    between atoms: C_2  and  C_4
REMARK    4  A    between atoms: C_7  and  N_8
REMARK                            x       y       z     vdW  Elec       q    Type
REMARK                         _______ _______ _______ _____ _____    ______ ____
ROOT
ATOM      1  N   UNL     1      -0.146  11.140  21.146  0.00  0.00    +0.000 N 
ATOM      2  C   UNL     1       0.611  10.085  21.615  0.00  0.00    +0.000 C 
ATOM      3  O   UNL     1       0.817   9.846  22.799  0.00  0.00    +0.000 OA
ATOM      4  N   UNL     1       1.081   9.229  20.625  0.00  0.00    +0.000 N 
ATOM      5  C   UNL     1       1.740   8.002  21.107  0.00  0.00    +0.000 C 
ATOM      6  C   UNL     1       1.708   6.875  20.062  0.00  0.00    +0.000 C 
ATOM      7  N   UNL     1       2.298   7.408  18.834  0.00  0.00    +0.000 N 
ATOM      8  C   UNL     1       3.097   6.596  18.062  0.00  0.00    +0.000 A 
ATOM      9  C   UNL     1       4.087   7.169  17.263  0.00  0.00    +0.000 A 
ATOM     10  C   UNL     1       4.975   6.361  16.557  0.00  0.00    +0.000 A 
ATOM     11  C   UNL     1       4.851   4.986  16.654  0.00  0.00    +0.000 A 
ATOM     12 CL   UNL     1       5.925   3.949  15.811  0.00  0.00    +0.000 Cl
ATOM     13  C   UNL     1       3.846   4.484  17.459  0.00  0.00    +0.000 A 
ATOM     14  N   UNL     1       2.984   5.255  18.169  0.00  0.00    +0.000 NA
ATOM     15  C   UNL     1       1.593   8.558  18.263  0.00  0.00    +0.000 C 
ATOM     16  C   UNL     1       1.555   9.695  19.307  0.00  0.00    +0.000 C 
ATOM     17  H   UNL     1      -0.527  11.020  20.221  0.00  0.00    +0.000 HD
ENDROOT
BRANCH   1  21
ATOM     18  C   UNL     1      -2.069  13.960  23.672  0.00  0.00    +0.000 A 
ATOM     19  C   UNL     1      -0.894  14.307  22.998  0.00  0.00    +0.000 A 
ATOM     20  C   UNL     1      -0.261  13.397  22.146  0.00  0.00    +0.000 A 
ATOM     21  C   UNL     1      -0.776  12.112  21.956  0.00  0.00    +0.000 A 
ATOM     22  C   UNL     1      -1.962  11.767  22.604  0.00  0.00    +0.000 A 
ATOM     23  C   UNL     1      -2.597  12.676  23.460  0.00  0.00    +0.000 A 
BRANCH  18  25
ATOM     24  C   UNL     1      -1.810  15.320  25.782  0.00  0.00    +0.000 C 
ATOM     25  C   UNL     1      -2.724  14.954  24.610  0.00  0.00    +0.000 C 
ATOM     26  C   UNL     1      -3.173  16.213  23.861  0.00  0.00    +0.000 C 
ENDBRANCH  18  25
ENDBRANCH   1  21
TORSDOF 2
ENDMDL
MODEL 8
REMARK VINA RESULT:      -7.1      3.843     10.687
REMARK  Name = 
REMARK  4 active torsions:
REMARK  status: ('A' for Active; 'I' for Inactive)
REMARK    1  A    between atoms: C_1  and  C_2
REMARK    2  A    between atoms: C_2  and  C_3
REMARK    3  A    between atoms: C_2  and  C_4
REMARK    4  A    between atoms: C_7  and  N_8
REMARK                            x       y       z     vdW  Elec       q    Type
REMARK                         _______ _______ _______ _____ _____    ______ ____
ROOT
ATOM      1  N   UNL     1      -1.067  11.882  22.705  0.00  0.00    +0.000 N 
ATOM      2  C   UNL     1      -1.077  11.416  21.405  0.00  0.00    +0.000 C 
ATOM      3  O   UNL     1      -1.757  11.888  20.501  0.00  0.00    +0.000 OA
ATOM      4  N   UNL     1      -0.175  10.389  21.154  0.00  0.00    +0.000 N 
ATOM      5  C   UNL     1      -0.039   9.993  19.741  0.00  0.00    +0.000 C 
ATOM      6  C   UNL     1       1.312   9.319  19.453  0.00  0.00    +0.000 C 
ATOM      7  N   UNL     1       1.444   8.200  20.386  0.00  0.00    +0.000 N 
ATOM      8  C   UNL     1       2.022   7.028  19.954  0.00  0.00    +0.000 A 
ATOM      9  C   UNL     1       1.670   5.824  20.565  0.00  0.00    +0.000 A 
ATOM     10  C   UNL     1       2.162   4.617  20.075  0.00  0.00    +0.000 A 
ATOM     11  C   UNL     1       3.012   4.635  18.983  0.00  0.00    +0.000 A 
ATOM     12 CL   UNL     1       3.637   3.174  18.338  0.00  0.00    +0.000 Cl
ATOM     13  C   UNL     1       3.325   5.861  18.428  0.00  0.00    +0.000 A 
ATOM     14  N   UNL     1       2.841   7.045  18.880  0.00  0.00    +0.000 NA
ATOM     15  C   UNL     1       1.432   8.575  21.801  0.00  0.00    +0.000 C 
ATOM     16  C   UNL     1       0.111   9.307  22.117  0.00  0.00    +0.000 C 
ATOM     17  H   UNL     1      -0.238  11.664  23.234  0.00  0.00    +0.000 HD
ENDROOT
BRANCH   1  21
ATOM     18  C   UNL     1      -3.467  15.015  24.270  0.00  0.00    +0.000 A 
ATOM     19  C   UNL     1      -2.201  15.295  23.747  0.00  0.00    +0.000 A 
ATOM     20  C   UNL     1      -1.408  14.277  23.208  0.00  0.00    +0.000 A 
ATOM     21  C   UNL     1      -1.851  12.953  23.191  0.00  0.00    +0.000 A 
ATOM     22  C   UNL     1      -3.124  12.670  23.688  0.00  0.00    +0.000 A 
ATOM     23  C   UNL     1      -3.920  13.687  24.231  0.00  0.00    +0.000 A 
BRANCH  18  25
ATOM     24  C   UNL     1      -3.451  17.361  25.203  0.00  0.00    +0.000 C 
ATOM     25  C   UNL     1      -4.299  16.131  24.872  0.00  0.00    +0.000 C 
ATOM     26  C   UNL     1      -5.468  16.509  23.957  0.00  0.00    +0.000 C 
ENDBRANCH  18  25
ENDBRANCH   1  21
TORSDOF 2
ENDMDL
MODEL 9
REMARK VINA RESULT:      -7.1      1.633      2.574
REMARK  Name = 
REMARK  4 active torsions:
REMARK  status: ('A' for Active; 'I' for Inactive)
REMARK    1  A    between atoms: C_1  and  C_2
REMARK    2  A    between atoms: C_2  and  C_3
REMARK    3  A    between atoms: C_2  and  C_4
REMARK    4  A    between atoms: C_7  and  N_8
REMARK                            x       y       z     vdW  Elec       q    Type
REMARK                         _______ _______ _______ _____ _____    ______ ____
ROOT
ATOM      1  N   UNL     1       1.298   8.960  19.390  0.00  0.00    +0.000 N 
ATOM      2  C   UNL     1       0.835   9.014  20.689  0.00  0.00    +0.000 C 
ATOM      3  O   UNL     1       1.171   8.243  21.582  0.00  0.00    +0.000 OA
ATOM      4  N   UNL     1      -0.009  10.086  20.956  0.00  0.00    +0.000 N 
ATOM      5  C   UNL     1      -0.376  10.269  22.371  0.00  0.00    +0.000 C 
ATOM      6  C   UNL     1      -0.790  11.716  22.682  0.00  0.00    +0.000 C 
ATOM      7  N   UNL     1      -1.863  12.068  21.753  0.00  0.00    +0.000 N 
ATOM      8  C   UNL     1      -2.909  12.845  22.194  0.00  0.00    +0.000 A 
ATOM      9  C   UNL     1      -4.156  12.731  21.579  0.00  0.00    +0.000 A 
ATOM     10  C   UNL     1      -5.253  13.429  22.077  0.00  0.00    +0.000 A 
ATOM     11  C   UNL     1      -5.082  14.243  23.183  0.00  0.00    +0.000 A 
ATOM     12 CL   UNL     1      -6.404  15.116  23.840  0.00  0.00    +0.000 Cl
ATOM     13  C   UNL     1      -3.820  14.315  23.743  0.00  0.00    +0.000 A 
ATOM     14  N   UNL     1      -2.745  13.629  23.282  0.00  0.00    +0.000 NA
ATOM     15  C   UNL     1      -1.493  12.010  20.337  0.00  0.00    +0.000 C 
ATOM     16  C   UNL     1      -1.017  10.582  19.998  0.00  0.00    +0.000 C 
ATOM     17  H   UNL     1       1.238   9.823  18.874  0.00  0.00    +0.000 HD
ENDROOT
BRANCH   1  21
ATOM     18  C   UNL     1       3.934   5.975  17.915  0.00  0.00    +0.000 A 
ATOM     19  C   UNL     1       3.840   7.211  17.269  0.00  0.00    +0.000 A 
ATOM     20  C   UNL     1       2.993   8.212  17.754  0.00  0.00    +0.000 A 
ATOM     21  C   UNL     1       2.207   7.999  18.889  0.00  0.00    +0.000 A 
ATOM     22  C   UNL     1       2.314   6.778  19.555  0.00  0.00    +0.000 A 
ATOM     23  C   UNL     1       3.161   5.773  19.069  0.00  0.00    +0.000 A 
BRANCH  18  25
ATOM     24  C   UNL     1       4.164   3.523  17.361  0.00  0.00    +0.000 C 
ATOM     25  C   UNL     1       4.841   4.896  17.356  0.00  0.00    +0.000 C 
ATOM     26  C   UNL     1       5.328   5.253  15.948  0.00  0.00    +0.000 C 
ENDBRANCH  18  25
ENDBRANCH   1  21
TORSDOF 2
ENDMDL
