MODEL 1
REMARK VINA RESULT:      -7.6      0.000      0.000
REMARK  Name = 
REMARK  4 active torsions:
REMARK  status: ('A' for Active; 'I' for Inactive)
REMARK    1  A    between atoms: C_1  and  C_2
REMARK    2  A    between atoms: C_3  and  C_4
REMARK    3  A    between atoms: N_5  and  N_6
REMARK    4  A    between atoms: C_7  and  C_9
REMARK                            x       y       z     vdW  Elec       q    Type
REMARK                         _______ _______ _______ _____ _____    ______ ____
ROOT
ATOM      1  C   UNL     1       7.296   5.167  15.370  0.00  0.00    +0.000 C 
ATOM      2  C   UNL     1       6.390   4.859  16.525  0.00  0.00    +0.000 A 
ATOM      3  C   UNL     1       6.495   5.393  17.824  0.00  0.00    +0.000 A 
ATOM      4  N   UNL     1       5.567   5.082  18.816  0.00  0.00    +0.000 N 
ATOM      5  O   UNL     1       5.645   5.612  19.976  0.00  0.00    +0.000 OA
ATOM      6  C   UNL     1       4.544   4.150  18.536  0.00  0.00    +0.000 A 
ATOM      7  C   UNL     1       3.613   3.750  19.526  0.00  0.00    +0.000 A 
ATOM      8  C   UNL     1       2.630   2.804  19.241  0.00  0.00    +0.000 A 
ATOM      9 CL   UNL     1       1.532   2.311  20.469  0.00  0.00    +0.000 Cl
ATOM     10  C   UNL     1       2.537   2.245  17.973  0.00  0.00    +0.000 A 
ATOM     11  C   UNL     1       3.434   2.640  16.980  0.00  0.00    +0.000 A 
ATOM     12  C   UNL     1       4.450   3.586  17.245  0.00  0.00    +0.000 A 
ATOM     13  N   UNL     1       5.363   3.965  16.240  0.00  0.00    +0.000 N 
ATOM     14  O   UNL     1       5.240   3.482  15.064  0.00  0.00    +0.000 OA
ENDROOT
BRANCH   3  15
ATOM     15  C   UNL     1       7.605   6.260  18.267  0.00  0.00    +0.000 C 
ATOM     16  N   UNL     1       7.575   7.516  17.974  0.00  0.00    +0.000 NA
BRANCH  16  17
ATOM     17  N   UNL     1       8.584   8.314  18.405  0.00  0.00    +0.000 N 
ATOM     18  C   UNL     1       8.447   9.680  18.185  0.00  0.00    +0.000 C 
ATOM     19  O   UNL     1       7.484  10.199  17.623  0.00  0.00    +0.000 OA
ATOM     20  H   UNL     1       9.323   7.926  18.979  0.00  0.00    +0.000 HD
BRANCH  18  21
ATOM     21  C   UNL     1       9.523  10.564  18.702  0.00  0.00    +0.000 A 
ATOM     22  C   UNL     1      10.455  11.183  17.873  0.00  0.00    +0.000 A 
ATOM     23  C   UNL     1      11.393  12.010  18.467  0.00  0.00    +0.000 A 
ATOM     24  N   UNL     1      11.454  12.248  19.796  0.00  0.00    +0.000 NA
ATOM     25  C   UNL     1      10.528  11.650  20.572  0.00  0.00    +0.000 A 
ATOM     26  C   UNL     1       9.551  10.810  20.077  0.00  0.00    +0.000 A 
ENDBRANCH  18  21
ENDBRANCH  16  17
ENDBRANCH   3  15
TORSDOF 3
ENDMDL
MODEL 2
REMARK VINA RESULT:      -7.5      1.521      1.602
REMARK  Name = 
REMARK  4 active torsions:
REMARK  status: ('A' for Active; 'I' for Inactive)
REMARK    1  A    between atoms: C_1  and  C_2
REMARK    2  A    between atoms: C_3  and  C_4
REMARK    3  A    between atoms: N_5  and  N_6
REMARK    4  A    between atoms: C_7  and  C_9
REMARK                            x       y       z     vdW  Elec       q    Type
REMARK                         _______ _______ _______ _____ _____    ______ ____
ROOT
ATOM      1  C   UNL     1       7.052   5.269  15.383  0.00  0.00    +0.000 C 
ATOM      2  C   UNL     1       5.844   5.188  16.269  0.00  0.00    +0.000 A 
ATOM      3  C   UNL     1       5.246   6.264  16.953  0.00  0.00    +0.000 A 
ATOM      4  N   UNL     1       4.091   6.093  17.712  0.00  0.00    +0.000 N 
ATOM      5  O   UNL     1       3.529   7.086  18.287  0.00  0.00    +0.000 OA
ATOM      6  C   UNL     1       3.551   4.797  17.863  0.00  0.00    +0.000 A 
ATOM      7  C   UNL     1       2.415   4.555  18.674  0.00  0.00    +0.000 A 
ATOM      8  C   UNL     1       1.916   3.265  18.839  0.00  0.00    +0.000 A 
ATOM      9 CL   UNL     1       0.556   2.993  19.855  0.00  0.00    +0.000 Cl
ATOM     10  C   UNL     1       2.517   2.190  18.196  0.00  0.00    +0.000 A 
ATOM     11  C   UNL     1       3.625   2.410  17.378  0.00  0.00    +0.000 A 
ATOM     12  C   UNL     1       4.162   3.707  17.206  0.00  0.00    +0.000 A 
ATOM     13  N   UNL     1       5.294   3.916  16.392  0.00  0.00    +0.000 N 
ATOM     14  O   UNL     1       5.811   2.930  15.767  0.00  0.00    +0.000 OA
ENDROOT
BRANCH   3  15
ATOM     15  C   UNL     1       5.807   7.629  16.984  0.00  0.00    +0.000 C 
ATOM     16  N   UNL     1       7.038   7.795  17.335  0.00  0.00    +0.000 NA
BRANCH  16  17
ATOM     17  N   UNL     1       7.556   9.048  17.337  0.00  0.00    +0.000 N 
ATOM     18  C   UNL     1       8.511   9.336  18.306  0.00  0.00    +0.000 C 
ATOM     19  O   UNL     1       8.901   8.534  19.154  0.00  0.00    +0.000 OA
ATOM     20  H   UNL     1       7.345   9.682  16.575  0.00  0.00    +0.000 HD
BRANCH  18  21
ATOM     21  C   UNL     1       9.121  10.689  18.280  0.00  0.00    +0.000 A 
ATOM     22  C   UNL     1       8.504  11.785  17.681  0.00  0.00    +0.000 A 
ATOM     23  C   UNL     1       9.156  13.004  17.747  0.00  0.00    +0.000 A 
ATOM     24  N   UNL     1      10.348  13.190  18.356  0.00  0.00    +0.000 NA
ATOM     25  C   UNL     1      10.914  12.115  18.943  0.00  0.00    +0.000 A 
ATOM     26  C   UNL     1      10.344  10.858  18.935  0.00  0.00    +0.000 A 
ENDBRANCH  18  21
ENDBRANCH  16  17
ENDBRANCH   3  15
TORSDOF 3
ENDMDL
MODEL 3
REMARK VINA RESULT:      -7.4      7.974     10.410
REMARK  Name = 
REMARK  4 active torsions:
REMARK  status: ('A' for Active; 'I' for Inactive)
REMARK    1  A    between atoms: C_1  and  C_2
REMARK    2  A    between atoms: C_3  and  C_4
REMARK    3  A    between atoms: N_5  and  N_6
REMARK    4  A    between atoms: C_7  and  C_9
REMARK                            x       y       z     vdW  Elec       q    Type
REMARK                         _______ _______ _______ _____ _____    ______ ____
ROOT
ATOM      1  C   UNL     1      -0.241  10.095  18.272  0.00  0.00    +0.000 C 
ATOM      2  C   UNL     1      -0.443  10.782  19.590  0.00  0.00    +0.000 A 
ATOM      3  C   UNL     1      -0.190  10.227  20.860  0.00  0.00    +0.000 A 
ATOM      4  N   UNL     1      -0.361  10.969  22.026  0.00  0.00    +0.000 N 
ATOM      5  O   UNL     1      -0.079  10.470  23.169  0.00  0.00    +0.000 OA
ATOM      6  C   UNL     1      -0.874  12.281  21.940  0.00  0.00    +0.000 A 
ATOM      7  C   UNL     1      -1.128  13.057  23.097  0.00  0.00    +0.000 A 
ATOM      8  C   UNL     1      -1.667  14.338  22.995  0.00  0.00    +0.000 A 
ATOM      9 CL   UNL     1      -1.996  15.248  24.416  0.00  0.00    +0.000 Cl
ATOM     10  C   UNL     1      -1.953  14.885  21.750  0.00  0.00    +0.000 A 
ATOM     11  C   UNL     1      -1.693  14.143  20.598  0.00  0.00    +0.000 A 
ATOM     12  C   UNL     1      -1.161  12.835  20.673  0.00  0.00    +0.000 A 
ATOM     13  N   UNL     1      -0.920  12.086  19.503  0.00  0.00    +0.000 N 
ATOM     14  O   UNL     1      -1.140  12.614  18.361  0.00  0.00    +0.000 OA
ENDROOT
BRANCH   3  15
ATOM     15  C   UNL     1       0.210   8.822  21.076  0.00  0.00    +0.000 C 
ATOM     16  N   UNL     1       1.393   8.445  20.723  0.00  0.00    +0.000 NA
BRANCH  16  17
ATOM     17  N   UNL     1       1.764   7.160  20.947  0.00  0.00    +0.000 N 
ATOM     18  C   UNL     1       2.294   6.458  19.869  0.00  0.00    +0.000 C 
ATOM     19  O   UNL     1       2.435   6.925  18.739  0.00  0.00    +0.000 OA
ATOM     20  H   UNL     1       1.776   6.795  21.892  0.00  0.00    +0.000 HD
BRANCH  18  21
ATOM     21  C   UNL     1       2.752   5.069  20.120  0.00  0.00    +0.000 A 
ATOM     22  C   UNL     1       2.100   4.205  20.997  0.00  0.00    +0.000 A 
ATOM     23  C   UNL     1       2.602   2.921  21.126  0.00  0.00    +0.000 A 
ATOM     24  N   UNL     1       3.681   2.463  20.454  0.00  0.00    +0.000 NA
ATOM     25  C   UNL     1       4.281   3.315  19.599  0.00  0.00    +0.000 A 
ATOM     26  C   UNL     1       3.857   4.613  19.397  0.00  0.00    +0.000 A 
ENDBRANCH  18  21
ENDBRANCH  16  17
ENDBRANCH   3  15
TORSDOF 3
ENDMDL
MODEL 4
REMARK VINA RESULT:      -7.3      7.661      9.791
REMARK  Name = 
REMARK  4 active torsions:
REMARK  status: ('A' for Active; 'I' for Inactive)
REMARK    1  A    between atoms: C_1  and  C_2
REMARK    2  A    between atoms: C_3  and  C_4
REMARK    3  A    between atoms: N_5  and  N_6
REMARK    4  A    between atoms: C_7  and  C_9
REMARK                            x       y       z     vdW  Elec       q    Type
REMARK                         _______ _______ _______ _____ _____    ______ ____
ROOT
ATOM      1  C   UNL     1       1.074  10.874  18.645  0.00  0.00    +0.000 C 
ATOM      2  C   UNL     1       0.310  10.989  19.930  0.00  0.00    +0.000 A 
ATOM      3  C   UNL     1       0.498  10.196  21.079  0.00  0.00    +0.000 A 
ATOM      4  N   UNL     1      -0.231  10.419  22.245  0.00  0.00    +0.000 N 
ATOM      5  O   UNL     1      -0.016   9.725  23.296  0.00  0.00    +0.000 OA
ATOM      6  C   UNL     1      -1.237  11.410  22.251  0.00  0.00    +0.000 A 
ATOM      7  C   UNL     1      -2.051  11.635  23.389  0.00  0.00    +0.000 A 
ATOM      8  C   UNL     1      -3.061  12.595  23.366  0.00  0.00    +0.000 A 
ATOM      9 CL   UNL     1      -4.056  12.827  24.748  0.00  0.00    +0.000 Cl
ATOM     10  C   UNL     1      -3.279  13.360  22.227  0.00  0.00    +0.000 A 
ATOM     11  C   UNL     1      -2.475  13.166  21.104  0.00  0.00    +0.000 A 
ATOM     12  C   UNL     1      -1.454  12.189  21.094  0.00  0.00    +0.000 A 
ATOM     13  N   UNL     1      -0.660  11.987  19.947  0.00  0.00    +0.000 N 
ATOM     14  O   UNL     1      -0.836  12.729  18.922  0.00  0.00    +0.000 OA
ENDROOT
BRANCH   3  15
ATOM     15  C   UNL     1       1.416   9.042  21.137  0.00  0.00    +0.000 C 
ATOM     16  N   UNL     1       1.025   7.905  20.668  0.00  0.00    +0.000 NA
BRANCH  16  17
ATOM     17  N   UNL     1       1.882   6.854  20.700  0.00  0.00    +0.000 N 
ATOM     18  C   UNL     1       2.450   6.465  19.491  0.00  0.00    +0.000 C 
ATOM     19  O   UNL     1       2.218   7.005  18.410  0.00  0.00    +0.000 OA
ATOM     20  H   UNL     1       2.184   6.476  21.590  0.00  0.00    +0.000 HD
BRANCH  18  21
ATOM     21  C   UNL     1       3.429   5.349  19.527  0.00  0.00    +0.000 A 
ATOM     22  C   UNL     1       3.097   4.066  19.955  0.00  0.00    +0.000 A 
ATOM     23  C   UNL     1       4.087   3.100  19.915  0.00  0.00    +0.000 A 
ATOM     24  N   UNL     1       5.348   3.329  19.486  0.00  0.00    +0.000 NA
ATOM     25  C   UNL     1       5.636   4.576  19.060  0.00  0.00    +0.000 A 
ATOM     26  C   UNL     1       4.720   5.608  19.058  0.00  0.00    +0.000 A 
ENDBRANCH  18  21
ENDBRANCH  16  17
ENDBRANCH   3  15
TORSDOF 3
ENDMDL
MODEL 5
REMARK VINA RESULT:      -7.3      6.980     10.495
REMARK  Name = 
REMARK  4 active torsions:
REMARK  status: ('A' for Active; 'I' for Inactive)
REMARK    1  A    between atoms: C_1  and  C_2
REMARK    2  A    between atoms: C_3  and  C_4
REMARK    3  A    between atoms: N_5  and  N_6
REMARK    4  A    between atoms: C_7  and  C_9
REMARK                            x       y       z     vdW  Elec       q    Type
REMARK                         _______ _______ _______ _____ _____    ______ ____
ROOT
ATOM      1  C   UNL     1      -0.613  10.814  22.664  0.00  0.00    +0.000 C 
ATOM      2  C   UNL     1       0.166  11.368  21.509  0.00  0.00    +0.000 A 
ATOM      3  C   UNL     1       0.683  10.628  20.428  0.00  0.00    +0.000 A 
ATOM      4  N   UNL     1       1.351  11.247  19.373  0.00  0.00    +0.000 N 
ATOM      5  O   UNL     1       1.771  10.570  18.374  0.00  0.00    +0.000 OA
ATOM      6  C   UNL     1       1.583  12.639  19.427  0.00  0.00    +0.000 A 
ATOM      7  C   UNL     1       2.312  13.309  18.414  0.00  0.00    +0.000 A 
ATOM      8  C   UNL     1       2.561  14.677  18.500  0.00  0.00    +0.000 A 
ATOM      9 CL   UNL     1       3.475  15.463  17.274  0.00  0.00    +0.000 Cl
ATOM     10  C   UNL     1       2.086  15.414  19.578  0.00  0.00    +0.000 A 
ATOM     11  C   UNL     1       1.350  14.774  20.576  0.00  0.00    +0.000 A 
ATOM     12  C   UNL     1       1.096  13.385  20.522  0.00  0.00    +0.000 A 
ATOM     13  N   UNL     1       0.368  12.745  21.546  0.00  0.00    +0.000 N 
ATOM     14  O   UNL     1      -0.106  13.438  22.508  0.00  0.00    +0.000 OA
ENDROOT
BRANCH   3  15
ATOM     15  C   UNL     1       0.625   9.155  20.341  0.00  0.00    +0.000 C 
ATOM     16  N   UNL     1       1.560   8.457  20.891  0.00  0.00    +0.000 NA
BRANCH  16  17
ATOM     17  N   UNL     1       1.489   7.104  20.831  0.00  0.00    +0.000 N 
ATOM     18  C   UNL     1       2.195   6.479  19.809  0.00  0.00    +0.000 C 
ATOM     19  O   UNL     1       2.863   7.073  18.964  0.00  0.00    +0.000 OA
ATOM     20  H   UNL     1       1.051   6.587  21.586  0.00  0.00    +0.000 HD
BRANCH  18  21
ATOM     21  C   UNL     1       2.164   4.995  19.769  0.00  0.00    +0.000 A 
ATOM     22  C   UNL     1       2.974   4.245  18.919  0.00  0.00    +0.000 A 
ATOM     23  C   UNL     1       2.879   2.866  18.993  0.00  0.00    +0.000 A 
ATOM     24  N   UNL     1       2.053   2.211  19.838  0.00  0.00    +0.000 NA
ATOM     25  C   UNL     1       1.294   2.962  20.663  0.00  0.00    +0.000 A 
ATOM     26  C   UNL     1       1.316   4.342  20.668  0.00  0.00    +0.000 A 
ENDBRANCH  18  21
ENDBRANCH  16  17
ENDBRANCH   3  15
TORSDOF 3
ENDMDL
MODEL 6
REMARK VINA RESULT:      -7.3      5.288      5.856
REMARK  Name = 
REMARK  4 active torsions:
REMARK  status: ('A' for Active; 'I' for Inactive)
REMARK    1  A    between atoms: C_1  and  C_2
REMARK    2  A    between atoms: C_3  and  C_4
REMARK    3  A    between atoms: N_5  and  N_6
REMARK    4  A    between atoms: C_7  and  C_9
REMARK                            x       y       z     vdW  Elec       q    Type
REMARK                         _______ _______ _______ _____ _____    ______ ____
ROOT
ATOM      1  C   UNL     1       4.832   6.742  16.024  0.00  0.00    +0.000 C 
ATOM      2  C   UNL     1       4.067   6.236  17.210  0.00  0.00    +0.000 A 
ATOM      3  C   UNL     1       3.276   7.013  18.079  0.00  0.00    +0.000 A 
ATOM      4  N   UNL     1       2.559   6.436  19.124  0.00  0.00    +0.000 N 
ATOM      5  O   UNL     1       1.806   7.145  19.874  0.00  0.00    +0.000 OA
ATOM      6  C   UNL     1       2.690   5.051  19.368  0.00  0.00    +0.000 A 
ATOM      7  C   UNL     1       2.035   4.423  20.456  0.00  0.00    +0.000 A 
ATOM      8  C   UNL     1       2.202   3.062  20.702  0.00  0.00    +0.000 A 
ATOM      9 CL   UNL     1       1.422   2.330  22.047  0.00  0.00    +0.000 Cl
ATOM     10  C   UNL     1       3.007   2.290  19.873  0.00  0.00    +0.000 A 
ATOM     11  C   UNL     1       3.645   2.887  18.785  0.00  0.00    +0.000 A 
ATOM     12  C   UNL     1       3.505   4.269  18.522  0.00  0.00    +0.000 A 
ATOM     13  N   UNL     1       4.170   4.865  17.432  0.00  0.00    +0.000 N 
ATOM     14  O   UNL     1       4.869   4.140  16.646  0.00  0.00    +0.000 OA
ENDROOT
BRANCH   3  15
ATOM     15  C   UNL     1       3.183   8.484  18.006  0.00  0.00    +0.000 C 
ATOM     16  N   UNL     1       2.072   9.025  17.633  0.00  0.00    +0.000 NA
BRANCH  16  17
ATOM     17  N   UNL     1       1.983  10.378  17.592  0.00  0.00    +0.000 N 
ATOM     18  C   UNL     1       1.357  11.003  18.666  0.00  0.00    +0.000 C 
ATOM     19  O   UNL     1       0.879  10.408  19.631  0.00  0.00    +0.000 OA
ATOM     20  H   UNL     1       2.478  10.895  16.874  0.00  0.00    +0.000 HD
BRANCH  18  21
ATOM     21  C   UNL     1       1.304  12.487  18.653  0.00  0.00    +0.000 A 
ATOM     22  C   UNL     1       0.139  13.203  18.920  0.00  0.00    +0.000 A 
ATOM     23  C   UNL     1       0.219  14.585  18.910  0.00  0.00    +0.000 A 
ATOM     24  N   UNL     1       1.354  15.273  18.658  0.00  0.00    +0.000 NA
ATOM     25  C   UNL     1       2.470  14.553  18.422  0.00  0.00    +0.000 A 
ATOM     26  C   UNL     1       2.496  13.173  18.411  0.00  0.00    +0.000 A 
ENDBRANCH  18  21
ENDBRANCH  16  17
ENDBRANCH   3  15
TORSDOF 3
ENDMDL
MODEL 7
REMARK VINA RESULT:      -7.1      6.674     10.132
REMARK  Name = 
REMARK  4 active torsions:
REMARK  status: ('A' for Active; 'I' for Inactive)
REMARK    1  A    between atoms: C_1  and  C_2
REMARK    2  A    between atoms: C_3  and  C_4
REMARK    3  A    between atoms: N_5  and  N_6
REMARK    4  A    between atoms: C_7  and  C_9
REMARK                            x       y       z     vdW  Elec       q    Type
REMARK                         _______ _______ _______ _____ _____    ______ ____
ROOT
ATOM      1  C   UNL     1      -0.337  10.253  22.236  0.00  0.00    +0.000 C 
ATOM      2  C   UNL     1       0.407  10.937  21.128  0.00  0.00    +0.000 A 
ATOM      3  C   UNL     1       0.978  10.308  20.004  0.00  0.00    +0.000 A 
ATOM      4  N   UNL     1       1.606  11.042  18.999  0.00  0.00    +0.000 N 
ATOM      5  O   UNL     1       2.075  10.464  17.961  0.00  0.00    +0.000 OA
ATOM      6  C   UNL     1       1.742  12.439  19.148  0.00  0.00    +0.000 A 
ATOM      7  C   UNL     1       2.426  13.225  18.189  0.00  0.00    +0.000 A 
ATOM      8  C   UNL     1       2.580  14.598  18.369  0.00  0.00    +0.000 A 
ATOM      9 CL   UNL     1       3.443  15.525  17.206  0.00  0.00    +0.000 Cl
ATOM     10  C   UNL     1       2.051  15.226  19.490  0.00  0.00    +0.000 A 
ATOM     11  C   UNL     1       1.358  14.471  20.436  0.00  0.00    +0.000 A 
ATOM     12  C   UNL     1       1.200  13.074  20.287  0.00  0.00    +0.000 A 
ATOM     13  N   UNL     1       0.514  12.318  21.259  0.00  0.00    +0.000 N 
ATOM     14  O   UNL     1      -0.011  12.910  22.262  0.00  0.00    +0.000 OA
ENDROOT
BRANCH   3  15
ATOM     15  C   UNL     1       1.022   8.844  19.818  0.00  0.00    +0.000 C 
ATOM     16  N   UNL     1       1.967   8.168  20.380  0.00  0.00    +0.000 NA
BRANCH  16  17
ATOM     17  N   UNL     1       1.988   6.821  20.227  0.00  0.00    +0.000 N 
ATOM     18  C   UNL     1       2.664   6.321  19.120  0.00  0.00    +0.000 C 
ATOM     19  O   UNL     1       3.228   7.019  18.278  0.00  0.00    +0.000 OA
ATOM     20  H   UNL     1       1.642   6.223  20.969  0.00  0.00    +0.000 HD
BRANCH  18  21
ATOM     21  C   UNL     1       2.737   4.845  18.975  0.00  0.00    +0.000 A 
ATOM     22  C   UNL     1       1.741   4.097  18.351  0.00  0.00    +0.000 A 
ATOM     23  C   UNL     1       1.934   2.730  18.249  0.00  0.00    +0.000 A 
ATOM     24  N   UNL     1       3.026   2.085  18.716  0.00  0.00    +0.000 NA
ATOM     25  C   UNL     1       3.982   2.837  19.299  0.00  0.00    +0.000 A 
ATOM     26  C   UNL     1       3.886   4.206  19.448  0.00  0.00    +0.000 A 
ENDBRANCH  18  21
ENDBRANCH  16  17
ENDBRANCH   3  15
TORSDOF 3
ENDMDL
MODEL 8
REMARK VINA RESULT:      -7.0      6.211      7.725
REMARK  Name = 
REMARK  4 active torsions:
REMARK  status: ('A' for Active; 'I' for Inactive)
REMARK    1  A    between atoms: C_1  and  C_2
REMARK    2  A    between atoms: C_3  and  C_4
REMARK    3  A    between atoms: N_5  and  N_6
REMARK    4  A    between atoms: C_7  and  C_9
REMARK                            x       y       z     vdW  Elec       q    Type
REMARK                         _______ _______ _______ _____ _____    ______ ____
ROOT
ATOM      1  C   UNL     1       1.787   5.390  20.776  0.00  0.00    +0.000 C 
ATOM      2  C   UNL     1       2.602   5.682  19.552  0.00  0.00    +0.000 A 
ATOM      3  C   UNL     1       2.587   6.882  18.814  0.00  0.00    +0.000 A 
ATOM      4  N   UNL     1       3.424   7.073  17.717  0.00  0.00    +0.000 N 
ATOM      5  O   UNL     1       3.437   8.184  17.087  0.00  0.00    +0.000 OA
ATOM      6  C   UNL     1       4.251   6.012  17.287  0.00  0.00    +0.000 A 
ATOM      7  C   UNL     1       5.074   6.129  16.141  0.00  0.00    +0.000 A 
ATOM      8  C   UNL     1       5.858   5.061  15.711  0.00  0.00    +0.000 A 
ATOM      9 CL   UNL     1       6.825   5.218  14.298  0.00  0.00    +0.000 Cl
ATOM     10  C   UNL     1       5.856   3.860  16.410  0.00  0.00    +0.000 A 
ATOM     11  C   UNL     1       5.066   3.731  17.553  0.00  0.00    +0.000 A 
ATOM     12  C   UNL     1       4.249   4.794  18.002  0.00  0.00    +0.000 A 
ATOM     13  N   UNL     1       3.440   4.647  19.146  0.00  0.00    +0.000 N 
ATOM     14  O   UNL     1       3.481   3.557  19.811  0.00  0.00    +0.000 OA
ENDROOT
BRANCH   3  15
ATOM     15  C   UNL     1       1.661   7.999  19.085  0.00  0.00    +0.000 C 
ATOM     16  N   UNL     1       1.624   8.510  20.270  0.00  0.00    +0.000 NA
BRANCH  16  17
ATOM     17  N   UNL     1       0.791   9.554  20.508  0.00  0.00    +0.000 N 
ATOM     18  C   UNL     1       0.620   9.936  21.834  0.00  0.00    +0.000 C 
ATOM     19  O   UNL     1       1.165   9.386  22.790  0.00  0.00    +0.000 OA
ATOM     20  H   UNL     1       0.432  10.099  19.733  0.00  0.00    +0.000 HD
BRANCH  18  21
ATOM     21  C   UNL     1      -0.249  11.111  22.097  0.00  0.00    +0.000 A 
ATOM     22  C   UNL     1      -1.288  11.089  23.023  0.00  0.00    +0.000 A 
ATOM     23  C   UNL     1      -2.011  12.256  23.205  0.00  0.00    +0.000 A 
ATOM     24  N   UNL     1      -1.766  13.406  22.539  0.00  0.00    +0.000 NA
ATOM     25  C   UNL     1      -0.741  13.403  21.662  0.00  0.00    +0.000 A 
ATOM     26  C   UNL     1       0.040  12.293  21.410  0.00  0.00    +0.000 A 
ENDBRANCH  18  21
ENDBRANCH  16  17
ENDBRANCH   3  15
TORSDOF 3
ENDMDL
MODEL 9
REMARK VINA RESULT:      -7.0      7.896      9.694
REMARK  Name = 
REMARK  4 active torsions:
REMARK  status: ('A' for Active; 'I' for Inactive)
REMARK    1  A    between atoms: C_1  and  C_2
REMARK    2  A    between atoms: C_3  and  C_4
REMARK    3  A    between atoms: N_5  and  N_6
REMARK    4  A    between atoms: C_7  and  C_9
REMARK                            x       y       z     vdW  Elec       q    Type
REMARK                         _______ _______ _______ _____ _____    ______ ____
ROOT
ATOM      1  C   UNL     1       1.257  11.432  20.605  0.00  0.00    +0.000 C 
ATOM      2  C   UNL     1      -0.023  11.288  19.837  0.00  0.00    +0.000 A 
ATOM      3  C   UNL     1      -0.208  10.518  18.672  0.00  0.00    +0.000 A 
ATOM      4  N   UNL     1      -1.455  10.408  18.061  0.00  0.00    +0.000 N 
ATOM      5  O   UNL     1      -1.620   9.665  17.035  0.00  0.00    +0.000 OA
ATOM      6  C   UNL     1      -2.542  11.149  18.574  0.00  0.00    +0.000 A 
ATOM      7  C   UNL     1      -3.815  11.125  17.955  0.00  0.00    +0.000 A 
ATOM      8  C   UNL     1      -4.868  11.888  18.455  0.00  0.00    +0.000 A 
ATOM      9 CL   UNL     1      -6.395  11.867  17.666  0.00  0.00    +0.000 Cl
ATOM     10  C   UNL     1      -4.690  12.680  19.583  0.00  0.00    +0.000 A 
ATOM     11  C   UNL     1      -3.448  12.702  20.218  0.00  0.00    +0.000 A 
ATOM     12  C   UNL     1      -2.359  11.949  19.723  0.00  0.00    +0.000 A 
ATOM     13  N   UNL     1      -1.103  11.994  20.361  0.00  0.00    +0.000 N 
ATOM     14  O   UNL     1      -0.961  12.686  21.425  0.00  0.00    +0.000 OA
ENDROOT
BRANCH   3  15
ATOM     15  C   UNL     1       0.887   9.821  17.969  0.00  0.00    +0.000 C 
ATOM     16  N   UNL     1       1.466   8.821  18.544  0.00  0.00    +0.000 NA
BRANCH  16  17
ATOM     17  N   UNL     1       2.454   8.167  17.883  0.00  0.00    +0.000 N 
ATOM     18  C   UNL     1       2.792   6.900  18.344  0.00  0.00    +0.000 C 
ATOM     19  O   UNL     1       2.261   6.348  19.308  0.00  0.00    +0.000 OA
ATOM     20  H   UNL     1       2.817   8.545  17.015  0.00  0.00    +0.000 HD
BRANCH  18  21
ATOM     21  C   UNL     1       3.836   6.157  17.593  0.00  0.00    +0.000 A 
ATOM     22  C   UNL     1       4.918   6.786  16.982  0.00  0.00    +0.000 A 
ATOM     23  C   UNL     1       5.844   5.986  16.336  0.00  0.00    +0.000 A 
ATOM     24  N   UNL     1       5.758   4.639  16.265  0.00  0.00    +0.000 NA
ATOM     25  C   UNL     1       4.709   4.056  16.881  0.00  0.00    +0.000 A 
ATOM     26  C   UNL     1       3.734   4.765  17.553  0.00  0.00    +0.000 A 
ENDBRANCH  18  21
ENDBRANCH  16  17
ENDBRANCH   3  15
TORSDOF 3
ENDMDL
