MODEL 1
REMARK VINA RESULT:      -7.8      0.000      0.000
REMARK  Name = 
REMARK  9 active torsions:
REMARK  status: ('A' for Active; 'I' for Inactive)
REMARK    1  A    between atoms: C_1  and  C_2
REMARK    2  A    between atoms: C_2  and  C_3
REMARK    3  A    between atoms: C_2  and  C_4
REMARK    4  A    between atoms: C_2  and  O_5
REMARK    5  A    between atoms: O_5  and  C_6
REMARK    6  A    between atoms: C_11  and  N_12
REMARK    7  A    between atoms: C_16  and  O_17
REMARK    8  A    between atoms: O_17  and  C_18
REMARK    9  A    between atoms: C_23  and  C_24
REMARK                            x       y       z     vdW  Elec       q    Type
REMARK                         _______ _______ _______ _____ _____    ______ ____
ROOT
ATOM      1  N   UNL     1       1.041   9.832  19.478  0.00  0.00    +0.000 N 
ATOM      2  N   UNL     1       0.716   9.500  20.751  0.00  0.00    +0.000 NA
ATOM      3  C   UNL     1       1.291   8.308  20.932  0.00  0.00    +0.000 A 
ATOM      4  C   UNL     1       1.960   7.855  19.786  0.00  0.00    +0.000 A 
ATOM      5  C   UNL     1       2.677   6.741  19.368  0.00  0.00    +0.000 A 
ATOM      6  N   UNL     1       3.198   6.712  18.116  0.00  0.00    +0.000 NA
ATOM      7  C   UNL     1       2.936   7.753  17.303  0.00  0.00    +0.000 A 
ATOM      8  N   UNL     1       2.230   8.862  17.583  0.00  0.00    +0.000 NA
ATOM      9  C   UNL     1       1.774   8.856  18.848  0.00  0.00    +0.000 A 
ENDROOT
BRANCH   1  15
ATOM     10  C   UNL     1      -1.533  13.699  21.512  0.00  0.00    +0.000 C 
ATOM     11  O   UNL     1      -0.928  14.533  22.172  0.00  0.00    +0.000 OA
ATOM     12  N   UNL     1      -0.879  12.729  20.773  0.00  0.00    +0.000 N 
ATOM     13  C   UNL     1       0.560  12.601  20.967  0.00  0.00    +0.000 C 
ATOM     14  C   UNL     1       1.274  12.299  19.658  0.00  0.00    +0.000 C 
ATOM     15  C   UNL     1       0.649  11.116  18.912  0.00  0.00    +0.000 C 
ATOM     16  C   UNL     1      -0.872  11.279  18.782  0.00  0.00    +0.000 C 
ATOM     17  C   UNL     1      -1.554  11.622  20.109  0.00  0.00    +0.000 C 
BRANCH  10  18
ATOM     18  O   UNL     1      -2.889  13.656  21.411  0.00  0.00    +0.000 OA
BRANCH  18  20
ATOM     19  C   UNL     1      -3.906  14.603  23.437  0.00  0.00    +0.000 C 
ATOM     20  C   UNL     1      -3.657  13.334  22.604  0.00  0.00    +0.000 C 
ATOM     21  C   UNL     1      -2.995  12.210  23.414  0.00  0.00    +0.000 C 
ATOM     22  C   UNL     1      -5.024  12.818  22.125  0.00  0.00    +0.000 C 
ENDBRANCH  18  20
ENDBRANCH  10  18
ENDBRANCH   1  15
BRANCH   5  23
ATOM     23  O   UNL     1       2.861   5.664  20.225  0.00  0.00    +0.000 OA
BRANCH  23  24
ATOM     24  C   UNL     1       2.429   4.427  19.791  0.00  0.00    +0.000 A 
ATOM     25  C   UNL     1       1.088   4.027  19.879  0.00  0.00    +0.000 A 
ATOM     26  C   UNL     1       0.687   2.775  19.417  0.00  0.00    +0.000 A 
ATOM     27  C   UNL     1       1.629   1.886  18.904  0.00  0.00    +0.000 A 
ATOM     28  C   UNL     1       2.978   2.255  18.865  0.00  0.00    +0.000 A 
ATOM     29  C   UNL     1       3.384   3.523  19.312  0.00  0.00    +0.000 A 
BRANCH  29  30
ATOM     30  C   UNL     1       4.780   3.858  19.276  0.00  0.00    +0.000 C 
ATOM     31  N   UNL     1       5.902   4.154  19.237  0.00  0.00    +0.000 NA
ENDBRANCH  29  30
ENDBRANCH  23  24
ENDBRANCH   5  23
TORSDOF 6
ENDMDL
MODEL 2
REMARK VINA RESULT:      -7.7      1.049      1.486
REMARK  Name = 
REMARK  9 active torsions:
REMARK  status: ('A' for Active; 'I' for Inactive)
REMARK    1  A    between atoms: C_1  and  C_2
REMARK    2  A    between atoms: C_2  and  C_3
REMARK    3  A    between atoms: C_2  and  C_4
REMARK    4  A    between atoms: C_2  and  O_5
REMARK    5  A    between atoms: O_5  and  C_6
REMARK    6  A    between atoms: C_11  and  N_12
REMARK    7  A    between atoms: C_16  and  O_17
REMARK    8  A    between atoms: O_17  and  C_18
REMARK    9  A    between atoms: C_23  and  C_24
REMARK                            x       y       z     vdW  Elec       q    Type
REMARK                         _______ _______ _______ _____ _____    ______ ____
ROOT
ATOM      1  N   UNL     1       0.694   9.743  19.850  0.00  0.00    +0.000 N 
ATOM      2  N   UNL     1       0.461   9.295  21.108  0.00  0.00    +0.000 NA
ATOM      3  C   UNL     1       1.173   8.167  21.186  0.00  0.00    +0.000 A 
ATOM      4  C   UNL     1       1.841   7.869  19.990  0.00  0.00    +0.000 A 
ATOM      5  C   UNL     1       2.660   6.874  19.472  0.00  0.00    +0.000 A 
ATOM      6  N   UNL     1       3.129   6.987  18.204  0.00  0.00    +0.000 NA
ATOM      7  C   UNL     1       2.719   8.041  17.474  0.00  0.00    +0.000 A 
ATOM      8  N   UNL     1       1.905   9.041  17.854  0.00  0.00    +0.000 NA
ATOM      9  C   UNL     1       1.505   8.901  19.130  0.00  0.00    +0.000 A 
ENDROOT
BRANCH   1  15
ATOM     10  C   UNL     1       0.070  14.164  22.256  0.00  0.00    +0.000 C 
ATOM     11  O   UNL     1       1.004  14.954  22.298  0.00  0.00    +0.000 OA
ATOM     12  N   UNL     1       0.100  13.030  21.464  0.00  0.00    +0.000 N 
ATOM     13  C   UNL     1       1.368  12.694  20.829  0.00  0.00    +0.000 C 
ATOM     14  C   UNL     1       1.161  12.146  19.425  0.00  0.00    +0.000 C 
ATOM     15  C   UNL     1       0.137  11.008  19.388  0.00  0.00    +0.000 C 
ATOM     16  C   UNL     1      -1.158  11.398  20.114  0.00  0.00    +0.000 C 
ATOM     17  C   UNL     1      -0.912  11.982  21.507  0.00  0.00    +0.000 C 
BRANCH  10  18
ATOM     18  O   UNL     1      -1.089  14.328  22.949  0.00  0.00    +0.000 OA
BRANCH  18  20
ATOM     19  C   UNL     1      -1.933  15.542  20.987  0.00  0.00    +0.000 C 
ATOM     20  C   UNL     1      -2.010  15.367  22.513  0.00  0.00    +0.000 C 
ATOM     21  C   UNL     1      -1.781  16.679  23.276  0.00  0.00    +0.000 C 
ATOM     22  C   UNL     1      -3.426  14.873  22.852  0.00  0.00    +0.000 C 
ENDBRANCH  18  20
ENDBRANCH  10  18
ENDBRANCH   1  15
BRANCH   5  23
ATOM     23  O   UNL     1       2.999   5.773  20.246  0.00  0.00    +0.000 OA
BRANCH  23  24
ATOM     24  C   UNL     1       2.526   4.541  19.839  0.00  0.00    +0.000 A 
ATOM     25  C   UNL     1       1.189   4.155  20.016  0.00  0.00    +0.000 A 
ATOM     26  C   UNL     1       0.745   2.909  19.579  0.00  0.00    +0.000 A 
ATOM     27  C   UNL     1       1.641   2.012  19.001  0.00  0.00    +0.000 A 
ATOM     28  C   UNL     1       2.988   2.367  18.872  0.00  0.00    +0.000 A 
ATOM     29  C   UNL     1       3.437   3.629  19.294  0.00  0.00    +0.000 A 
BRANCH  29  30
ATOM     30  C   UNL     1       4.831   3.950  19.165  0.00  0.00    +0.000 C 
ATOM     31  N   UNL     1       5.952   4.222  19.037  0.00  0.00    +0.000 NA
ENDBRANCH  29  30
ENDBRANCH  23  24
ENDBRANCH   5  23
TORSDOF 6
ENDMDL
MODEL 3
REMARK VINA RESULT:      -7.4      1.572      2.074
REMARK  Name = 
REMARK  9 active torsions:
REMARK  status: ('A' for Active; 'I' for Inactive)
REMARK    1  A    between atoms: C_1  and  C_2
REMARK    2  A    between atoms: C_2  and  C_3
REMARK    3  A    between atoms: C_2  and  C_4
REMARK    4  A    between atoms: C_2  and  O_5
REMARK    5  A    between atoms: O_5  and  C_6
REMARK    6  A    between atoms: C_11  and  N_12
REMARK    7  A    between atoms: C_16  and  O_17
REMARK    8  A    between atoms: O_17  and  C_18
REMARK    9  A    between atoms: C_23  and  C_24
REMARK                            x       y       z     vdW  Elec       q    Type
REMARK                         _______ _______ _______ _____ _____    ______ ____
ROOT
ATOM      1  N   UNL     1       0.837  10.070  19.868  0.00  0.00    +0.000 N 
ATOM      2  N   UNL     1       0.596   9.715  21.155  0.00  0.00    +0.000 NA
ATOM      3  C   UNL     1       1.169   8.514  21.271  0.00  0.00    +0.000 A 
ATOM      4  C   UNL     1       1.753   8.078  20.073  0.00  0.00    +0.000 A 
ATOM      5  C   UNL     1       2.427   6.966  19.585  0.00  0.00    +0.000 A 
ATOM      6  N   UNL     1       2.860   6.959  18.299  0.00  0.00    +0.000 NA
ATOM      7  C   UNL     1       2.555   8.018  17.527  0.00  0.00    +0.000 A 
ATOM      8  N   UNL     1       1.882   9.128  17.877  0.00  0.00    +0.000 NA
ATOM      9  C   UNL     1       1.514   9.100  19.170  0.00  0.00    +0.000 A 
ENDROOT
BRANCH   1  15
ATOM     10  C   UNL     1      -3.670  12.390  19.996  0.00  0.00    +0.000 C 
ATOM     11  O   UNL     1      -3.978  13.037  20.989  0.00  0.00    +0.000 OA
ATOM     12  N   UNL     1      -2.394  11.891  19.808  0.00  0.00    +0.000 N 
ATOM     13  C   UNL     1      -1.470  11.984  20.932  0.00  0.00    +0.000 C 
ATOM     14  C   UNL     1      -0.059  12.308  20.467  0.00  0.00    +0.000 C 
ATOM     15  C   UNL     1       0.421  11.369  19.357  0.00  0.00    +0.000 C 
ATOM     16  C   UNL     1      -0.612  11.270  18.225  0.00  0.00    +0.000 C 
ATOM     17  C   UNL     1      -2.028  10.982  18.729  0.00  0.00    +0.000 C 
BRANCH  10  18
ATOM     18  O   UNL     1      -4.528  12.124  18.974  0.00  0.00    +0.000 OA
BRANCH  18  20
ATOM     19  C   UNL     1      -6.152  13.913  19.419  0.00  0.00    +0.000 C 
ATOM     20  C   UNL     1      -5.941  12.410  19.170  0.00  0.00    +0.000 C 
ATOM     21  C   UNL     1      -6.546  11.532  20.274  0.00  0.00    +0.000 C 
ATOM     22  C   UNL     1      -6.651  12.055  17.852  0.00  0.00    +0.000 C 
ENDBRANCH  18  20
ENDBRANCH  10  18
ENDBRANCH   1  15
BRANCH   5  23
ATOM     23  O   UNL     1       2.657   5.870  20.404  0.00  0.00    +0.000 OA
BRANCH  23  24
ATOM     24  C   UNL     1       2.300   4.628  19.919  0.00  0.00    +0.000 A 
ATOM     25  C   UNL     1       0.991   4.133  20.015  0.00  0.00    +0.000 A 
ATOM     26  C   UNL     1       0.664   2.880  19.501  0.00  0.00    +0.000 A 
ATOM     27  C   UNL     1       1.652   2.084  18.926  0.00  0.00    +0.000 A 
ATOM     28  C   UNL     1       2.972   2.545  18.877  0.00  0.00    +0.000 A 
ATOM     29  C   UNL     1       3.302   3.815  19.378  0.00  0.00    +0.000 A 
BRANCH  29  30
ATOM     30  C   UNL     1       4.671   4.247  19.330  0.00  0.00    +0.000 C 
ATOM     31  N   UNL     1       5.785   4.569  19.291  0.00  0.00    +0.000 NA
ENDBRANCH  29  30
ENDBRANCH  23  24
ENDBRANCH   5  23
TORSDOF 6
ENDMDL
MODEL 4
REMARK VINA RESULT:      -7.4      2.788      4.534
REMARK  Name = 
REMARK  9 active torsions:
REMARK  status: ('A' for Active; 'I' for Inactive)
REMARK    1  A    between atoms: C_1  and  C_2
REMARK    2  A    between atoms: C_2  and  C_3
REMARK    3  A    between atoms: C_2  and  C_4
REMARK    4  A    between atoms: C_2  and  O_5
REMARK    5  A    between atoms: O_5  and  C_6
REMARK    6  A    between atoms: C_11  and  N_12
REMARK    7  A    between atoms: C_16  and  O_17
REMARK    8  A    between atoms: O_17  and  C_18
REMARK    9  A    between atoms: C_23  and  C_24
REMARK                            x       y       z     vdW  Elec       q    Type
REMARK                         _______ _______ _______ _____ _____    ______ ____
ROOT
ATOM      1  N   UNL     1       1.134   9.387  19.358  0.00  0.00    +0.000 N 
ATOM      2  N   UNL     1       1.600   9.775  18.146  0.00  0.00    +0.000 NA
ATOM      3  C   UNL     1       2.294   8.719  17.714  0.00  0.00    +0.000 A 
ATOM      4  C   UNL     1       2.304   7.666  18.640  0.00  0.00    +0.000 A 
ATOM      5  C   UNL     1       2.851   6.396  18.770  0.00  0.00    +0.000 A 
ATOM      6  N   UNL     1       2.583   5.664  19.880  0.00  0.00    +0.000 NA
ATOM      7  C   UNL     1       1.841   6.236  20.847  0.00  0.00    +0.000 A 
ATOM      8  N   UNL     1       1.291   7.463  20.848  0.00  0.00    +0.000 NA
ATOM      9  C   UNL     1       1.554   8.127  19.708  0.00  0.00    +0.000 A 
ENDROOT
BRANCH   1  15
ATOM     10  C   UNL     1       0.494  14.417  19.247  0.00  0.00    +0.000 C 
ATOM     11  O   UNL     1      -0.283  14.898  18.433  0.00  0.00    +0.000 OA
ATOM     12  N   UNL     1       0.579  13.053  19.465  0.00  0.00    +0.000 N 
ATOM     13  C   UNL     1      -0.144  12.184  18.545  0.00  0.00    +0.000 C 
ATOM     14  C   UNL     1      -0.758  10.995  19.269  0.00  0.00    +0.000 C 
ATOM     15  C   UNL     1       0.260  10.252  20.139  0.00  0.00    +0.000 C 
ATOM     16  C   UNL     1       1.027  11.222  21.050  0.00  0.00    +0.000 C 
ATOM     17  C   UNL     1       1.597  12.426  20.298  0.00  0.00    +0.000 C 
BRANCH  10  18
ATOM     18  O   UNL     1       1.321  15.159  20.032  0.00  0.00    +0.000 OA
BRANCH  18  20
ATOM     19  C   UNL     1       1.910  17.350  19.089  0.00  0.00    +0.000 C 
ATOM     20  C   UNL     1       2.382  15.918  19.388  0.00  0.00    +0.000 C 
ATOM     21  C   UNL     1       2.915  15.194  18.143  0.00  0.00    +0.000 C 
ATOM     22  C   UNL     1       3.536  16.012  20.401  0.00  0.00    +0.000 C 
ENDBRANCH  18  20
ENDBRANCH  10  18
ENDBRANCH   1  15
BRANCH   5  23
ATOM     23  O   UNL     1       3.665   5.878  17.773  0.00  0.00    +0.000 OA
BRANCH  23  24
ATOM     24  C   UNL     1       5.020   6.128  17.865  0.00  0.00    +0.000 A 
ATOM     25  C   UNL     1       5.620   7.243  17.260  0.00  0.00    +0.000 A 
ATOM     26  C   UNL     1       6.988   7.471  17.388  0.00  0.00    +0.000 A 
ATOM     27  C   UNL     1       7.785   6.562  18.081  0.00  0.00    +0.000 A 
ATOM     28  C   UNL     1       7.205   5.418  18.639  0.00  0.00    +0.000 A 
ATOM     29  C   UNL     1       5.822   5.194  18.529  0.00  0.00    +0.000 A 
BRANCH  29  30
ATOM     30  C   UNL     1       5.265   3.998  19.096  0.00  0.00    +0.000 C 
ATOM     31  N   UNL     1       4.792   3.037  19.543  0.00  0.00    +0.000 NA
ENDBRANCH  29  30
ENDBRANCH  23  24
ENDBRANCH   5  23
TORSDOF 6
ENDMDL
MODEL 5
REMARK VINA RESULT:      -7.3      1.793      2.343
REMARK  Name = 
REMARK  9 active torsions:
REMARK  status: ('A' for Active; 'I' for Inactive)
REMARK    1  A    between atoms: C_1  and  C_2
REMARK    2  A    between atoms: C_2  and  C_3
REMARK    3  A    between atoms: C_2  and  C_4
REMARK    4  A    between atoms: C_2  and  O_5
REMARK    5  A    between atoms: O_5  and  C_6
REMARK    6  A    between atoms: C_11  and  N_12
REMARK    7  A    between atoms: C_16  and  O_17
REMARK    8  A    between atoms: O_17  and  C_18
REMARK    9  A    between atoms: C_23  and  C_24
REMARK                            x       y       z     vdW  Elec       q    Type
REMARK                         _______ _______ _______ _____ _____    ______ ____
ROOT
ATOM      1  N   UNL     1      -0.200  10.165  20.522  0.00  0.00    +0.000 N 
ATOM      2  N   UNL     1      -0.111   9.498  21.699  0.00  0.00    +0.000 NA
ATOM      3  C   UNL     1       0.801   8.550  21.464  0.00  0.00    +0.000 A 
ATOM      4  C   UNL     1       1.282   8.580  20.148  0.00  0.00    +0.000 A 
ATOM      5  C   UNL     1       2.163   7.871  19.342  0.00  0.00    +0.000 A 
ATOM      6  N   UNL     1       2.362   8.266  18.059  0.00  0.00    +0.000 NA
ATOM      7  C   UNL     1       1.636   9.303  17.601  0.00  0.00    +0.000 A 
ATOM      8  N   UNL     1       0.734  10.039  18.273  0.00  0.00    +0.000 NA
ATOM      9  C   UNL     1       0.608   9.631  19.549  0.00  0.00    +0.000 A 
ENDROOT
BRANCH   1  15
ATOM     10  C   UNL     1       0.163  14.795  22.560  0.00  0.00    +0.000 C 
ATOM     11  O   UNL     1       0.860  15.635  22.006  0.00  0.00    +0.000 OA
ATOM     12  N   UNL     1      -0.136  13.581  21.970  0.00  0.00    +0.000 N 
ATOM     13  C   UNL     1       0.577  13.242  20.744  0.00  0.00    +0.000 C 
ATOM     14  C   UNL     1      -0.328  12.525  19.753  0.00  0.00    +0.000 C 
ATOM     15  C   UNL     1      -1.057  11.335  20.385  0.00  0.00    +0.000 C 
ATOM     16  C   UNL     1      -1.746  11.736  21.697  0.00  0.00    +0.000 C 
ATOM     17  C   UNL     1      -0.820  12.491  22.654  0.00  0.00    +0.000 C 
BRANCH  10  18
ATOM     18  O   UNL     1      -0.408  14.976  23.782  0.00  0.00    +0.000 OA
BRANCH  18  20
ATOM     19  C   UNL     1      -2.350  15.897  22.592  0.00  0.00    +0.000 C 
ATOM     20  C   UNL     1      -1.524  15.903  23.889  0.00  0.00    +0.000 C 
ATOM     21  C   UNL     1      -1.051  17.309  24.288  0.00  0.00    +0.000 C 
ATOM     22  C   UNL     1      -2.428  15.379  25.017  0.00  0.00    +0.000 C 
ENDBRANCH  18  20
ENDBRANCH  10  18
ENDBRANCH   1  15
BRANCH   5  23
ATOM     23  O   UNL     1       2.837   6.766  19.844  0.00  0.00    +0.000 OA
BRANCH  23  24
ATOM     24  C   UNL     1       2.271   5.526  19.628  0.00  0.00    +0.000 A 
ATOM     25  C   UNL     1       1.331   4.967  20.507  0.00  0.00    +0.000 A 
ATOM     26  C   UNL     1       0.771   3.717  20.249  0.00  0.00    +0.000 A 
ATOM     27  C   UNL     1       1.177   2.988  19.134  0.00  0.00    +0.000 A 
ATOM     28  C   UNL     1       2.156   3.512  18.283  0.00  0.00    +0.000 A 
ATOM     29  C   UNL     1       2.710   4.779  18.529  0.00  0.00    +0.000 A 
BRANCH  29  30
ATOM     30  C   UNL     1       3.728   5.276  17.646  0.00  0.00    +0.000 C 
ATOM     31  N   UNL     1       4.531   5.687  16.916  0.00  0.00    +0.000 NA
ENDBRANCH  29  30
ENDBRANCH  23  24
ENDBRANCH   5  23
TORSDOF 6
ENDMDL
MODEL 6
REMARK VINA RESULT:      -7.3      2.869      4.642
REMARK  Name = 
REMARK  9 active torsions:
REMARK  status: ('A' for Active; 'I' for Inactive)
REMARK    1  A    between atoms: C_1  and  C_2
REMARK    2  A    between atoms: C_2  and  C_3
REMARK    3  A    between atoms: C_2  and  C_4
REMARK    4  A    between atoms: C_2  and  O_5
REMARK    5  A    between atoms: O_5  and  C_6
REMARK    6  A    between atoms: C_11  and  N_12
REMARK    7  A    between atoms: C_16  and  O_17
REMARK    8  A    between atoms: O_17  and  C_18
REMARK    9  A    between atoms: C_23  and  C_24
REMARK                            x       y       z     vdW  Elec       q    Type
REMARK                         _______ _______ _______ _____ _____    ______ ____
ROOT
ATOM      1  N   UNL     1       1.372   8.605  19.505  0.00  0.00    +0.000 N 
ATOM      2  N   UNL     1       1.985   9.081  18.394  0.00  0.00    +0.000 NA
ATOM      3  C   UNL     1       2.747   8.063  17.983  0.00  0.00    +0.000 A 
ATOM      4  C   UNL     1       2.653   6.948  18.827  0.00  0.00    +0.000 A 
ATOM      5  C   UNL     1       3.199   5.675  18.939  0.00  0.00    +0.000 A 
ATOM      6  N   UNL     1       2.801   4.864  19.951  0.00  0.00    +0.000 NA
ATOM      7  C   UNL     1       1.932   5.361  20.850  0.00  0.00    +0.000 A 
ATOM      8  N   UNL     1       1.367   6.581  20.865  0.00  0.00    +0.000 NA
ATOM      9  C   UNL     1       1.764   7.326  19.818  0.00  0.00    +0.000 A 
ENDROOT
BRANCH   1  15
ATOM     10  C   UNL     1       0.307  13.556  19.241  0.00  0.00    +0.000 C 
ATOM     11  O   UNL     1      -0.469  13.951  18.381  0.00  0.00    +0.000 OA
ATOM     12  N   UNL     1       0.499  12.210  19.497  0.00  0.00    +0.000 N 
ATOM     13  C   UNL     1      -0.102  11.263  18.566  0.00  0.00    +0.000 C 
ATOM     14  C   UNL     1      -0.645  10.039  19.290  0.00  0.00    +0.000 C 
ATOM     15  C   UNL     1       0.391   9.406  20.224  0.00  0.00    +0.000 C 
ATOM     16  C   UNL     1       1.027  10.457  21.145  0.00  0.00    +0.000 C 
ATOM     17  C   UNL     1       1.527  11.692  20.391  0.00  0.00    +0.000 C 
BRANCH  10  18
ATOM     18  O   UNL     1       1.028  14.384  20.045  0.00  0.00    +0.000 OA
BRANCH  18  20
ATOM     19  C   UNL     1       1.585  16.578  19.091  0.00  0.00    +0.000 C 
ATOM     20  C   UNL     1       2.093  15.170  19.442  0.00  0.00    +0.000 C 
ATOM     21  C   UNL     1       2.718  14.445  18.242  0.00  0.00    +0.000 C 
ATOM     22  C   UNL     1       3.187  15.327  20.512  0.00  0.00    +0.000 C 
ENDBRANCH  18  20
ENDBRANCH  10  18
ENDBRANCH   1  15
BRANCH   5  23
ATOM     23  O   UNL     1       4.144   5.235  18.023  0.00  0.00    +0.000 OA
BRANCH  23  24
ATOM     24  C   UNL     1       5.456   5.607  18.235  0.00  0.00    +0.000 A 
ATOM     25  C   UNL     1       6.125   5.346  19.441  0.00  0.00    +0.000 A 
ATOM     26  C   UNL     1       7.455   5.724  19.613  0.00  0.00    +0.000 A 
ATOM     27  C   UNL     1       8.121   6.412  18.601  0.00  0.00    +0.000 A 
ATOM     28  C   UNL     1       7.445   6.727  17.417  0.00  0.00    +0.000 A 
ATOM     29  C   UNL     1       6.110   6.331  17.232  0.00  0.00    +0.000 A 
BRANCH  29  30
ATOM     30  C   UNL     1       5.442   6.691  16.013  0.00  0.00    +0.000 C 
ATOM     31  N   UNL     1       4.921   6.970  15.014  0.00  0.00    +0.000 NA
ENDBRANCH  29  30
ENDBRANCH  23  24
ENDBRANCH   5  23
TORSDOF 6
ENDMDL
MODEL 7
REMARK VINA RESULT:      -7.2      2.479      3.825
REMARK  Name = 
REMARK  9 active torsions:
REMARK  status: ('A' for Active; 'I' for Inactive)
REMARK    1  A    between atoms: C_1  and  C_2
REMARK    2  A    between atoms: C_2  and  C_3
REMARK    3  A    between atoms: C_2  and  C_4
REMARK    4  A    between atoms: C_2  and  O_5
REMARK    5  A    between atoms: O_5  and  C_6
REMARK    6  A    between atoms: C_11  and  N_12
REMARK    7  A    between atoms: C_16  and  O_17
REMARK    8  A    between atoms: O_17  and  C_18
REMARK    9  A    between atoms: C_23  and  C_24
REMARK                            x       y       z     vdW  Elec       q    Type
REMARK                         _______ _______ _______ _____ _____    ______ ____
ROOT
ATOM      1  N   UNL     1       0.549  10.229  19.324  0.00  0.00    +0.000 N 
ATOM      2  N   UNL     1       1.087  10.446  18.098  0.00  0.00    +0.000 NA
ATOM      3  C   UNL     1       1.855   9.373  17.888  0.00  0.00    +0.000 A 
ATOM      4  C   UNL     1       1.839   8.480  18.969  0.00  0.00    +0.000 A 
ATOM      5  C   UNL     1       2.426   7.277  19.337  0.00  0.00    +0.000 A 
ATOM      6  N   UNL     1       2.107   6.714  20.529  0.00  0.00    +0.000 NA
ATOM      7  C   UNL     1       1.273   7.392  21.341  0.00  0.00    +0.000 A 
ATOM      8  N   UNL     1       0.675   8.573  21.109  0.00  0.00    +0.000 NA
ATOM      9  C   UNL     1       0.993   9.063  19.897  0.00  0.00    +0.000 A 
ENDROOT
BRANCH   1  15
ATOM     10  C   UNL     1       0.322  15.292  19.143  0.00  0.00    +0.000 C 
ATOM     11  O   UNL     1      -0.209  15.829  18.180  0.00  0.00    +0.000 OA
ATOM     12  N   UNL     1       0.255  13.927  19.355  0.00  0.00    +0.000 N 
ATOM     13  C   UNL     1      -0.299  13.112  18.281  0.00  0.00    +0.000 C 
ATOM     14  C   UNL     1      -1.148  11.974  18.827  0.00  0.00    +0.000 C 
ATOM     15  C   UNL     1      -0.415  11.159  19.896  0.00  0.00    +0.000 C 
ATOM     16  C   UNL     1       0.191  12.071  20.973  0.00  0.00    +0.000 C 
ATOM     17  C   UNL     1       1.006  13.227  20.390  0.00  0.00    +0.000 C 
BRANCH  10  18
ATOM     18  O   UNL     1       0.999  15.973  20.108  0.00  0.00    +0.000 OA
BRANCH  18  20
ATOM     19  C   UNL     1       1.459  18.306  19.490  0.00  0.00    +0.000 C 
ATOM     20  C   UNL     1       2.043  16.897  19.693  0.00  0.00    +0.000 C 
ATOM     21  C   UNL     1       2.795  16.380  18.459  0.00  0.00    +0.000 C 
ATOM     22  C   UNL     1       3.050  16.976  20.853  0.00  0.00    +0.000 C 
ENDBRANCH  18  20
ENDBRANCH  10  18
ENDBRANCH   1  15
BRANCH   5  23
ATOM     23  O   UNL     1       3.333   6.652  18.492  0.00  0.00    +0.000 OA
BRANCH  23  24
ATOM     24  C   UNL     1       3.169   5.299  18.274  0.00  0.00    +0.000 A 
ATOM     25  C   UNL     1       1.963   4.754  17.807  0.00  0.00    +0.000 A 
ATOM     26  C   UNL     1       1.840   3.385  17.585  0.00  0.00    +0.000 A 
ATOM     27  C   UNL     1       2.905   2.533  17.871  0.00  0.00    +0.000 A 
ATOM     28  C   UNL     1       4.092   3.061  18.390  0.00  0.00    +0.000 A 
ATOM     29  C   UNL     1       4.227   4.443  18.599  0.00  0.00    +0.000 A 
BRANCH  29  30
ATOM     30  C   UNL     1       5.453   4.946  19.153  0.00  0.00    +0.000 C 
ATOM     31  N   UNL     1       6.442   5.333  19.620  0.00  0.00    +0.000 NA
ENDBRANCH  29  30
ENDBRANCH  23  24
ENDBRANCH   5  23
TORSDOF 6
ENDMDL
MODEL 8
REMARK VINA RESULT:      -7.2      2.666      4.073
REMARK  Name = 
REMARK  9 active torsions:
REMARK  status: ('A' for Active; 'I' for Inactive)
REMARK    1  A    between atoms: C_1  and  C_2
REMARK    2  A    between atoms: C_2  and  C_3
REMARK    3  A    between atoms: C_2  and  C_4
REMARK    4  A    between atoms: C_2  and  O_5
REMARK    5  A    between atoms: O_5  and  C_6
REMARK    6  A    between atoms: C_11  and  N_12
REMARK    7  A    between atoms: C_16  and  O_17
REMARK    8  A    between atoms: O_17  and  C_18
REMARK    9  A    between atoms: C_23  and  C_24
REMARK                            x       y       z     vdW  Elec       q    Type
REMARK                         _______ _______ _______ _____ _____    ______ ____
ROOT
ATOM      1  N   UNL     1       0.967  10.226  19.177  0.00  0.00    +0.000 N 
ATOM      2  N   UNL     1       1.532  10.401  17.958  0.00  0.00    +0.000 NA
ATOM      3  C   UNL     1       2.162   9.246  17.725  0.00  0.00    +0.000 A 
ATOM      4  C   UNL     1       2.033   8.340  18.787  0.00  0.00    +0.000 A 
ATOM      5  C   UNL     1       2.466   7.066  19.130  0.00  0.00    +0.000 A 
ATOM      6  N   UNL     1       2.075   6.522  20.310  0.00  0.00    +0.000 NA
ATOM      7  C   UNL     1       1.329   7.280  21.135  0.00  0.00    +0.000 A 
ATOM      8  N   UNL     1       0.881   8.531  20.927  0.00  0.00    +0.000 NA
ATOM      9  C   UNL     1       1.262   9.004  19.727  0.00  0.00    +0.000 A 
ENDROOT
BRANCH   1  15
ATOM     10  C   UNL     1       1.660  15.232  19.609  0.00  0.00    +0.000 C 
ATOM     11  O   UNL     1       1.346  15.958  18.675  0.00  0.00    +0.000 OA
ATOM     12  N   UNL     1       1.329  13.889  19.642  0.00  0.00    +0.000 N 
ATOM     13  C   UNL     1       0.767  13.311  18.428  0.00  0.00    +0.000 C 
ATOM     14  C   UNL     1      -0.327  12.303  18.745  0.00  0.00    +0.000 C 
ATOM     15  C   UNL     1       0.123  11.256  19.769  0.00  0.00    +0.000 C 
ATOM     16  C   UNL     1       0.753  11.918  21.003  0.00  0.00    +0.000 C 
ATOM     17  C   UNL     1       1.820  12.955  20.648  0.00  0.00    +0.000 C 
BRANCH  10  18
ATOM     18  O   UNL     1       2.331  15.667  20.711  0.00  0.00    +0.000 OA
BRANCH  18  20
ATOM     19  C   UNL     1       3.913  17.530  20.459  0.00  0.00    +0.000 C 
ATOM     20  C   UNL     1       3.738  16.006  20.569  0.00  0.00    +0.000 C 
ATOM     21  C   UNL     1       4.386  15.246  19.402  0.00  0.00    +0.000 C 
ATOM     22  C   UNL     1       4.435  15.552  21.863  0.00  0.00    +0.000 C 
ENDBRANCH  18  20
ENDBRANCH  10  18
ENDBRANCH   1  15
BRANCH   5  23
ATOM     23  O   UNL     1       3.292   6.352  18.273  0.00  0.00    +0.000 OA
BRANCH  23  24
ATOM     24  C   UNL     1       3.134   4.981  18.236  0.00  0.00    +0.000 A 
ATOM     25  C   UNL     1       1.935   4.374  17.836  0.00  0.00    +0.000 A 
ATOM     26  C   UNL     1       1.818   2.986  17.796  0.00  0.00    +0.000 A 
ATOM     27  C   UNL     1       2.883   2.185  18.202  0.00  0.00    +0.000 A 
ATOM     28  C   UNL     1       4.064   2.782  18.657  0.00  0.00    +0.000 A 
ATOM     29  C   UNL     1       4.192   4.181  18.680  0.00  0.00    +0.000 A 
BRANCH  29  30
ATOM     30  C   UNL     1       5.411   4.758  19.173  0.00  0.00    +0.000 C 
ATOM     31  N   UNL     1       6.383   5.234  19.593  0.00  0.00    +0.000 NA
ENDBRANCH  29  30
ENDBRANCH  23  24
ENDBRANCH   5  23
TORSDOF 6
ENDMDL
MODEL 9
REMARK VINA RESULT:      -7.2      3.208      9.901
REMARK  Name = 
REMARK  9 active torsions:
REMARK  status: ('A' for Active; 'I' for Inactive)
REMARK    1  A    between atoms: C_1  and  C_2
REMARK    2  A    between atoms: C_2  and  C_3
REMARK    3  A    between atoms: C_2  and  C_4
REMARK    4  A    between atoms: C_2  and  O_5
REMARK    5  A    between atoms: O_5  and  C_6
REMARK    6  A    between atoms: C_11  and  N_12
REMARK    7  A    between atoms: C_16  and  O_17
REMARK    8  A    between atoms: O_17  and  C_18
REMARK    9  A    between atoms: C_23  and  C_24
REMARK                            x       y       z     vdW  Elec       q    Type
REMARK                         _______ _______ _______ _____ _____    ______ ____
ROOT
ATOM      1  N   UNL     1       2.936   6.687  18.774  0.00  0.00    +0.000 N 
ATOM      2  N   UNL     1       3.168   7.390  17.638  0.00  0.00    +0.000 NA
ATOM      3  C   UNL     1       2.505   8.535  17.825  0.00  0.00    +0.000 A 
ATOM      4  C   UNL     1       1.828   8.570  19.053  0.00  0.00    +0.000 A 
ATOM      5  C   UNL     1       0.990   9.423  19.758  0.00  0.00    +0.000 A 
ATOM      6  N   UNL     1       0.549   9.060  20.989  0.00  0.00    +0.000 NA
ATOM      7  C   UNL     1       0.897   7.843  21.448  0.00  0.00    +0.000 A 
ATOM      8  N   UNL     1       1.670   6.924  20.844  0.00  0.00    +0.000 NA
ATOM      9  C   UNL     1       2.112   7.352  19.648  0.00  0.00    +0.000 A 
ENDROOT
BRANCH   1  15
ATOM     10  C   UNL     1       6.747   4.382  16.349  0.00  0.00    +0.000 C 
ATOM     11  O   UNL     1       7.899   4.629  16.682  0.00  0.00    +0.000 OA
ATOM     12  N   UNL     1       5.659   4.821  17.081  0.00  0.00    +0.000 N 
ATOM     13  C   UNL     1       5.918   5.767  18.159  0.00  0.00    +0.000 C 
ATOM     14  C   UNL     1       5.033   5.494  19.365  0.00  0.00    +0.000 C 
ATOM     15  C   UNL     1       3.552   5.385  18.991  0.00  0.00    +0.000 C 
ATOM     16  C   UNL     1       3.344   4.416  17.818  0.00  0.00    +0.000 C 
ATOM     17  C   UNL     1       4.276   4.694  16.637  0.00  0.00    +0.000 C 
BRANCH  10  18
ATOM     18  O   UNL     1       6.420   3.637  15.258  0.00  0.00    +0.000 OA
BRANCH  18  20
ATOM     19  C   UNL     1       5.764   3.364  12.906  0.00  0.00    +0.000 C 
ATOM     20  C   UNL     1       6.386   4.294  13.961  0.00  0.00    +0.000 C 
ATOM     21  C   UNL     1       7.774   4.811  13.555  0.00  0.00    +0.000 C 
ATOM     22  C   UNL     1       5.461   5.514  14.108  0.00  0.00    +0.000 C 
ENDBRANCH  18  20
ENDBRANCH  10  18
ENDBRANCH   1  15
BRANCH   5  23
ATOM     23  O   UNL     1       0.605  10.639  19.211  0.00  0.00    +0.000 OA
BRANCH  23  24
ATOM     24  C   UNL     1      -0.692  10.747  18.753  0.00  0.00    +0.000 A 
ATOM     25  C   UNL     1      -1.168  10.002  17.663  0.00  0.00    +0.000 A 
ATOM     26  C   UNL     1      -2.489  10.128  17.239  0.00  0.00    +0.000 A 
ATOM     27  C   UNL     1      -3.340  11.034  17.866  0.00  0.00    +0.000 A 
ATOM     28  C   UNL     1      -2.858  11.823  18.917  0.00  0.00    +0.000 A 
ATOM     29  C   UNL     1      -1.533  11.686  19.360  0.00  0.00    +0.000 A 
BRANCH  29  30
ATOM     30  C   UNL     1      -1.067  12.528  20.427  0.00  0.00    +0.000 C 
ATOM     31  N   UNL     1      -0.693  13.187  21.306  0.00  0.00    +0.000 NA
ENDBRANCH  29  30
ENDBRANCH  23  24
ENDBRANCH   5  23
TORSDOF 6
ENDMDL
