MODEL 1
REMARK VINA RESULT:      -8.6      0.000      0.000
REMARK  Name = 
REMARK  4 active torsions:
REMARK  status: ('A' for Active; 'I' for Inactive)
REMARK    1  A    between atoms: C_4  and  C_5
REMARK    2  A    between atoms: C_8  and  N_9
REMARK    3  A    between atoms: C_21  and  C_22
REMARK    4  A    between atoms: C_25  and  N_26
REMARK                            x       y       z     vdW  Elec       q    Type
REMARK                         _______ _______ _______ _____ _____    ______ ____
ROOT
ATOM      1  O   UNL     1      -0.854  10.512  18.376  0.00  0.00    +0.000 OA
ATOM      2  C   UNL     1      -0.236  10.222  19.399  0.00  0.00    +0.000 C 
ATOM      3  C   UNL     1       0.788   9.118  19.410  0.00  0.00    +0.000 C 
ATOM      4  C   UNL     1       1.265   8.732  18.217  0.00  0.00    +0.000 C 
ATOM      5  C   UNL     1       1.219   8.529  20.726  0.00  0.00    +0.000 C 
ATOM      6  C   UNL     1       0.291   8.891  21.875  0.00  0.00    +0.000 C 
ATOM      7  C   UNL     1       0.134  10.402  21.952  0.00  0.00    +0.000 C 
ATOM      8  C   UNL     1      -0.465  10.956  20.692  0.00  0.00    +0.000 C 
ATOM      9  C   UNL     1      -1.207  12.081  20.636  0.00  0.00    +0.000 C 
ENDROOT
BRANCH   4  10
ATOM     10  C   UNL     1       2.276   7.686  18.014  0.00  0.00    +0.000 A 
ATOM     11  C   UNL     1       3.563   8.028  17.598  0.00  0.00    +0.000 A 
ATOM     12  C   UNL     1       4.525   7.032  17.409  0.00  0.00    +0.000 A 
ATOM     13  C   UNL     1       4.243   5.679  17.613  0.00  0.00    +0.000 A 
ATOM     14  C   UNL     1       2.944   5.353  18.037  0.00  0.00    +0.000 A 
ATOM     15  C   UNL     1       1.970   6.342  18.229  0.00  0.00    +0.000 A 
BRANCH  13  16
ATOM     16  N   UNL     1       5.201   4.703  17.423  0.00  0.00    +0.000 N 
ATOM     17  C   UNL     1       6.239   4.425  18.428  0.00  0.00    +0.000 C 
ATOM     18  C   UNL     1       7.634   4.806  17.915  0.00  0.00    +0.000 C 
ATOM     19  O   UNL     1       7.913   4.197  16.644  0.00  0.00    +0.000 OA
ATOM     20  C   UNL     1       6.948   4.628  15.670  0.00  0.00    +0.000 C 
ATOM     21  C   UNL     1       5.513   4.231  16.065  0.00  0.00    +0.000 C 
ENDBRANCH  13  16
ENDBRANCH   4  10
BRANCH   9  22
ATOM     22  C   UNL     1      -1.443  12.973  21.775  0.00  0.00    +0.000 A 
ATOM     23  C   UNL     1      -2.571  12.787  22.577  0.00  0.00    +0.000 A 
ATOM     24  C   UNL     1      -2.791  13.626  23.677  0.00  0.00    +0.000 A 
ATOM     25  C   UNL     1      -1.918  14.665  23.999  0.00  0.00    +0.000 A 
ATOM     26  C   UNL     1      -0.799  14.852  23.175  0.00  0.00    +0.000 A 
ATOM     27  C   UNL     1      -0.562  14.011  22.076  0.00  0.00    +0.000 A 
BRANCH  25  28
ATOM     28  N   UNL     1      -2.136  15.459  25.110  0.00  0.00    +0.000 N 
ATOM     29  C   UNL     1      -3.167  16.510  25.149  0.00  0.00    +0.000 C 
ATOM     30  C   UNL     1      -2.548  17.908  25.302  0.00  0.00    +0.000 C 
ATOM     31  O   UNL     1      -1.619  17.964  26.397  0.00  0.00    +0.000 OA
ATOM     32  C   UNL     1      -0.559  17.015  26.194  0.00  0.00    +0.000 C 
ATOM     33  C   UNL     1      -1.093  15.574  26.138  0.00  0.00    +0.000 C 
ENDBRANCH  25  28
ENDBRANCH   9  22
TORSDOF 4
ENDMDL
MODEL 2
REMARK VINA RESULT:      -8.6      0.349      1.224
REMARK  Name = 
REMARK  4 active torsions:
REMARK  status: ('A' for Active; 'I' for Inactive)
REMARK    1  A    between atoms: C_4  and  C_5
REMARK    2  A    between atoms: C_8  and  N_9
REMARK    3  A    between atoms: C_21  and  C_22
REMARK    4  A    between atoms: C_25  and  N_26
REMARK                            x       y       z     vdW  Elec       q    Type
REMARK                         _______ _______ _______ _____ _____    ______ ____
ROOT
ATOM      1  O   UNL     1      -0.832  10.514  18.250  0.00  0.00    +0.000 OA
ATOM      2  C   UNL     1      -0.249  10.194  19.285  0.00  0.00    +0.000 C 
ATOM      3  C   UNL     1       0.781   9.096  19.296  0.00  0.00    +0.000 C 
ATOM      4  C   UNL     1       1.302   8.750  18.110  0.00  0.00    +0.000 C 
ATOM      5  C   UNL     1       1.168   8.466  20.607  0.00  0.00    +0.000 C 
ATOM      6  C   UNL     1       0.197   8.786  21.733  0.00  0.00    +0.000 C 
ATOM      7  C   UNL     1       0.029  10.293  21.854  0.00  0.00    +0.000 C 
ATOM      8  C   UNL     1      -0.529  10.885  20.592  0.00  0.00    +0.000 C 
ATOM      9  C   UNL     1      -1.275  12.007  20.545  0.00  0.00    +0.000 C 
ENDROOT
BRANCH   4  10
ATOM     10  C   UNL     1       2.327   7.717  17.910  0.00  0.00    +0.000 A 
ATOM     11  C   UNL     1       2.038   6.381  18.191  0.00  0.00    +0.000 A 
ATOM     12  C   UNL     1       3.012   5.399  17.997  0.00  0.00    +0.000 A 
ATOM     13  C   UNL     1       4.294   5.706  17.535  0.00  0.00    +0.000 A 
ATOM     14  C   UNL     1       4.567   7.055  17.252  0.00  0.00    +0.000 A 
ATOM     15  C   UNL     1       3.599   8.049  17.443  0.00  0.00    +0.000 A 
BRANCH  13  16
ATOM     16  N   UNL     1       5.250   4.726  17.348  0.00  0.00    +0.000 N 
ATOM     17  C   UNL     1       6.243   4.400  18.384  0.00  0.00    +0.000 C 
ATOM     18  C   UNL     1       7.661   4.783  17.943  0.00  0.00    +0.000 C 
ATOM     19  O   UNL     1       7.986   4.218  16.663  0.00  0.00    +0.000 OA
ATOM     20  C   UNL     1       7.066   4.694  15.667  0.00  0.00    +0.000 C 
ATOM     21  C   UNL     1       5.613   4.300  15.988  0.00  0.00    +0.000 C 
ENDBRANCH  13  16
ENDBRANCH   4  10
BRANCH   9  22
ATOM     22  C   UNL     1      -1.558  12.860  21.702  0.00  0.00    +0.000 A 
ATOM     23  C   UNL     1      -0.569  13.717  22.190  0.00  0.00    +0.000 A 
ATOM     24  C   UNL     1      -0.840  14.546  23.285  0.00  0.00    +0.000 A 
ATOM     25  C   UNL     1      -2.079  14.539  23.927  0.00  0.00    +0.000 A 
ATOM     26  C   UNL     1      -3.058  13.660  23.440  0.00  0.00    +0.000 A 
ATOM     27  C   UNL     1      -2.800  12.832  22.335  0.00  0.00    +0.000 A 
BRANCH  25  28
ATOM     28  N   UNL     1      -2.338  15.391  24.985  0.00  0.00    +0.000 N 
ATOM     29  C   UNL     1      -3.608  16.127  25.122  0.00  0.00    +0.000 C 
ATOM     30  C   UNL     1      -3.396  17.646  25.032  0.00  0.00    +0.000 C 
ATOM     31  O   UNL     1      -2.362  18.095  25.925  0.00  0.00    +0.000 OA
ATOM     32  C   UNL     1      -1.121  17.442  25.613  0.00  0.00    +0.000 C 
ATOM     33  C   UNL     1      -1.225  15.918  25.785  0.00  0.00    +0.000 C 
ENDBRANCH  25  28
ENDBRANCH   9  22
TORSDOF 4
ENDMDL
MODEL 3
REMARK VINA RESULT:      -8.2      0.550      1.018
REMARK  Name = 
REMARK  4 active torsions:
REMARK  status: ('A' for Active; 'I' for Inactive)
REMARK    1  A    between atoms: C_4  and  C_5
REMARK    2  A    between atoms: C_8  and  N_9
REMARK    3  A    between atoms: C_21  and  C_22
REMARK    4  A    between atoms: C_25  and  N_26
REMARK                            x       y       z     vdW  Elec       q    Type
REMARK                         _______ _______ _______ _____ _____    ______ ____
ROOT
ATOM      1  O   UNL     1      -0.825  10.520  18.127  0.00  0.00    +0.000 OA
ATOM      2  C   UNL     1      -0.197  10.308  19.163  0.00  0.00    +0.000 C 
ATOM      3  C   UNL     1       0.845   9.224  19.239  0.00  0.00    +0.000 C 
ATOM      4  C   UNL     1       1.321   8.767  18.071  0.00  0.00    +0.000 C 
ATOM      5  C   UNL     1       1.293   8.730  20.589  0.00  0.00    +0.000 C 
ATOM      6  C   UNL     1       0.365   9.153  21.717  0.00  0.00    +0.000 C 
ATOM      7  C   UNL     1       0.185  10.662  21.696  0.00  0.00    +0.000 C 
ATOM      8  C   UNL     1      -0.430  11.123  20.406  0.00  0.00    +0.000 C 
ATOM      9  C   UNL     1      -1.190  12.230  20.280  0.00  0.00    +0.000 C 
ENDROOT
BRANCH   4  10
ATOM     10  C   UNL     1       2.348   7.725  17.932  0.00  0.00    +0.000 A 
ATOM     11  C   UNL     1       2.061   6.408  18.290  0.00  0.00    +0.000 A 
ATOM     12  C   UNL     1       3.038   5.418  18.153  0.00  0.00    +0.000 A 
ATOM     13  C   UNL     1       4.319   5.701  17.673  0.00  0.00    +0.000 A 
ATOM     14  C   UNL     1       4.589   7.031  17.312  0.00  0.00    +0.000 A 
ATOM     15  C   UNL     1       3.619   8.033  17.445  0.00  0.00    +0.000 A 
BRANCH  13  16
ATOM     16  N   UNL     1       5.277   4.714  17.543  0.00  0.00    +0.000 N 
ATOM     17  C   UNL     1       6.325   4.508  18.555  0.00  0.00    +0.000 C 
ATOM     18  C   UNL     1       7.714   4.853  18.003  0.00  0.00    +0.000 C 
ATOM     19  O   UNL     1       7.982   4.156  16.776  0.00  0.00    +0.000 OA
ATOM     20  C   UNL     1       7.007   4.516  15.783  0.00  0.00    +0.000 C 
ATOM     21  C   UNL     1       5.576   4.147  16.219  0.00  0.00    +0.000 C 
ENDBRANCH  13  16
ENDBRANCH   4  10
BRANCH   9  22
ATOM     22  C   UNL     1      -1.434  13.191  21.360  0.00  0.00    +0.000 A 
ATOM     23  C   UNL     1      -2.303  12.858  22.401  0.00  0.00    +0.000 A 
ATOM     24  C   UNL     1      -2.527  13.767  23.443  0.00  0.00    +0.000 A 
ATOM     25  C   UNL     1      -1.911  15.019  23.475  0.00  0.00    +0.000 A 
ATOM     26  C   UNL     1      -1.054  15.348  22.414  0.00  0.00    +0.000 A 
ATOM     27  C   UNL     1      -0.815  14.440  21.370  0.00  0.00    +0.000 A 
BRANCH  25  28
ATOM     28  N   UNL     1      -2.117  15.886  24.531  0.00  0.00    +0.000 N 
ATOM     29  C   UNL     1      -2.128  17.351  24.369  0.00  0.00    +0.000 C 
ATOM     30  C   UNL     1      -0.972  18.015  25.131  0.00  0.00    +0.000 C 
ATOM     31  O   UNL     1      -0.916  17.582  26.501  0.00  0.00    +0.000 OA
ATOM     32  C   UNL     1      -0.743  16.156  26.562  0.00  0.00    +0.000 C 
ATOM     33  C   UNL     1      -1.922  15.416  25.909  0.00  0.00    +0.000 C 
ENDBRANCH  25  28
ENDBRANCH   9  22
TORSDOF 4
ENDMDL
MODEL 4
REMARK VINA RESULT:      -7.9      3.686      4.678
REMARK  Name = 
REMARK  4 active torsions:
REMARK  status: ('A' for Active; 'I' for Inactive)
REMARK    1  A    between atoms: C_4  and  C_5
REMARK    2  A    between atoms: C_8  and  N_9
REMARK    3  A    between atoms: C_21  and  C_22
REMARK    4  A    between atoms: C_25  and  N_26
REMARK                            x       y       z     vdW  Elec       q    Type
REMARK                         _______ _______ _______ _____ _____    ______ ____
ROOT
ATOM      1  O   UNL     1      -0.007  10.505  22.906  0.00  0.00    +0.000 OA
ATOM      2  C   UNL     1      -0.240  10.526  21.698  0.00  0.00    +0.000 C 
ATOM      3  C   UNL     1       0.401   9.538  20.760  0.00  0.00    +0.000 C 
ATOM      4  C   UNL     1       0.918   8.431  21.316  0.00  0.00    +0.000 C 
ATOM      5  C   UNL     1       0.419   9.832  19.284  0.00  0.00    +0.000 C 
ATOM      6  C   UNL     1       0.090  11.281  18.960  0.00  0.00    +0.000 C 
ATOM      7  C   UNL     1      -1.235  11.662  19.600  0.00  0.00    +0.000 C 
ATOM      8  C   UNL     1      -1.181  11.532  21.095  0.00  0.00    +0.000 C 
ATOM      9  C   UNL     1      -1.924  12.266  21.948  0.00  0.00    +0.000 C 
ENDROOT
BRANCH   4  10
ATOM     10  C   UNL     1       1.570   7.343  20.575  0.00  0.00    +0.000 A 
ATOM     11  C   UNL     1       1.433   6.023  21.005  0.00  0.00    +0.000 A 
ATOM     12  C   UNL     1       2.051   4.989  20.297  0.00  0.00    +0.000 A 
ATOM     13  C   UNL     1       2.826   5.229  19.159  0.00  0.00    +0.000 A 
ATOM     14  C   UNL     1       2.950   6.563  18.738  0.00  0.00    +0.000 A 
ATOM     15  C   UNL     1       2.335   7.609  19.439  0.00  0.00    +0.000 A 
BRANCH  13  16
ATOM     16  N   UNL     1       3.433   4.199  18.468  0.00  0.00    +0.000 N 
ATOM     17  C   UNL     1       2.749   3.482  17.380  0.00  0.00    +0.000 C 
ATOM     18  C   UNL     1       2.463   2.024  17.763  0.00  0.00    +0.000 C 
ATOM     19  O   UNL     1       3.652   1.353  18.210  0.00  0.00    +0.000 OA
ATOM     20  C   UNL     1       4.188   2.019  19.365  0.00  0.00    +0.000 C 
ATOM     21  C   UNL     1       4.570   3.480  19.064  0.00  0.00    +0.000 C 
ENDBRANCH  13  16
ENDBRANCH   4  10
BRANCH   9  22
ATOM     22  C   UNL     1      -2.960  13.215  21.534  0.00  0.00    +0.000 A 
ATOM     23  C   UNL     1      -2.624  14.551  21.302  0.00  0.00    +0.000 A 
ATOM     24  C   UNL     1      -3.609  15.458  20.890  0.00  0.00    +0.000 A 
ATOM     25  C   UNL     1      -4.938  15.073  20.710  0.00  0.00    +0.000 A 
ATOM     26  C   UNL     1      -5.266  13.734  20.963  0.00  0.00    +0.000 A 
ATOM     27  C   UNL     1      -4.285  12.813  21.367  0.00  0.00    +0.000 A 
BRANCH  25  28
ATOM     28  N   UNL     1      -5.887  15.976  20.268  0.00  0.00    +0.000 N 
ATOM     29  C   UNL     1      -7.043  15.579  19.446  0.00  0.00    +0.000 C 
ATOM     30  C   UNL     1      -6.992  16.215  18.048  0.00  0.00    +0.000 C 
ATOM     31  O   UNL     1      -6.787  17.637  18.115  0.00  0.00    +0.000 OA
ATOM     32  C   UNL     1      -5.554  17.926  18.794  0.00  0.00    +0.000 C 
ATOM     33  C   UNL     1      -5.571  17.411  20.243  0.00  0.00    +0.000 C 
ENDBRANCH  25  28
ENDBRANCH   9  22
TORSDOF 4
ENDMDL
MODEL 5
REMARK VINA RESULT:      -7.8      1.794     12.465
REMARK  Name = 
REMARK  4 active torsions:
REMARK  status: ('A' for Active; 'I' for Inactive)
REMARK    1  A    between atoms: C_4  and  C_5
REMARK    2  A    between atoms: C_8  and  N_9
REMARK    3  A    between atoms: C_21  and  C_22
REMARK    4  A    between atoms: C_25  and  N_26
REMARK                            x       y       z     vdW  Elec       q    Type
REMARK                         _______ _______ _______ _____ _____    ______ ____
ROOT
ATOM      1  O   UNL     1      -0.493   8.288  22.376  0.00  0.00    +0.000 OA
ATOM      2  C   UNL     1      -0.166   9.133  21.544  0.00  0.00    +0.000 C 
ATOM      3  C   UNL     1      -0.691  10.543  21.613  0.00  0.00    +0.000 C 
ATOM      4  C   UNL     1      -1.205  10.935  22.788  0.00  0.00    +0.000 C 
ATOM      5  C   UNL     1      -0.605  11.418  20.392  0.00  0.00    +0.000 C 
ATOM      6  C   UNL     1      -0.310  10.640  19.119  0.00  0.00    +0.000 C 
ATOM      7  C   UNL     1       0.945   9.803  19.308  0.00  0.00    +0.000 C 
ATOM      8  C   UNL     1       0.778   8.808  20.420  0.00  0.00    +0.000 C 
ATOM      9  C   UNL     1       1.422   7.624  20.482  0.00  0.00    +0.000 C 
ENDROOT
BRANCH   4  10
ATOM     10  C   UNL     1      -1.753  12.270  23.063  0.00  0.00    +0.000 A 
ATOM     11  C   UNL     1      -0.907  13.379  23.106  0.00  0.00    +0.000 A 
ATOM     12  C   UNL     1      -1.430  14.648  23.364  0.00  0.00    +0.000 A 
ATOM     13  C   UNL     1      -2.792  14.856  23.597  0.00  0.00    +0.000 A 
ATOM     14  C   UNL     1      -3.630  13.730  23.545  0.00  0.00    +0.000 A 
ATOM     15  C   UNL     1      -3.118  12.452  23.288  0.00  0.00    +0.000 A 
BRANCH  13  16
ATOM     16  N   UNL     1      -3.298  16.116  23.852  0.00  0.00    +0.000 N 
ATOM     17  C   UNL     1      -4.299  16.354  24.904  0.00  0.00    +0.000 C 
ATOM     18  C   UNL     1      -5.648  16.777  24.309  0.00  0.00    +0.000 C 
ATOM     19  O   UNL     1      -5.505  17.891  23.415  0.00  0.00    +0.000 OA
ATOM     20  C   UNL     1      -4.630  17.542  22.330  0.00  0.00    +0.000 C 
ATOM     21  C   UNL     1      -3.221  17.164  22.823  0.00  0.00    +0.000 C 
ENDBRANCH  13  16
ENDBRANCH   4  10
BRANCH   9  22
ATOM     22  C   UNL     1       2.449   7.191  19.531  0.00  0.00    +0.000 A 
ATOM     23  C   UNL     1       2.661   7.922  18.360  0.00  0.00    +0.000 A 
ATOM     24  C   UNL     1       3.653   7.521  17.456  0.00  0.00    +0.000 A 
ATOM     25  C   UNL     1       4.443   6.394  17.680  0.00  0.00    +0.000 A 
ATOM     26  C   UNL     1       4.208   5.659  18.851  0.00  0.00    +0.000 A 
ATOM     27  C   UNL     1       3.223   6.057  19.769  0.00  0.00    +0.000 A 
BRANCH  25  28
ATOM     28  N   UNL     1       5.442   6.037  16.793  0.00  0.00    +0.000 N 
ATOM     29  C   UNL     1       5.195   5.187  15.615  0.00  0.00    +0.000 C 
ATOM     30  C   UNL     1       5.948   3.851  15.711  0.00  0.00    +0.000 C 
ATOM     31  O   UNL     1       7.342   4.044  16.007  0.00  0.00    +0.000 OA
ATOM     32  C   UNL     1       7.490   4.743  17.255  0.00  0.00    +0.000 C 
ATOM     33  C   UNL     1       6.849   6.139  17.200  0.00  0.00    +0.000 C 
ENDBRANCH  25  28
ENDBRANCH   9  22
TORSDOF 4
ENDMDL
MODEL 6
REMARK VINA RESULT:      -7.6      1.363      1.923
REMARK  Name = 
REMARK  4 active torsions:
REMARK  status: ('A' for Active; 'I' for Inactive)
REMARK    1  A    between atoms: C_4  and  C_5
REMARK    2  A    between atoms: C_8  and  N_9
REMARK    3  A    between atoms: C_21  and  C_22
REMARK    4  A    between atoms: C_25  and  N_26
REMARK                            x       y       z     vdW  Elec       q    Type
REMARK                         _______ _______ _______ _____ _____    ______ ____
ROOT
ATOM      1  O   UNL     1      -1.113  10.304  17.649  0.00  0.00    +0.000 OA
ATOM      2  C   UNL     1      -0.461  10.290  18.692  0.00  0.00    +0.000 C 
ATOM      3  C   UNL     1       0.631   9.280  18.919  0.00  0.00    +0.000 C 
ATOM      4  C   UNL     1       1.113   8.662  17.830  0.00  0.00    +0.000 C 
ATOM      5  C   UNL     1       1.121   9.030  20.320  0.00  0.00    +0.000 C 
ATOM      6  C   UNL     1       0.190   9.588  21.386  0.00  0.00    +0.000 C 
ATOM      7  C   UNL     1      -0.062  11.065  21.126  0.00  0.00    +0.000 C 
ATOM      8  C   UNL     1      -0.716  11.283  19.793  0.00  0.00    +0.000 C 
ATOM      9  C   UNL     1      -1.529  12.321  19.507  0.00  0.00    +0.000 C 
ENDROOT
BRANCH   4  10
ATOM     10  C   UNL     1       2.186   7.658  17.838  0.00  0.00    +0.000 A 
ATOM     11  C   UNL     1       3.477   8.011  17.441  0.00  0.00    +0.000 A 
ATOM     12  C   UNL     1       4.497   7.057  17.453  0.00  0.00    +0.000 A 
ATOM     13  C   UNL     1       4.271   5.734  17.841  0.00  0.00    +0.000 A 
ATOM     14  C   UNL     1       2.967   5.397  18.241  0.00  0.00    +0.000 A 
ATOM     15  C   UNL     1       1.935   6.344  18.234  0.00  0.00    +0.000 A 
BRANCH  13  16
ATOM     16  N   UNL     1       5.287   4.798  17.847  0.00  0.00    +0.000 N 
ATOM     17  C   UNL     1       6.360   4.821  18.854  0.00  0.00    +0.000 C 
ATOM     18  C   UNL     1       7.717   5.154  18.220  0.00  0.00    +0.000 C 
ATOM     19  O   UNL     1       8.010   4.286  17.114  0.00  0.00    +0.000 OA
ATOM     20  C   UNL     1       7.001   4.422  16.101  0.00  0.00    +0.000 C 
ATOM     21  C   UNL     1       5.602   4.044  16.624  0.00  0.00    +0.000 C 
ENDBRANCH  13  16
ENDBRANCH   4  10
BRANCH   9  22
ATOM     22  C   UNL     1      -1.804  13.431  20.423  0.00  0.00    +0.000 A 
ATOM     23  C   UNL     1      -1.014  14.582  20.374  0.00  0.00    +0.000 A 
ATOM     24  C   UNL     1      -1.283  15.652  21.236  0.00  0.00    +0.000 A 
ATOM     25  C   UNL     1      -2.322  15.607  22.166  0.00  0.00    +0.000 A 
ATOM     26  C   UNL     1      -3.097  14.439  22.217  0.00  0.00    +0.000 A 
ATOM     27  C   UNL     1      -2.842  13.364  21.351  0.00  0.00    +0.000 A 
BRANCH  25  28
ATOM     28  N   UNL     1      -2.594  16.689  22.982  0.00  0.00    +0.000 N 
ATOM     29  C   UNL     1      -2.459  16.635  24.449  0.00  0.00    +0.000 C 
ATOM     30  C   UNL     1      -3.812  16.822  25.151  0.00  0.00    +0.000 C 
ATOM     31  O   UNL     1      -4.506  17.987  24.674  0.00  0.00    +0.000 OA
ATOM     32  C   UNL     1      -4.736  17.880  23.259  0.00  0.00    +0.000 C 
ATOM     33  C   UNL     1      -3.416  17.796  22.476  0.00  0.00    +0.000 C 
ENDBRANCH  25  28
ENDBRANCH   9  22
TORSDOF 4
ENDMDL
MODEL 7
REMARK VINA RESULT:      -7.6      2.694      3.484
REMARK  Name = 
REMARK  4 active torsions:
REMARK  status: ('A' for Active; 'I' for Inactive)
REMARK    1  A    between atoms: C_4  and  C_5
REMARK    2  A    between atoms: C_8  and  N_9
REMARK    3  A    between atoms: C_21  and  C_22
REMARK    4  A    between atoms: C_25  and  N_26
REMARK                            x       y       z     vdW  Elec       q    Type
REMARK                         _______ _______ _______ _____ _____    ______ ____
ROOT
ATOM      1  O   UNL     1      -0.163   9.375  23.401  0.00  0.00    +0.000 OA
ATOM      2  C   UNL     1      -0.150  10.022  22.356  0.00  0.00    +0.000 C 
ATOM      3  C   UNL     1       0.656   9.573  21.166  0.00  0.00    +0.000 C 
ATOM      4  C   UNL     1       1.041   8.288  21.154  0.00  0.00    +0.000 C 
ATOM      5  C   UNL     1       0.971  10.563  20.077  0.00  0.00    +0.000 C 
ATOM      6  C   UNL     1       0.726  12.005  20.492  0.00  0.00    +0.000 C 
ATOM      7  C   UNL     1      -0.697  12.158  21.005  0.00  0.00    +0.000 C 
ATOM      8  C   UNL     1      -0.943  11.292  22.206  0.00  0.00    +0.000 C 
ATOM      9  C   UNL     1      -1.835  11.576  23.177  0.00  0.00    +0.000 C 
ENDROOT
BRANCH   4  10
ATOM     10  C   UNL     1       1.819   7.654  20.080  0.00  0.00    +0.000 A 
ATOM     11  C   UNL     1       2.262   6.338  20.221  0.00  0.00    +0.000 A 
ATOM     12  C   UNL     1       2.998   5.735  19.198  0.00  0.00    +0.000 A 
ATOM     13  C   UNL     1       3.326   6.413  18.022  0.00  0.00    +0.000 A 
ATOM     14  C   UNL     1       2.868   7.734  17.894  0.00  0.00    +0.000 A 
ATOM     15  C   UNL     1       2.129   8.351  18.912  0.00  0.00    +0.000 A 
BRANCH  13  16
ATOM     16  N   UNL     1       4.056   5.807  17.017  0.00  0.00    +0.000 N 
ATOM     17  C   UNL     1       4.164   4.343  16.908  0.00  0.00    +0.000 C 
ATOM     18  C   UNL     1       5.596   3.864  17.179  0.00  0.00    +0.000 C 
ATOM     19  O   UNL     1       6.548   4.555  16.354  0.00  0.00    +0.000 OA
ATOM     20  C   UNL     1       6.493   5.967  16.618  0.00  0.00    +0.000 C 
ATOM     21  C   UNL     1       5.105   6.558  16.312  0.00  0.00    +0.000 C 
ENDBRANCH  13  16
ENDBRANCH   4  10
BRANCH   9  22
ATOM     22  C   UNL     1      -2.759  12.712  23.142  0.00  0.00    +0.000 A 
ATOM     23  C   UNL     1      -3.937  12.626  22.395  0.00  0.00    +0.000 A 
ATOM     24  C   UNL     1      -4.831  13.703  22.372  0.00  0.00    +0.000 A 
ATOM     25  C   UNL     1      -4.581  14.885  23.071  0.00  0.00    +0.000 A 
ATOM     26  C   UNL     1      -3.387  14.966  23.802  0.00  0.00    +0.000 A 
ATOM     27  C   UNL     1      -2.488  13.888  23.840  0.00  0.00    +0.000 A 
BRANCH  25  28
ATOM     28  N   UNL     1      -5.494  15.922  23.064  0.00  0.00    +0.000 N 
ATOM     29  C   UNL     1      -6.864  15.781  23.588  0.00  0.00    +0.000 C 
ATOM     30  C   UNL     1      -7.915  15.952  22.480  0.00  0.00    +0.000 C 
ATOM     31  O   UNL     1      -7.703  17.155  21.722  0.00  0.00    +0.000 OA
ATOM     32  C   UNL     1      -6.400  17.133  21.116  0.00  0.00    +0.000 C 
ATOM     33  C   UNL     1      -5.286  17.071  22.173  0.00  0.00    +0.000 C 
ENDBRANCH  25  28
ENDBRANCH   9  22
TORSDOF 4
ENDMDL
MODEL 8
REMARK VINA RESULT:      -7.6      2.595     12.483
REMARK  Name = 
REMARK  4 active torsions:
REMARK  status: ('A' for Active; 'I' for Inactive)
REMARK    1  A    between atoms: C_4  and  C_5
REMARK    2  A    between atoms: C_8  and  N_9
REMARK    3  A    between atoms: C_21  and  C_22
REMARK    4  A    between atoms: C_25  and  N_26
REMARK                            x       y       z     vdW  Elec       q    Type
REMARK                         _______ _______ _______ _____ _____    ______ ____
ROOT
ATOM      1  O   UNL     1       0.728  11.856  18.247  0.00  0.00    +0.000 OA
ATOM      2  C   UNL     1       0.433  11.107  19.177  0.00  0.00    +0.000 C 
ATOM      3  C   UNL     1      -0.569  11.516  20.223  0.00  0.00    +0.000 C 
ATOM      4  C   UNL     1      -1.386  12.532  19.907  0.00  0.00    +0.000 C 
ATOM      5  C   UNL     1      -0.607  10.775  21.533  0.00  0.00    +0.000 C 
ATOM      6  C   UNL     1       0.627   9.919  21.770  0.00  0.00    +0.000 C 
ATOM      7  C   UNL     1       0.836   8.981  20.591  0.00  0.00    +0.000 C 
ATOM      8  C   UNL     1       1.050   9.743  19.315  0.00  0.00    +0.000 C 
ATOM      9  C   UNL     1       1.770   9.286  18.270  0.00  0.00    +0.000 C 
ENDROOT
BRANCH   4  10
ATOM     10  C   UNL     1      -2.438  13.070  20.782  0.00  0.00    +0.000 A 
ATOM     11  C   UNL     1      -3.755  12.631  20.643  0.00  0.00    +0.000 A 
ATOM     12  C   UNL     1      -4.753  13.140  21.477  0.00  0.00    +0.000 A 
ATOM     13  C   UNL     1      -4.483  14.099  22.458  0.00  0.00    +0.000 A 
ATOM     14  C   UNL     1      -3.151  14.525  22.587  0.00  0.00    +0.000 A 
ATOM     15  C   UNL     1      -2.141  14.023  21.756  0.00  0.00    +0.000 A 
BRANCH  13  16
ATOM     16  N   UNL     1      -5.478  14.596  23.277  0.00  0.00    +0.000 N 
ATOM     17  C   UNL     1      -6.867  14.117  23.192  0.00  0.00    +0.000 C 
ATOM     18  C   UNL     1      -7.808  15.215  22.680  0.00  0.00    +0.000 C 
ATOM     19  O   UNL     1      -7.681  16.421  23.450  0.00  0.00    +0.000 OA
ATOM     20  C   UNL     1      -6.335  16.916  23.369  0.00  0.00    +0.000 C 
ATOM     21  C   UNL     1      -5.314  15.906  23.924  0.00  0.00    +0.000 C 
ENDBRANCH  13  16
ENDBRANCH   4  10
BRANCH   9  22
ATOM     22  C   UNL     1       2.353   7.944  18.193  0.00  0.00    +0.000 A 
ATOM     23  C   UNL     1       3.567   7.753  17.529  0.00  0.00    +0.000 A 
ATOM     24  C   UNL     1       4.136   6.475  17.467  0.00  0.00    +0.000 A 
ATOM     25  C   UNL     1       3.520   5.364  18.044  0.00  0.00    +0.000 A 
ATOM     26  C   UNL     1       2.293   5.566  18.692  0.00  0.00    +0.000 A 
ATOM     27  C   UNL     1       1.718   6.844  18.769  0.00  0.00    +0.000 A 
BRANCH  25  28
ATOM     28  N   UNL     1       4.117   4.118  18.003  0.00  0.00    +0.000 N 
ATOM     29  C   UNL     1       3.623   3.025  17.147  0.00  0.00    +0.000 C 
ATOM     30  C   UNL     1       3.117   1.837  17.979  0.00  0.00    +0.000 C 
ATOM     31  O   UNL     1       4.084   1.418  18.957  0.00  0.00    +0.000 OA
ATOM     32  C   UNL     1       4.387   2.504  19.849  0.00  0.00    +0.000 C 
ATOM     33  C   UNL     1       5.001   3.697  19.098  0.00  0.00    +0.000 C 
ENDBRANCH  25  28
ENDBRANCH   9  22
TORSDOF 4
ENDMDL
MODEL 9
REMARK VINA RESULT:      -7.5      2.876      3.696
REMARK  Name = 
REMARK  4 active torsions:
REMARK  status: ('A' for Active; 'I' for Inactive)
REMARK    1  A    between atoms: C_4  and  C_5
REMARK    2  A    between atoms: C_8  and  N_9
REMARK    3  A    between atoms: C_21  and  C_22
REMARK    4  A    between atoms: C_25  and  N_26
REMARK                            x       y       z     vdW  Elec       q    Type
REMARK                         _______ _______ _______ _____ _____    ______ ____
ROOT
ATOM      1  O   UNL     1       0.305  10.335  23.500  0.00  0.00    +0.000 OA
ATOM      2  C   UNL     1      -0.163  10.513  22.376  0.00  0.00    +0.000 C 
ATOM      3  C   UNL     1       0.330   9.728  21.190  0.00  0.00    +0.000 C 
ATOM      4  C   UNL     1       1.001   8.597  21.455  0.00  0.00    +0.000 C 
ATOM      5  C   UNL     1       0.041  10.236  19.802  0.00  0.00    +0.000 C 
ATOM      6  C   UNL     1      -0.418  11.685  19.781  0.00  0.00    +0.000 C 
ATOM      7  C   UNL     1      -1.609  11.861  20.710  0.00  0.00    +0.000 C 
ATOM      8  C   UNL     1      -1.254  11.519  22.127  0.00  0.00    +0.000 C 
ATOM      9  C   UNL     1      -1.850  12.057  23.211  0.00  0.00    +0.000 C 
ENDROOT
BRANCH   4  10
ATOM     10  C   UNL     1       1.548   7.686  20.441  0.00  0.00    +0.000 A 
ATOM     11  C   UNL     1       2.011   8.189  19.225  0.00  0.00    +0.000 A 
ATOM     12  C   UNL     1       2.535   7.322  18.264  0.00  0.00    +0.000 A 
ATOM     13  C   UNL     1       2.605   5.942  18.469  0.00  0.00    +0.000 A 
ATOM     14  C   UNL     1       2.139   5.452  19.700  0.00  0.00    +0.000 A 
ATOM     15  C   UNL     1       1.611   6.311  20.673  0.00  0.00    +0.000 A 
BRANCH  13  16
ATOM     16  N   UNL     1       3.123   5.093  17.510  0.00  0.00    +0.000 N 
ATOM     17  C   UNL     1       2.683   3.694  17.388  0.00  0.00    +0.000 C 
ATOM     18  C   UNL     1       3.810   2.718  17.753  0.00  0.00    +0.000 C 
ATOM     19  O   UNL     1       5.007   2.991  17.007  0.00  0.00    +0.000 OA
ATOM     20  C   UNL     1       5.466   4.324  17.286  0.00  0.00    +0.000 C 
ATOM     21  C   UNL     1       4.424   5.388  16.890  0.00  0.00    +0.000 C 
ENDBRANCH  13  16
ENDBRANCH   4  10
BRANCH   9  22
ATOM     22  C   UNL     1      -2.994  12.971  23.155  0.00  0.00    +0.000 A 
ATOM     23  C   UNL     1      -4.292  12.463  23.252  0.00  0.00    +0.000 A 
ATOM     24  C   UNL     1      -5.388  13.335  23.216  0.00  0.00    +0.000 A 
ATOM     25  C   UNL     1      -5.230  14.713  23.072  0.00  0.00    +0.000 A 
ATOM     26  C   UNL     1      -3.923  15.208  22.957  0.00  0.00    +0.000 A 
ATOM     27  C   UNL     1      -2.816  14.345  23.003  0.00  0.00    +0.000 A 
BRANCH  25  28
ATOM     28  N   UNL     1      -6.323  15.559  23.075  0.00  0.00    +0.000 N 
ATOM     29  C   UNL     1      -7.518  15.321  22.246  0.00  0.00    +0.000 C 
ATOM     30  C   UNL     1      -7.711  16.428  21.198  0.00  0.00    +0.000 C 
ATOM     31  O   UNL     1      -7.665  17.738  21.789  0.00  0.00    +0.000 OA
ATOM     32  C   UNL     1      -6.400  17.941  22.441  0.00  0.00    +0.000 C 
ATOM     33  C   UNL     1      -6.181  16.931  23.579  0.00  0.00    +0.000 C 
ENDBRANCH  25  28
ENDBRANCH   9  22
TORSDOF 4
ENDMDL
