MODEL 1
REMARK VINA RESULT:      -9.0      0.000      0.000
REMARK  Name = 
REMARK  7 active torsions:
REMARK  status: ('A' for Active; 'I' for Inactive)
REMARK    1  A    between atoms: C_2  and  C_3
REMARK    2  A    between atoms: C_3  and  S_4
REMARK    3  A    between atoms: S_4  and  C_5
REMARK    4  A    between atoms: N_16  and  C_17
REMARK    5  A    between atoms: C_17  and  C_18
REMARK    6  A    between atoms: N_24  and  N_25
REMARK    7  A    between atoms: C_26  and  C_28
REMARK                            x       y       z     vdW  Elec       q    Type
REMARK                         _______ _______ _______ _____ _____    ______ ____
ROOT
ATOM      1  C   UNL     1       6.998   5.775  17.177  0.00  0.00    +0.000 A 
ATOM      2  N   UNL     1       7.561   5.843  16.017  0.00  0.00    +0.000 NA
ATOM      3  C   UNL     1       7.031   5.101  14.966  0.00  0.00    +0.000 A 
ATOM      4  C   UNL     1       7.628   5.190  13.704  0.00  0.00    +0.000 A 
ATOM      5  C   UNL     1       7.146   4.431  12.638  0.00  0.00    +0.000 A 
ATOM      6  C   UNL     1       6.058   3.580  12.829  0.00  0.00    +0.000 A 
ATOM      7 CL   UNL     1       5.479   2.627  11.520  0.00  0.00    +0.000 Cl
ATOM      8  C   UNL     1       5.436   3.501  14.073  0.00  0.00    +0.000 A 
ATOM      9  C   UNL     1       5.929   4.273  15.132  0.00  0.00    +0.000 A 
ATOM     10  C   UNL     1       5.278   4.266  16.453  0.00  0.00    +0.000 A 
ATOM     11  O   UNL     1       4.248   3.610  16.589  0.00  0.00    +0.000 OA
ATOM     12  N   UNL     1       5.864   5.037  17.459  0.00  0.00    +0.000 N 
ENDROOT
BRANCH   1  13
ATOM     13  S   UNL     1       7.746   6.780  18.395  0.00  0.00    +0.000 S 
BRANCH  13  14
ATOM     14  C   UNL     1       8.199   8.244  17.430  0.00  0.00    +0.000 C 
BRANCH  14  16
ATOM     15  O   UNL     1       7.866  10.600  17.726  0.00  0.00    +0.000 OA
ATOM     16  C   UNL     1       8.355   9.556  18.168  0.00  0.00    +0.000 C 
ATOM     17  N   UNL     1       9.174   9.556  19.275  0.00  0.00    +0.000 N 
ATOM     18  H   UNL     1       9.217   8.707  19.849  0.00  0.00    +0.000 HD
BRANCH  17  19
ATOM     19  N   UNL     1       9.239  10.755  19.998  0.00  0.00    +0.000 N 
ATOM     20  C   UNL     1      10.350  11.555  19.862  0.00  0.00    +0.000 C 
ATOM     21  O   UNL     1      11.317  11.265  19.163  0.00  0.00    +0.000 OA
ATOM     22  H   UNL     1       8.386  11.034  20.481  0.00  0.00    +0.000 HD
BRANCH  20  23
ATOM     23  C   UNL     1      10.314  12.833  20.612  0.00  0.00    +0.000 A 
ATOM     24  C   UNL     1       9.496  13.004  21.738  0.00  0.00    +0.000 A 
ATOM     25  C   UNL     1       9.468  14.234  22.396  0.00  0.00    +0.000 A 
ATOM     26  C   UNL     1      10.261  15.287  21.940  0.00  0.00    +0.000 A 
ATOM     27  C   UNL     1      11.097  15.108  20.838  0.00  0.00    +0.000 A 
ATOM     28  C   UNL     1      11.130  13.881  20.178  0.00  0.00    +0.000 A 
ENDBRANCH  20  23
ENDBRANCH  17  19
ENDBRANCH  14  16
ENDBRANCH  13  14
ENDBRANCH   1  13
BRANCH  12  29
ATOM     29  C   UNL     1       5.160   5.049  18.752  0.00  0.00    +0.000 C 
BRANCH  29  30
ATOM     30  C   UNL     1       4.008   6.034  18.780  0.00  0.00    +0.000 A 
ATOM     31  C   UNL     1       3.868   7.004  17.780  0.00  0.00    +0.000 A 
ATOM     32  C   UNL     1       2.893   7.997  17.878  0.00  0.00    +0.000 A 
ATOM     33  C   UNL     1       2.009   8.001  18.953  0.00  0.00    +0.000 A 
ATOM     34  C   UNL     1       2.085   6.996  19.916  0.00  0.00    +0.000 A 
ATOM     35  C   UNL     1       3.079   6.020  19.830  0.00  0.00    +0.000 A 
ENDBRANCH  29  30
ENDBRANCH  12  29
TORSDOF 7
ENDMDL
MODEL 2
REMARK VINA RESULT:      -8.8      1.336      1.848
REMARK  Name = 
REMARK  7 active torsions:
REMARK  status: ('A' for Active; 'I' for Inactive)
REMARK    1  A    between atoms: C_2  and  C_3
REMARK    2  A    between atoms: C_3  and  S_4
REMARK    3  A    between atoms: S_4  and  C_5
REMARK    4  A    between atoms: N_16  and  C_17
REMARK    5  A    between atoms: C_17  and  C_18
REMARK    6  A    between atoms: N_24  and  N_25
REMARK    7  A    between atoms: C_26  and  C_28
REMARK                            x       y       z     vdW  Elec       q    Type
REMARK                         _______ _______ _______ _____ _____    ______ ____
ROOT
ATOM      1  C   UNL     1       7.001   5.652  17.040  0.00  0.00    +0.000 A 
ATOM      2  N   UNL     1       7.556   5.696  15.874  0.00  0.00    +0.000 NA
ATOM      3  C   UNL     1       6.984   4.978  14.828  0.00  0.00    +0.000 A 
ATOM      4  C   UNL     1       7.574   5.040  13.561  0.00  0.00    +0.000 A 
ATOM      5  C   UNL     1       7.049   4.303  12.499  0.00  0.00    +0.000 A 
ATOM      6  C   UNL     1       5.927   3.500  12.701  0.00  0.00    +0.000 A 
ATOM      7 CL   UNL     1       5.295   2.572  11.398  0.00  0.00    +0.000 Cl
ATOM      8  C   UNL     1       5.314   3.448  13.951  0.00  0.00    +0.000 A 
ATOM      9  C   UNL     1       5.849   4.198  15.004  0.00  0.00    +0.000 A 
ATOM     10  C   UNL     1       5.211   4.220  16.331  0.00  0.00    +0.000 A 
ATOM     11  O   UNL     1       4.155   3.609  16.477  0.00  0.00    +0.000 OA
ATOM     12  N   UNL     1       5.839   4.965  17.332  0.00  0.00    +0.000 N 
ENDROOT
BRANCH   1  13
ATOM     13  S   UNL     1       7.803   6.624  18.250  0.00  0.00    +0.000 S 
BRANCH  13  14
ATOM     14  C   UNL     1       7.573   8.294  17.586  0.00  0.00    +0.000 C 
BRANCH  14  16
ATOM     15  O   UNL     1       9.122   9.226  19.160  0.00  0.00    +0.000 OA
ATOM     16  C   UNL     1       8.426   9.406  18.157  0.00  0.00    +0.000 C 
ATOM     17  N   UNL     1       8.288  10.653  17.590  0.00  0.00    +0.000 N 
ATOM     18  H   UNL     1       8.081  10.712  16.587  0.00  0.00    +0.000 HD
BRANCH  17  19
ATOM     19  N   UNL     1       9.147  11.651  18.070  0.00  0.00    +0.000 N 
ATOM     20  C   UNL     1       8.754  12.967  17.983  0.00  0.00    +0.000 C 
ATOM     21  O   UNL     1       7.697  13.330  17.474  0.00  0.00    +0.000 OA
ATOM     22  H   UNL     1       9.963  11.328  18.588  0.00  0.00    +0.000 HD
BRANCH  20  23
ATOM     23  C   UNL     1       9.692  13.955  18.568  0.00  0.00    +0.000 A 
ATOM     24  C   UNL     1      10.779  13.560  19.360  0.00  0.00    +0.000 A 
ATOM     25  C   UNL     1      11.619  14.525  19.918  0.00  0.00    +0.000 A 
ATOM     26  C   UNL     1      11.382  15.878  19.678  0.00  0.00    +0.000 A 
ATOM     27  C   UNL     1      10.318  16.270  18.866  0.00  0.00    +0.000 A 
ATOM     28  C   UNL     1       9.477  15.311  18.305  0.00  0.00    +0.000 A 
ENDBRANCH  20  23
ENDBRANCH  17  19
ENDBRANCH  14  16
ENDBRANCH  13  14
ENDBRANCH   1  13
BRANCH  12  29
ATOM     29  C   UNL     1       5.148   5.008  18.631  0.00  0.00    +0.000 C 
BRANCH  29  30
ATOM     30  C   UNL     1       4.086   6.088  18.692  0.00  0.00    +0.000 A 
ATOM     31  C   UNL     1       3.148   6.115  19.732  0.00  0.00    +0.000 A 
ATOM     32  C   UNL     1       2.088   7.021  19.714  0.00  0.00    +0.000 A 
ATOM     33  C   UNL     1       1.982   7.949  18.682  0.00  0.00    +0.000 A 
ATOM     34  C   UNL     1       2.951   7.987  17.682  0.00  0.00    +0.000 A 
ATOM     35  C   UNL     1       3.996   7.060  17.686  0.00  0.00    +0.000 A 
ENDBRANCH  29  30
ENDBRANCH  12  29
TORSDOF 7
ENDMDL
MODEL 3
REMARK VINA RESULT:      -8.8      0.175      1.200
REMARK  Name = 
REMARK  7 active torsions:
REMARK  status: ('A' for Active; 'I' for Inactive)
REMARK    1  A    between atoms: C_2  and  C_3
REMARK    2  A    between atoms: C_3  and  S_4
REMARK    3  A    between atoms: S_4  and  C_5
REMARK    4  A    between atoms: N_16  and  C_17
REMARK    5  A    between atoms: C_17  and  C_18
REMARK    6  A    between atoms: N_24  and  N_25
REMARK    7  A    between atoms: C_26  and  C_28
REMARK                            x       y       z     vdW  Elec       q    Type
REMARK                         _______ _______ _______ _____ _____    ______ ____
ROOT
ATOM      1  C   UNL     1       6.977   5.684  17.108  0.00  0.00    +0.000 A 
ATOM      2  N   UNL     1       7.551   5.734  15.952  0.00  0.00    +0.000 NA
ATOM      3  C   UNL     1       7.002   5.015  14.894  0.00  0.00    +0.000 A 
ATOM      4  C   UNL     1       7.613   5.085  13.638  0.00  0.00    +0.000 A 
ATOM      5  C   UNL     1       7.111   4.347  12.565  0.00  0.00    +0.000 A 
ATOM      6  C   UNL     1       5.991   3.536  12.746  0.00  0.00    +0.000 A 
ATOM      7 CL   UNL     1       5.388   2.609  11.429  0.00  0.00    +0.000 Cl
ATOM      8  C   UNL     1       5.357   3.477  13.984  0.00  0.00    +0.000 A 
ATOM      9  C   UNL     1       5.869   4.228  15.049  0.00  0.00    +0.000 A 
ATOM     10  C   UNL     1       5.208   4.241  16.365  0.00  0.00    +0.000 A 
ATOM     11  O   UNL     1       4.153   3.624  16.491  0.00  0.00    +0.000 OA
ATOM     12  N   UNL     1       5.814   4.988  17.378  0.00  0.00    +0.000 N 
ENDROOT
BRANCH   1  13
ATOM     13  S   UNL     1       7.750   6.657  18.334  0.00  0.00    +0.000 S 
BRANCH  13  14
ATOM     14  C   UNL     1       8.193   8.142  17.395  0.00  0.00    +0.000 C 
BRANCH  14  16
ATOM     15  O   UNL     1       7.771  10.477  17.732  0.00  0.00    +0.000 OA
ATOM     16  C   UNL     1       8.308   9.448  18.150  0.00  0.00    +0.000 C 
ATOM     17  N   UNL     1       9.143   9.464  19.246  0.00  0.00    +0.000 N 
ATOM     18  H   UNL     1       9.228   8.609  19.806  0.00  0.00    +0.000 HD
BRANCH  17  19
ATOM     19  N   UNL     1       9.171  10.654  19.986  0.00  0.00    +0.000 N 
ATOM     20  C   UNL     1      10.259  11.487  19.864  0.00  0.00    +0.000 C 
ATOM     21  O   UNL     1      11.235  11.236  19.163  0.00  0.00    +0.000 OA
ATOM     22  H   UNL     1       8.310  10.900  20.471  0.00  0.00    +0.000 HD
BRANCH  20  23
ATOM     23  C   UNL     1      10.184  12.753  20.633  0.00  0.00    +0.000 A 
ATOM     24  C   UNL     1      10.891  13.898  20.237  0.00  0.00    +0.000 A 
ATOM     25  C   UNL     1      10.818  15.059  21.008  0.00  0.00    +0.000 A 
ATOM     26  C   UNL     1      10.036  15.082  22.163  0.00  0.00    +0.000 A 
ATOM     27  C   UNL     1       9.310  13.952  22.540  0.00  0.00    +0.000 A 
ATOM     28  C   UNL     1       9.378  12.791  21.774  0.00  0.00    +0.000 A 
ENDBRANCH  20  23
ENDBRANCH  17  19
ENDBRANCH  14  16
ENDBRANCH  13  14
ENDBRANCH   1  13
BRANCH  12  29
ATOM     29  C   UNL     1       5.100   5.022  18.666  0.00  0.00    +0.000 C 
BRANCH  29  30
ATOM     30  C   UNL     1       4.055   6.118  18.724  0.00  0.00    +0.000 A 
ATOM     31  C   UNL     1       3.130   6.174  19.774  0.00  0.00    +0.000 A 
ATOM     32  C   UNL     1       2.083   7.095  19.757  0.00  0.00    +0.000 A 
ATOM     33  C   UNL     1       1.978   8.010  18.713  0.00  0.00    +0.000 A 
ATOM     34  C   UNL     1       2.934   8.019  17.700  0.00  0.00    +0.000 A 
ATOM     35  C   UNL     1       3.966   7.078  17.706  0.00  0.00    +0.000 A 
ENDBRANCH  29  30
ENDBRANCH  12  29
TORSDOF 7
ENDMDL
MODEL 4
REMARK VINA RESULT:      -8.8      1.219      1.439
REMARK  Name = 
REMARK  7 active torsions:
REMARK  status: ('A' for Active; 'I' for Inactive)
REMARK    1  A    between atoms: C_2  and  C_3
REMARK    2  A    between atoms: C_3  and  S_4
REMARK    3  A    between atoms: S_4  and  C_5
REMARK    4  A    between atoms: N_16  and  C_17
REMARK    5  A    between atoms: C_17  and  C_18
REMARK    6  A    between atoms: N_24  and  N_25
REMARK    7  A    between atoms: C_26  and  C_28
REMARK                            x       y       z     vdW  Elec       q    Type
REMARK                         _______ _______ _______ _____ _____    ______ ____
ROOT
ATOM      1  C   UNL     1       6.936   5.641  17.100  0.00  0.00    +0.000 A 
ATOM      2  N   UNL     1       7.511   5.687  15.945  0.00  0.00    +0.000 NA
ATOM      3  C   UNL     1       6.949   4.987  14.882  0.00  0.00    +0.000 A 
ATOM      4  C   UNL     1       7.561   5.052  13.627  0.00  0.00    +0.000 A 
ATOM      5  C   UNL     1       7.045   4.332  12.549  0.00  0.00    +0.000 A 
ATOM      6  C   UNL     1       5.908   3.543  12.724  0.00  0.00    +0.000 A 
ATOM      7 CL   UNL     1       5.287   2.637  11.401  0.00  0.00    +0.000 Cl
ATOM      8  C   UNL     1       5.273   3.489  13.962  0.00  0.00    +0.000 A 
ATOM      9  C   UNL     1       5.799   4.222  15.032  0.00  0.00    +0.000 A 
ATOM     10  C   UNL     1       5.138   4.241  16.347  0.00  0.00    +0.000 A 
ATOM     11  O   UNL     1       4.071   3.644  16.469  0.00  0.00    +0.000 OA
ATOM     12  N   UNL     1       5.758   4.968  17.366  0.00  0.00    +0.000 N 
ENDROOT
BRANCH   1  13
ATOM     13  S   UNL     1       7.729   6.591  18.333  0.00  0.00    +0.000 S 
BRANCH  13  14
ATOM     14  C   UNL     1       7.673   8.250  17.607  0.00  0.00    +0.000 C 
BRANCH  14  16
ATOM     15  O   UNL     1       9.061   9.155  19.339  0.00  0.00    +0.000 OA
ATOM     16  C   UNL     1       8.524   9.328  18.242  0.00  0.00    +0.000 C 
ATOM     17  N   UNL     1       8.563  10.549  17.604  0.00  0.00    +0.000 N 
ATOM     18  H   UNL     1       8.500  10.566  16.581  0.00  0.00    +0.000 HD
BRANCH  17  19
ATOM     19  N   UNL     1       9.424  11.508  18.154  0.00  0.00    +0.000 N 
ATOM     20  C   UNL     1       9.021  12.823  18.186  0.00  0.00    +0.000 C 
ATOM     21  O   UNL     1       7.954  13.221  17.727  0.00  0.00    +0.000 OA
ATOM     22  H   UNL     1      10.250  11.148  18.630  0.00  0.00    +0.000 HD
BRANCH  20  23
ATOM     23  C   UNL     1       9.963  13.765  18.839  0.00  0.00    +0.000 A 
ATOM     24  C   UNL     1       9.653  14.393  20.053  0.00  0.00    +0.000 A 
ATOM     25  C   UNL     1      10.554  15.298  20.616  0.00  0.00    +0.000 A 
ATOM     26  C   UNL     1      11.763  15.567  19.976  0.00  0.00    +0.000 A 
ATOM     27  C   UNL     1      12.084  14.920  18.783  0.00  0.00    +0.000 A 
ATOM     28  C   UNL     1      11.189  14.015  18.217  0.00  0.00    +0.000 A 
ENDBRANCH  20  23
ENDBRANCH  17  19
ENDBRANCH  14  16
ENDBRANCH  13  14
ENDBRANCH   1  13
BRANCH  12  29
ATOM     29  C   UNL     1       5.045   5.009  18.653  0.00  0.00    +0.000 C 
BRANCH  29  30
ATOM     30  C   UNL     1       3.944   6.050  18.677  0.00  0.00    +0.000 A 
ATOM     31  C   UNL     1       3.841   7.010  17.662  0.00  0.00    +0.000 A 
ATOM     32  C   UNL     1       2.917   8.052  17.754  0.00  0.00    +0.000 A 
ATOM     33  C   UNL     1       2.047   8.116  18.838  0.00  0.00    +0.000 A 
ATOM     34  C   UNL     1       2.083   7.125  19.816  0.00  0.00    +0.000 A 
ATOM     35  C   UNL     1       3.027   6.099  19.736  0.00  0.00    +0.000 A 
ENDBRANCH  29  30
ENDBRANCH  12  29
TORSDOF 7
ENDMDL
MODEL 5
REMARK VINA RESULT:      -8.2      1.064      1.630
REMARK  Name = 
REMARK  7 active torsions:
REMARK  status: ('A' for Active; 'I' for Inactive)
REMARK    1  A    between atoms: C_2  and  C_3
REMARK    2  A    between atoms: C_3  and  S_4
REMARK    3  A    between atoms: S_4  and  C_5
REMARK    4  A    between atoms: N_16  and  C_17
REMARK    5  A    between atoms: C_17  and  C_18
REMARK    6  A    between atoms: N_24  and  N_25
REMARK    7  A    between atoms: C_26  and  C_28
REMARK                            x       y       z     vdW  Elec       q    Type
REMARK                         _______ _______ _______ _____ _____    ______ ____
ROOT
ATOM      1  C   UNL     1       6.899   5.731  17.137  0.00  0.00    +0.000 A 
ATOM      2  N   UNL     1       7.482   5.758  15.985  0.00  0.00    +0.000 NA
ATOM      3  C   UNL     1       6.933   5.029  14.934  0.00  0.00    +0.000 A 
ATOM      4  C   UNL     1       7.553   5.074  13.682  0.00  0.00    +0.000 A 
ATOM      5  C   UNL     1       7.052   4.325  12.616  0.00  0.00    +0.000 A 
ATOM      6  C   UNL     1       5.922   3.529  12.800  0.00  0.00    +0.000 A 
ATOM      7 CL   UNL     1       5.319   2.588  11.493  0.00  0.00    +0.000 Cl
ATOM      8  C   UNL     1       5.278   3.495  14.035  0.00  0.00    +0.000 A 
ATOM      9  C   UNL     1       5.790   4.256  15.092  0.00  0.00    +0.000 A 
ATOM     10  C   UNL     1       5.120   4.296  16.403  0.00  0.00    +0.000 A 
ATOM     11  O   UNL     1       4.058   3.691  16.530  0.00  0.00    +0.000 OA
ATOM     12  N   UNL     1       5.727   5.051  17.410  0.00  0.00    +0.000 N 
ENDROOT
BRANCH   1  13
ATOM     13  S   UNL     1       7.674   6.714  18.355  0.00  0.00    +0.000 S 
BRANCH  13  14
ATOM     14  C   UNL     1       8.054   8.219  17.420  0.00  0.00    +0.000 C 
BRANCH  14  16
ATOM     15  O   UNL     1       8.895   9.370  19.347  0.00  0.00    +0.000 OA
ATOM     16  C   UNL     1       8.451   9.454  18.199  0.00  0.00    +0.000 C 
ATOM     17  N   UNL     1       8.171  10.672  17.621  0.00  0.00    +0.000 N 
ATOM     18  H   UNL     1       8.216  10.749  16.599  0.00  0.00    +0.000 HD
BRANCH  17  19
ATOM     19  N   UNL     1       8.624  11.804  18.313  0.00  0.00    +0.000 N 
ATOM     20  C   UNL     1       9.905  12.253  18.089  0.00  0.00    +0.000 C 
ATOM     21  O   UNL     1      10.700  11.697  17.337  0.00  0.00    +0.000 OA
ATOM     22  H   UNL     1       7.920  12.316  18.844  0.00  0.00    +0.000 HD
BRANCH  20  23
ATOM     23  C   UNL     1      10.286  13.490  18.814  0.00  0.00    +0.000 A 
ATOM     24  C   UNL     1      10.355  14.731  18.166  0.00  0.00    +0.000 A 
ATOM     25  C   UNL     1      10.749  15.865  18.878  0.00  0.00    +0.000 A 
ATOM     26  C   UNL     1      11.063  15.763  20.233  0.00  0.00    +0.000 A 
ATOM     27  C   UNL     1      10.965  14.534  20.885  0.00  0.00    +0.000 A 
ATOM     28  C   UNL     1      10.571  13.398  20.179  0.00  0.00    +0.000 A 
ENDBRANCH  20  23
ENDBRANCH  17  19
ENDBRANCH  14  16
ENDBRANCH  13  14
ENDBRANCH   1  13
BRANCH  12  29
ATOM     29  C   UNL     1       5.004   5.112  18.691  0.00  0.00    +0.000 C 
BRANCH  29  30
ATOM     30  C   UNL     1       3.976   6.225  18.728  0.00  0.00    +0.000 A 
ATOM     31  C   UNL     1       3.061   6.322  19.784  0.00  0.00    +0.000 A 
ATOM     32  C   UNL     1       2.027   7.258  19.750  0.00  0.00    +0.000 A 
ATOM     33  C   UNL     1       1.928   8.148  18.684  0.00  0.00    +0.000 A 
ATOM     34  C   UNL     1       2.877   8.116  17.665  0.00  0.00    +0.000 A 
ATOM     35  C   UNL     1       3.894   7.160  17.687  0.00  0.00    +0.000 A 
ENDBRANCH  29  30
ENDBRANCH  12  29
TORSDOF 7
ENDMDL
MODEL 6
REMARK VINA RESULT:      -8.2      3.658      5.765
REMARK  Name = 
REMARK  7 active torsions:
REMARK  status: ('A' for Active; 'I' for Inactive)
REMARK    1  A    between atoms: C_2  and  C_3
REMARK    2  A    between atoms: C_3  and  S_4
REMARK    3  A    between atoms: S_4  and  C_5
REMARK    4  A    between atoms: N_16  and  C_17
REMARK    5  A    between atoms: C_17  and  C_18
REMARK    6  A    between atoms: N_24  and  N_25
REMARK    7  A    between atoms: C_26  and  C_28
REMARK                            x       y       z     vdW  Elec       q    Type
REMARK                         _______ _______ _______ _____ _____    ______ ____
ROOT
ATOM      1  C   UNL     1       3.761   7.090  17.577  0.00  0.00    +0.000 A 
ATOM      2  N   UNL     1       3.328   8.275  17.297  0.00  0.00    +0.000 NA
ATOM      3  C   UNL     1       2.412   8.879  18.153  0.00  0.00    +0.000 A 
ATOM      4  C   UNL     1       1.959  10.169  17.860  0.00  0.00    +0.000 A 
ATOM      5  C   UNL     1       1.012  10.788  18.676  0.00  0.00    +0.000 A 
ATOM      6  C   UNL     1       0.516  10.118  19.794  0.00  0.00    +0.000 A 
ATOM      7 CL   UNL     1      -0.669  10.873  20.786  0.00  0.00    +0.000 Cl
ATOM      8  C   UNL     1       0.978   8.844  20.113  0.00  0.00    +0.000 A 
ATOM      9  C   UNL     1       1.932   8.238  19.287  0.00  0.00    +0.000 A 
ATOM     10  C   UNL     1       2.491   6.913  19.606  0.00  0.00    +0.000 A 
ATOM     11  O   UNL     1       2.145   6.374  20.655  0.00  0.00    +0.000 OA
ATOM     12  N   UNL     1       3.408   6.371  18.703  0.00  0.00    +0.000 N 
ENDROOT
BRANCH   1  13
ATOM     13  S   UNL     1       4.928   6.467  16.438  0.00  0.00    +0.000 S 
BRANCH  13  14
ATOM     14  C   UNL     1       6.144   5.703  17.543  0.00  0.00    +0.000 C 
BRANCH  14  16
ATOM     15  O   UNL     1       7.799   6.280  19.178  0.00  0.00    +0.000 OA
ATOM     16  C   UNL     1       7.215   6.592  18.137  0.00  0.00    +0.000 C 
ATOM     17  N   UNL     1       7.412   7.817  17.539  0.00  0.00    +0.000 N 
ATOM     18  H   UNL     1       7.272   7.893  16.526  0.00  0.00    +0.000 HD
BRANCH  17  19
ATOM     19  N   UNL     1       8.465   8.591  18.044  0.00  0.00    +0.000 N 
ATOM     20  C   UNL     1       8.376   9.962  17.976  0.00  0.00    +0.000 C 
ATOM     21  O   UNL     1       7.434  10.559  17.464  0.00  0.00    +0.000 OA
ATOM     22  H   UNL     1       9.182   8.087  18.565  0.00  0.00    +0.000 HD
BRANCH  20  23
ATOM     23  C   UNL     1       9.503  10.708  18.586  0.00  0.00    +0.000 A 
ATOM     24  C   UNL     1      10.567  11.195  17.815  0.00  0.00    +0.000 A 
ATOM     25  C   UNL     1      11.624  11.864  18.434  0.00  0.00    +0.000 A 
ATOM     26  C   UNL     1      11.615  12.055  19.815  0.00  0.00    +0.000 A 
ATOM     27  C   UNL     1      10.543  11.596  20.579  0.00  0.00    +0.000 A 
ATOM     28  C   UNL     1       9.484  10.929  19.966  0.00  0.00    +0.000 A 
ENDBRANCH  20  23
ENDBRANCH  17  19
ENDBRANCH  14  16
ENDBRANCH  13  14
ENDBRANCH   1  13
BRANCH  12  29
ATOM     29  C   UNL     1       3.987   5.070  19.077  0.00  0.00    +0.000 C 
BRANCH  29  30
ATOM     30  C   UNL     1       2.938   3.988  19.236  0.00  0.00    +0.000 A 
ATOM     31  C   UNL     1       2.058   3.682  18.190  0.00  0.00    +0.000 A 
ATOM     32  C   UNL     1       1.004   2.788  18.380  0.00  0.00    +0.000 A 
ATOM     33  C   UNL     1       0.849   2.146  19.606  0.00  0.00    +0.000 A 
ATOM     34  C   UNL     1       1.762   2.380  20.631  0.00  0.00    +0.000 A 
ATOM     35  C   UNL     1       2.799   3.297  20.448  0.00  0.00    +0.000 A 
ENDBRANCH  29  30
ENDBRANCH  12  29
TORSDOF 7
ENDMDL
MODEL 7
REMARK VINA RESULT:      -8.2      6.203     10.418
REMARK  Name = 
REMARK  7 active torsions:
REMARK  status: ('A' for Active; 'I' for Inactive)
REMARK    1  A    between atoms: C_2  and  C_3
REMARK    2  A    between atoms: C_3  and  S_4
REMARK    3  A    between atoms: S_4  and  C_5
REMARK    4  A    between atoms: N_16  and  C_17
REMARK    5  A    between atoms: C_17  and  C_18
REMARK    6  A    between atoms: N_24  and  N_25
REMARK    7  A    between atoms: C_26  and  C_28
REMARK                            x       y       z     vdW  Elec       q    Type
REMARK                         _______ _______ _______ _____ _____    ______ ____
ROOT
ATOM      1  C   UNL     1       0.531  11.750  20.815  0.00  0.00    +0.000 A 
ATOM      2  N   UNL     1       1.036  12.838  21.292  0.00  0.00    +0.000 NA
ATOM      3  C   UNL     1       1.954  13.550  20.525  0.00  0.00    +0.000 A 
ATOM      4  C   UNL     1       2.487  14.738  21.034  0.00  0.00    +0.000 A 
ATOM      5  C   UNL     1       3.438  15.456  20.307  0.00  0.00    +0.000 A 
ATOM      6  C   UNL     1       3.858  14.986  19.063  0.00  0.00    +0.000 A 
ATOM      7 CL   UNL     1       5.047  15.858  18.179  0.00  0.00    +0.000 Cl
ATOM      8  C   UNL     1       3.316  13.818  18.532  0.00  0.00    +0.000 A 
ATOM      9  C   UNL     1       2.359  13.113  19.271  0.00  0.00    +0.000 A 
ATOM     10  C   UNL     1       1.718  11.900  18.734  0.00  0.00    +0.000 A 
ATOM     11  O   UNL     1       1.998  11.554  17.589  0.00  0.00    +0.000 OA
ATOM     12  N   UNL     1       0.804  11.241  19.560  0.00  0.00    +0.000 N 
ENDROOT
BRANCH   1  13
ATOM     13  S   UNL     1      -0.630  10.978  21.868  0.00  0.00    +0.000 S 
BRANCH  13  14
ATOM     14  C   UNL     1       0.372   9.665  22.612  0.00  0.00    +0.000 C 
BRANCH  14  16
ATOM     15  O   UNL     1      -0.500   7.661  21.627  0.00  0.00    +0.000 OA
ATOM     16  C   UNL     1       0.492   8.356  21.862  0.00  0.00    +0.000 C 
ATOM     17  N   UNL     1       1.765   7.916  21.574  0.00  0.00    +0.000 N 
ATOM     18  H   UNL     1       2.490   8.616  21.382  0.00  0.00    +0.000 HD
BRANCH  17  19
ATOM     19  N   UNL     1       1.858   6.749  20.804  0.00  0.00    +0.000 N 
ATOM     20  C   UNL     1       2.307   6.843  19.507  0.00  0.00    +0.000 C 
ATOM     21  O   UNL     1       2.605   7.902  18.963  0.00  0.00    +0.000 OA
ATOM     22  H   UNL     1       1.716   5.871  21.301  0.00  0.00    +0.000 HD
BRANCH  20  23
ATOM     23  C   UNL     1       2.434   5.557  18.779  0.00  0.00    +0.000 A 
ATOM     24  C   UNL     1       3.457   5.336  17.846  0.00  0.00    +0.000 A 
ATOM     25  C   UNL     1       3.520   4.122  17.160  0.00  0.00    +0.000 A 
ATOM     26  C   UNL     1       2.574   3.129  17.410  0.00  0.00    +0.000 A 
ATOM     27  C   UNL     1       1.573   3.338  18.360  0.00  0.00    +0.000 A 
ATOM     28  C   UNL     1       1.506   4.547  19.049  0.00  0.00    +0.000 A 
ENDBRANCH  20  23
ENDBRANCH  17  19
ENDBRANCH  14  16
ENDBRANCH  13  14
ENDBRANCH   1  13
BRANCH  12  29
ATOM     29  C   UNL     1       0.143  10.063  18.975  0.00  0.00    +0.000 C 
BRANCH  29  30
ATOM     30  C   UNL     1      -1.151  10.412  18.266  0.00  0.00    +0.000 A 
ATOM     31  C   UNL     1      -1.492   9.803  17.052  0.00  0.00    +0.000 A 
ATOM     32  C   UNL     1      -2.609  10.223  16.330  0.00  0.00    +0.000 A 
ATOM     33  C   UNL     1      -3.431  11.224  16.840  0.00  0.00    +0.000 A 
ATOM     34  C   UNL     1      -3.150  11.785  18.084  0.00  0.00    +0.000 A 
ATOM     35  C   UNL     1      -2.016  11.382  18.791  0.00  0.00    +0.000 A 
ENDBRANCH  29  30
ENDBRANCH  12  29
TORSDOF 7
ENDMDL
MODEL 8
REMARK VINA RESULT:      -8.1      4.016      5.793
REMARK  Name = 
REMARK  7 active torsions:
REMARK  status: ('A' for Active; 'I' for Inactive)
REMARK    1  A    between atoms: C_2  and  C_3
REMARK    2  A    between atoms: C_3  and  S_4
REMARK    3  A    between atoms: S_4  and  C_5
REMARK    4  A    between atoms: N_16  and  C_17
REMARK    5  A    between atoms: C_17  and  C_18
REMARK    6  A    between atoms: N_24  and  N_25
REMARK    7  A    between atoms: C_26  and  C_28
REMARK                            x       y       z     vdW  Elec       q    Type
REMARK                         _______ _______ _______ _____ _____    ______ ____
ROOT
ATOM      1  C   UNL     1       3.525   6.756  18.185  0.00  0.00    +0.000 A 
ATOM      2  N   UNL     1       3.238   7.902  17.664  0.00  0.00    +0.000 NA
ATOM      3  C   UNL     1       2.339   8.736  18.323  0.00  0.00    +0.000 A 
ATOM      4  C   UNL     1       2.043   9.985  17.769  0.00  0.00    +0.000 A 
ATOM      5  C   UNL     1       1.118  10.830  18.383  0.00  0.00    +0.000 A 
ATOM      6  C   UNL     1       0.486  10.428  19.560  0.00  0.00    +0.000 A 
ATOM      7 CL   UNL     1      -0.671  11.460  20.303  0.00  0.00    +0.000 Cl
ATOM      8  C   UNL     1       0.792   9.198  20.137  0.00  0.00    +0.000 A 
ATOM      9  C   UNL     1       1.726   8.364  19.512  0.00  0.00    +0.000 A 
ATOM     10  C   UNL     1       2.122   7.076  20.106  0.00  0.00    +0.000 A 
ATOM     11  O   UNL     1       1.658   6.776  21.203  0.00  0.00    +0.000 OA
ATOM     12  N   UNL     1       3.031   6.293  19.390  0.00  0.00    +0.000 N 
ENDROOT
BRANCH   1  13
ATOM     13  S   UNL     1       4.689   5.827  17.272  0.00  0.00    +0.000 S 
BRANCH  13  14
ATOM     14  C   UNL     1       6.246   6.327  18.051  0.00  0.00    +0.000 C 
BRANCH  14  16
ATOM     15  O   UNL     1       6.523   8.162  16.533  0.00  0.00    +0.000 OA
ATOM     16  C   UNL     1       6.902   7.602  17.565  0.00  0.00    +0.000 C 
ATOM     17  N   UNL     1       8.019   8.029  18.249  0.00  0.00    +0.000 N 
ATOM     18  H   UNL     1       8.070   7.850  19.257  0.00  0.00    +0.000 HD
BRANCH  17  19
ATOM     19  N   UNL     1       8.563   9.255  17.842  0.00  0.00    +0.000 N 
ATOM     20  C   UNL     1       9.082  10.101  18.795  0.00  0.00    +0.000 C 
ATOM     21  O   UNL     1       9.068   9.862  19.999  0.00  0.00    +0.000 OA
ATOM     22  H   UNL     1       8.668   9.387  16.838  0.00  0.00    +0.000 HD
BRANCH  20  23
ATOM     23  C   UNL     1       9.692  11.350  18.278  0.00  0.00    +0.000 A 
ATOM     24  C   UNL     1       8.920  12.489  18.006  0.00  0.00    +0.000 A 
ATOM     25  C   UNL     1       9.530  13.633  17.490  0.00  0.00    +0.000 A 
ATOM     26  C   UNL     1      10.905  13.645  17.255  0.00  0.00    +0.000 A 
ATOM     27  C   UNL     1      11.677  12.522  17.553  0.00  0.00    +0.000 A 
ATOM     28  C   UNL     1      11.073  11.377  18.071  0.00  0.00    +0.000 A 
ENDBRANCH  20  23
ENDBRANCH  17  19
ENDBRANCH  14  16
ENDBRANCH  13  14
ENDBRANCH   1  13
BRANCH  12  29
ATOM     29  C   UNL     1       3.446   5.037  20.036  0.00  0.00    +0.000 C 
BRANCH  29  30
ATOM     30  C   UNL     1       2.651   3.841  19.551  0.00  0.00    +0.000 A 
ATOM     31  C   UNL     1       3.174   2.976  18.582  0.00  0.00    +0.000 A 
ATOM     32  C   UNL     1       2.392   1.959  18.034  0.00  0.00    +0.000 A 
ATOM     33  C   UNL     1       1.091   1.761  18.488  0.00  0.00    +0.000 A 
ATOM     34  C   UNL     1       0.582   2.563  19.507  0.00  0.00    +0.000 A 
ATOM     35  C   UNL     1       1.358   3.598  20.034  0.00  0.00    +0.000 A 
ENDBRANCH  29  30
ENDBRANCH  12  29
TORSDOF 7
ENDMDL
MODEL 9
REMARK VINA RESULT:      -8.0      1.153      2.057
REMARK  Name = 
REMARK  7 active torsions:
REMARK  status: ('A' for Active; 'I' for Inactive)
REMARK    1  A    between atoms: C_2  and  C_3
REMARK    2  A    between atoms: C_3  and  S_4
REMARK    3  A    between atoms: S_4  and  C_5
REMARK    4  A    between atoms: N_16  and  C_17
REMARK    5  A    between atoms: C_17  and  C_18
REMARK    6  A    between atoms: N_24  and  N_25
REMARK    7  A    between atoms: C_26  and  C_28
REMARK                            x       y       z     vdW  Elec       q    Type
REMARK                         _______ _______ _______ _____ _____    ______ ____
ROOT
ATOM      1  C   UNL     1       6.737   5.886  17.172  0.00  0.00    +0.000 A 
ATOM      2  N   UNL     1       7.426   5.713  16.093  0.00  0.00    +0.000 NA
ATOM      3  C   UNL     1       6.846   5.041  15.022  0.00  0.00    +0.000 A 
ATOM      4  C   UNL     1       7.584   4.871  13.847  0.00  0.00    +0.000 A 
ATOM      5  C   UNL     1       7.047   4.168  12.768  0.00  0.00    +0.000 A 
ATOM      6  C   UNL     1       5.762   3.634  12.861  0.00  0.00    +0.000 A 
ATOM      7 CL   UNL     1       5.109   2.748  11.539  0.00  0.00    +0.000 Cl
ATOM      8  C   UNL     1       5.004   3.818  14.015  0.00  0.00    +0.000 A 
ATOM      9  C   UNL     1       5.556   4.531  15.086  0.00  0.00    +0.000 A 
ATOM     10  C   UNL     1       4.780   4.798  16.309  0.00  0.00    +0.000 A 
ATOM     11  O   UNL     1       3.607   4.433  16.344  0.00  0.00    +0.000 OA
ATOM     12  N   UNL     1       5.427   5.481  17.341  0.00  0.00    +0.000 N 
ENDROOT
BRANCH   1  13
ATOM     13  S   UNL     1       7.575   6.773  18.422  0.00  0.00    +0.000 S 
BRANCH  13  14
ATOM     14  C   UNL     1       8.243   8.175  17.488  0.00  0.00    +0.000 C 
BRANCH  14  16
ATOM     15  O   UNL     1       7.825  10.520  17.757  0.00  0.00    +0.000 OA
ATOM     16  C   UNL     1       8.367   9.504  18.200  0.00  0.00    +0.000 C 
ATOM     17  N   UNL     1       9.215   9.555  19.285  0.00  0.00    +0.000 N 
ATOM     18  H   UNL     1       9.307   8.717  19.870  0.00  0.00    +0.000 HD
BRANCH  17  19
ATOM     19  N   UNL     1       9.252  10.767  19.986  0.00  0.00    +0.000 N 
ATOM     20  C   UNL     1      10.354  11.580  19.853  0.00  0.00    +0.000 C 
ATOM     21  O   UNL     1      11.335  11.292  19.175  0.00  0.00    +0.000 OA
ATOM     22  H   UNL     1       8.388  11.042  20.452  0.00  0.00    +0.000 HD
BRANCH  20  23
ATOM     23  C   UNL     1      10.288  12.871  20.580  0.00  0.00    +0.000 A 
ATOM     24  C   UNL     1      11.064  13.973  20.194  0.00  0.00    +0.000 A 
ATOM     25  C   UNL     1      10.996  15.160  20.926  0.00  0.00    +0.000 A 
ATOM     26  C   UNL     1      10.150  15.250  22.031  0.00  0.00    +0.000 A 
ATOM     27  C   UNL     1       9.356  14.163  22.397  0.00  0.00    +0.000 A 
ATOM     28  C   UNL     1       9.419  12.977  21.669  0.00  0.00    +0.000 A 
ENDBRANCH  20  23
ENDBRANCH  17  19
ENDBRANCH  14  16
ENDBRANCH  13  14
ENDBRANCH   1  13
BRANCH  12  29
ATOM     29  C   UNL     1       4.609   5.778  18.528  0.00  0.00    +0.000 C 
BRANCH  29  30
ATOM     30  C   UNL     1       4.002   4.533  19.144  0.00  0.00    +0.000 A 
ATOM     31  C   UNL     1       2.635   4.474  19.446  0.00  0.00    +0.000 A 
ATOM     32  C   UNL     1       2.103   3.387  20.140  0.00  0.00    +0.000 A 
ATOM     33  C   UNL     1       2.921   2.318  20.494  0.00  0.00    +0.000 A 
ATOM     34  C   UNL     1       4.267   2.326  20.131  0.00  0.00    +0.000 A 
ATOM     35  C   UNL     1       4.803   3.427  19.462  0.00  0.00    +0.000 A 
ENDBRANCH  29  30
ENDBRANCH  12  29
TORSDOF 7
ENDMDL
