MODEL 1
REMARK VINA RESULT:      -8.2      0.000      0.000
REMARK  Name = 
REMARK  0 active torsions:
REMARK  status: ('A' for Active; 'I' for Inactive)
REMARK                            x       y       z     vdW  Elec       q    Type
REMARK                         _______ _______ _______ _____ _____    ______ ____
ROOT
ATOM      1  O   UNL     1       0.771   6.961  21.510  0.00  0.00    +0.000 OA
ATOM      2  C   UNL     1       1.453   6.958  20.507  0.00  0.00    +0.000 C 
ATOM      3  C   UNL     1       1.688   8.124  19.636  0.00  0.00    +0.000 A 
ATOM      4  C   UNL     1       1.217   9.419  19.762  0.00  0.00    +0.000 A 
ATOM      5  C   UNL     1       1.560  10.328  18.760  0.00  0.00    +0.000 A 
ATOM      6  C   UNL     1       2.264   9.897  17.629  0.00  0.00    +0.000 A 
ATOM      7  C   UNL     1       2.657   8.561  17.503  0.00  0.00    +0.000 A 
ATOM      8  C   UNL     1       2.472   7.690  18.565  0.00  0.00    +0.000 A 
ATOM      9  C   UNL     1       2.887   6.310  18.784  0.00  0.00    +0.000 A 
ATOM     10  C   UNL     1       3.807   5.475  18.159  0.00  0.00    +0.000 A 
ATOM     11  N   UNL     1       4.758   5.869  17.249  0.00  0.00    +0.000 N 
ATOM     12  C   UNL     1       5.359   7.211  17.212  0.00  0.00    +0.000 C 
ATOM     13  C   UNL     1       6.893   7.195  17.207  0.00  0.00    +0.000 C 
ATOM     14  N   UNL     1       7.443   6.336  16.152  0.00  0.00    +0.000 NA
ATOM     15  C   UNL     1       6.917   4.972  16.351  0.00  0.00    +0.000 C 
ATOM     16  C   UNL     1       5.371   4.884  16.343  0.00  0.00    +0.000 C 
ATOM     17  N   UNL     1       3.806   4.156  18.511  0.00  0.00    +0.000 NA
ATOM     18  C   UNL     1       3.048   3.672  19.525  0.00  0.00    +0.000 A 
ATOM     19  C   UNL     1       3.068   2.308  19.796  0.00  0.00    +0.000 A 
ATOM     20  C   UNL     1       2.339   1.745  20.851  0.00  0.00    +0.000 A 
ATOM     21  C   UNL     1       1.589   2.564  21.681  0.00  0.00    +0.000 A 
ATOM     22  C   UNL     1       1.542   3.934  21.427  0.00  0.00    +0.000 A 
ATOM     23  C   UNL     1       2.245   4.487  20.328  0.00  0.00    +0.000 A 
ATOM     24  C   UNL     1       2.197   5.817  19.913  0.00  0.00    +0.000 A 
ATOM     25  H   UNL     1       8.458   6.322  16.231  0.00  0.00    +0.000 HD
ENDROOT
TORSDOF 0
ENDMDL
MODEL 2
REMARK VINA RESULT:      -7.5      6.365      9.244
REMARK  Name = 
REMARK  0 active torsions:
REMARK  status: ('A' for Active; 'I' for Inactive)
REMARK                            x       y       z     vdW  Elec       q    Type
REMARK                         _______ _______ _______ _____ _____    ______ ____
ROOT
ATOM      1  O   UNL     1      -5.939  13.070  19.288  0.00  0.00    +0.000 OA
ATOM      2  C   UNL     1      -4.860  12.938  19.826  0.00  0.00    +0.000 C 
ATOM      3  C   UNL     1      -4.480  13.525  21.123  0.00  0.00    +0.000 A 
ATOM      4  C   UNL     1      -5.229  14.313  21.980  0.00  0.00    +0.000 A 
ATOM      5  C   UNL     1      -4.603  14.778  23.137  0.00  0.00    +0.000 A 
ATOM      6  C   UNL     1      -3.240  14.534  23.348  0.00  0.00    +0.000 A 
ATOM      7  C   UNL     1      -2.499  13.797  22.420  0.00  0.00    +0.000 A 
ATOM      8  C   UNL     1      -3.145  13.187  21.357  0.00  0.00    +0.000 A 
ATOM      9  C   UNL     1      -2.682  12.266  20.326  0.00  0.00    +0.000 A 
ATOM     10  C   UNL     1      -1.542  11.482  20.183  0.00  0.00    +0.000 A 
ATOM     11  N   UNL     1      -0.619  11.224  21.167  0.00  0.00    +0.000 N 
ATOM     12  C   UNL     1      -0.927  11.207  22.604  0.00  0.00    +0.000 C 
ATOM     13  C   UNL     1      -0.465   9.929  23.316  0.00  0.00    +0.000 C 
ATOM     14  N   UNL     1       0.951   9.630  23.072  0.00  0.00    +0.000 NA
ATOM     15  C   UNL     1       1.148   9.507  21.615  0.00  0.00    +0.000 C 
ATOM     16  C   UNL     1       0.734  10.764  20.813  0.00  0.00    +0.000 C 
ATOM     17  N   UNL     1      -1.341  10.872  18.979  0.00  0.00    +0.000 NA
ATOM     18  C   UNL     1      -2.263  10.894  17.986  0.00  0.00    +0.000 A 
ATOM     19  C   UNL     1      -1.967  10.285  16.771  0.00  0.00    +0.000 A 
ATOM     20  C   UNL     1      -2.886  10.238  15.715  0.00  0.00    +0.000 A 
ATOM     21  C   UNL     1      -4.149  10.786  15.880  0.00  0.00    +0.000 A 
ATOM     22  C   UNL     1      -4.471  11.412  17.083  0.00  0.00    +0.000 A 
ATOM     23  C   UNL     1      -3.516  11.497  18.128  0.00  0.00    +0.000 A 
ATOM     24  C   UNL     1      -3.681  12.179  19.332  0.00  0.00    +0.000 A 
ATOM     25  H   UNL     1       1.186   8.747  23.521  0.00  0.00    +0.000 HD
ENDROOT
TORSDOF 0
ENDMDL
MODEL 3
REMARK VINA RESULT:      -7.4      2.187      5.811
REMARK  Name = 
REMARK  0 active torsions:
REMARK  status: ('A' for Active; 'I' for Inactive)
REMARK                            x       y       z     vdW  Elec       q    Type
REMARK                         _______ _______ _______ _____ _____    ______ ____
ROOT
ATOM      1  O   UNL     1       5.410   2.507  19.606  0.00  0.00    +0.000 OA
ATOM      2  C   UNL     1       4.520   3.325  19.503  0.00  0.00    +0.000 C 
ATOM      3  C   UNL     1       3.248   3.295  20.248  0.00  0.00    +0.000 A 
ATOM      4  C   UNL     1       2.807   2.381  21.189  0.00  0.00    +0.000 A 
ATOM      5  C   UNL     1       1.527   2.566  21.713  0.00  0.00    +0.000 A 
ATOM      6  C   UNL     1       0.701   3.580  21.214  0.00  0.00    +0.000 A 
ATOM      7  C   UNL     1       1.157   4.437  20.207  0.00  0.00    +0.000 A 
ATOM      8  C   UNL     1       2.480   4.372  19.801  0.00  0.00    +0.000 A 
ATOM      9  C   UNL     1       3.269   5.198  18.895  0.00  0.00    +0.000 A 
ATOM     10  C   UNL     1       3.077   6.456  18.333  0.00  0.00    +0.000 A 
ATOM     11  N   UNL     1       2.113   7.361  18.705  0.00  0.00    +0.000 N 
ATOM     12  C   UNL     1       1.535   7.444  20.055  0.00  0.00    +0.000 C 
ATOM     13  C   UNL     1       1.582   8.855  20.656  0.00  0.00    +0.000 C 
ATOM     14  N   UNL     1       0.999   9.865  19.765  0.00  0.00    +0.000 NA
ATOM     15  C   UNL     1       1.736   9.828  18.488  0.00  0.00    +0.000 C 
ATOM     16  C   UNL     1       1.721   8.446  17.790  0.00  0.00    +0.000 C 
ATOM     17  N   UNL     1       3.948   6.854  17.361  0.00  0.00    +0.000 NA
ATOM     18  C   UNL     1       5.049   6.137  17.029  0.00  0.00    +0.000 A 
ATOM     19  C   UNL     1       5.867   6.586  15.997  0.00  0.00    +0.000 A 
ATOM     20  C   UNL     1       7.039   5.915  15.627  0.00  0.00    +0.000 A 
ATOM     21  C   UNL     1       7.428   4.779  16.321  0.00  0.00    +0.000 A 
ATOM     22  C   UNL     1       6.623   4.300  17.352  0.00  0.00    +0.000 A 
ATOM     23  C   UNL     1       5.414   4.959  17.687  0.00  0.00    +0.000 A 
ATOM     24  C   UNL     1       4.480   4.524  18.626  0.00  0.00    +0.000 A 
ATOM     25  H   UNL     1       1.106  10.784  20.191  0.00  0.00    +0.000 HD
ENDROOT
TORSDOF 0
ENDMDL
MODEL 4
REMARK VINA RESULT:      -7.3      5.143      8.079
REMARK  Name = 
REMARK  0 active torsions:
REMARK  status: ('A' for Active; 'I' for Inactive)
REMARK                            x       y       z     vdW  Elec       q    Type
REMARK                         _______ _______ _______ _____ _____    ______ ____
ROOT
ATOM      1  O   UNL     1      -4.794  12.965  19.800  0.00  0.00    +0.000 OA
ATOM      2  C   UNL     1      -3.663  12.576  19.999  0.00  0.00    +0.000 C 
ATOM      3  C   UNL     1      -2.858  12.881  21.196  0.00  0.00    +0.000 A 
ATOM      4  C   UNL     1      -3.194  13.633  22.308  0.00  0.00    +0.000 A 
ATOM      5  C   UNL     1      -2.216  13.801  23.289  0.00  0.00    +0.000 A 
ATOM      6  C   UNL     1      -0.921  13.309  23.085  0.00  0.00    +0.000 A 
ATOM      7  C   UNL     1      -0.600  12.618  21.912  0.00  0.00    +0.000 A 
ATOM      8  C   UNL     1      -1.603  12.297  21.011  0.00  0.00    +0.000 A 
ATOM      9  C   UNL     1      -1.608  11.490  19.797  0.00  0.00    +0.000 A 
ATOM     10  C   UNL     1      -0.720  10.564  19.258  0.00  0.00    +0.000 A 
ATOM     11  N   UNL     1       0.351  10.007  19.912  0.00  0.00    +0.000 N 
ATOM     12  C   UNL     1       0.420   9.812  21.368  0.00  0.00    +0.000 C 
ATOM     13  C   UNL     1       0.783   8.379  21.778  0.00  0.00    +0.000 C 
ATOM     14  N   UNL     1       2.002   7.898  21.119  0.00  0.00    +0.000 NA
ATOM     15  C   UNL     1       1.796   7.977  19.660  0.00  0.00    +0.000 C 
ATOM     16  C   UNL     1       1.451   9.396  19.148  0.00  0.00    +0.000 C 
ATOM     17  N   UNL     1      -0.956  10.129  17.986  0.00  0.00    +0.000 NA
ATOM     18  C   UNL     1      -2.076  10.457  17.298  0.00  0.00    +0.000 A 
ATOM     19  C   UNL     1      -2.224  10.010  15.989  0.00  0.00    +0.000 A 
ATOM     20  C   UNL     1      -3.371  10.280  15.232  0.00  0.00    +0.000 A 
ATOM     21  C   UNL     1      -4.416  10.992  15.801  0.00  0.00    +0.000 A 
ATOM     22  C   UNL     1      -4.292  11.463  17.107  0.00  0.00    +0.000 A 
ATOM     23  C   UNL     1      -3.107  11.225  17.847  0.00  0.00    +0.000 A 
ATOM     24  C   UNL     1      -2.823  11.725  19.117  0.00  0.00    +0.000 A 
ATOM     25  H   UNL     1       2.163   6.928  21.386  0.00  0.00    +0.000 HD
ENDROOT
TORSDOF 0
ENDMDL
MODEL 5
REMARK VINA RESULT:      -7.1      7.643      9.368
REMARK  Name = 
REMARK  0 active torsions:
REMARK  status: ('A' for Active; 'I' for Inactive)
REMARK                            x       y       z     vdW  Elec       q    Type
REMARK                         _______ _______ _______ _____ _____    ______ ____
ROOT
ATOM      1  O   UNL     1      -6.143  12.413  19.031  0.00  0.00    +0.000 OA
ATOM      2  C   UNL     1      -4.956  12.166  19.007  0.00  0.00    +0.000 C 
ATOM      3  C   UNL     1      -4.220  11.640  17.843  0.00  0.00    +0.000 A 
ATOM      4  C   UNL     1      -4.689  11.332  16.577  0.00  0.00    +0.000 A 
ATOM      5  C   UNL     1      -3.776  10.802  15.665  0.00  0.00    +0.000 A 
ATOM      6  C   UNL     1      -2.470  10.501  16.070  0.00  0.00    +0.000 A 
ATOM      7  C   UNL     1      -2.056  10.757  17.380  0.00  0.00    +0.000 A 
ATOM      8  C   UNL     1      -2.897  11.439  18.243  0.00  0.00    +0.000 A 
ATOM      9  C   UNL     1      -2.706  11.960  19.591  0.00  0.00    +0.000 A 
ATOM     10  C   UNL     1      -1.583  12.195  20.378  0.00  0.00    +0.000 A 
ATOM     11  N   UNL     1      -0.281  12.180  19.940  0.00  0.00    +0.000 N 
ATOM     12  C   UNL     1       0.131  12.497  18.564  0.00  0.00    +0.000 C 
ATOM     13  C   UNL     1       1.236  13.559  18.484  0.00  0.00    +0.000 C 
ATOM     14  N   UNL     1       2.393  13.230  19.324  0.00  0.00    +0.000 NA
ATOM     15  C   UNL     1       1.923  13.083  20.715  0.00  0.00    +0.000 C 
ATOM     16  C   UNL     1       0.822  12.009  20.899  0.00  0.00    +0.000 C 
ATOM     17  N   UNL     1      -1.785  12.519  21.688  0.00  0.00    +0.000 NA
ATOM     18  C   UNL     1      -3.017  12.747  22.202  0.00  0.00    +0.000 A 
ATOM     19  C   UNL     1      -3.146  13.030  23.558  0.00  0.00    +0.000 A 
ATOM     20  C   UNL     1      -4.384  13.313  24.149  0.00  0.00    +0.000 A 
ATOM     21  C   UNL     1      -5.527  13.344  23.364  0.00  0.00    +0.000 A 
ATOM     22  C   UNL     1      -5.431  13.054  22.004  0.00  0.00    +0.000 A 
ATOM     23  C   UNL     1      -4.180  12.722  21.427  0.00  0.00    +0.000 A 
ATOM     24  C   UNL     1      -3.970  12.318  20.109  0.00  0.00    +0.000 A 
ATOM     25  H   UNL     1       3.067  13.992  19.274  0.00  0.00    +0.000 HD
ENDROOT
TORSDOF 0
ENDMDL
MODEL 6
REMARK VINA RESULT:      -6.9      6.630      9.682
REMARK  Name = 
REMARK  0 active torsions:
REMARK  status: ('A' for Active; 'I' for Inactive)
REMARK                            x       y       z     vdW  Elec       q    Type
REMARK                         _______ _______ _______ _____ _____    ______ ____
ROOT
ATOM      1  O   UNL     1      -6.049  13.855  20.980  0.00  0.00    +0.000 OA
ATOM      2  C   UNL     1      -4.897  13.567  21.229  0.00  0.00    +0.000 C 
ATOM      3  C   UNL     1      -4.172  13.948  22.454  0.00  0.00    +0.000 A 
ATOM      4  C   UNL     1      -4.617  14.674  23.544  0.00  0.00    +0.000 A 
ATOM      5  C   UNL     1      -3.699  14.932  24.563  0.00  0.00    +0.000 A 
ATOM      6  C   UNL     1      -2.358  14.553  24.416  0.00  0.00    +0.000 A 
ATOM      7  C   UNL     1      -1.931  13.886  23.264  0.00  0.00    +0.000 A 
ATOM      8  C   UNL     1      -2.864  13.474  22.326  0.00  0.00    +0.000 A 
ATOM      9  C   UNL     1      -2.749  12.662  21.121  0.00  0.00    +0.000 A 
ATOM     10  C   UNL     1      -1.763  11.814  20.627  0.00  0.00    +0.000 A 
ATOM     11  N   UNL     1      -0.676  11.355  21.329  0.00  0.00    +0.000 N 
ATOM     12  C   UNL     1      -0.651  11.176  22.789  0.00  0.00    +0.000 C 
ATOM     13  C   UNL     1      -0.183   9.782  23.227  0.00  0.00    +0.000 C 
ATOM     14  N   UNL     1       1.100   9.404  22.623  0.00  0.00    +0.000 NA
ATOM     15  C   UNL     1       0.948   9.457  21.156  0.00  0.00    +0.000 C 
ATOM     16  C   UNL     1       0.503  10.838  20.616  0.00  0.00    +0.000 C 
ATOM     17  N   UNL     1      -1.908  11.352  19.351  0.00  0.00    +0.000 NA
ATOM     18  C   UNL     1      -3.022  11.578  18.614  0.00  0.00    +0.000 A 
ATOM     19  C   UNL     1      -3.077  11.112  17.305  0.00  0.00    +0.000 A 
ATOM     20  C   UNL     1      -4.211  11.277  16.499  0.00  0.00    +0.000 A 
ATOM     21  C   UNL     1      -5.336  11.900  17.018  0.00  0.00    +0.000 A 
ATOM     22  C   UNL     1      -5.307  12.387  18.324  0.00  0.00    +0.000 A 
ATOM     23  C   UNL     1      -4.137  12.257  19.114  0.00  0.00    +0.000 A 
ATOM     24  C   UNL     1      -3.951  12.787  20.390  0.00  0.00    +0.000 A 
ATOM     25  H   UNL     1       1.333   8.454  22.905  0.00  0.00    +0.000 HD
ENDROOT
TORSDOF 0
ENDMDL
MODEL 7
REMARK VINA RESULT:      -6.8      7.720     10.861
REMARK  Name = 
REMARK  0 active torsions:
REMARK  status: ('A' for Active; 'I' for Inactive)
REMARK                            x       y       z     vdW  Elec       q    Type
REMARK                         _______ _______ _______ _____ _____    ______ ____
ROOT
ATOM      1  O   UNL     1      -4.576  10.833  16.645  0.00  0.00    +0.000 OA
ATOM      2  C   UNL     1      -4.625  11.550  17.622  0.00  0.00    +0.000 C 
ATOM      3  C   UNL     1      -5.765  12.409  17.989  0.00  0.00    +0.000 A 
ATOM      4  C   UNL     1      -6.976  12.580  17.341  0.00  0.00    +0.000 A 
ATOM      5  C   UNL     1      -7.872  13.500  17.886  0.00  0.00    +0.000 A 
ATOM      6  C   UNL     1      -7.496  14.286  18.983  0.00  0.00    +0.000 A 
ATOM      7  C   UNL     1      -6.233  14.136  19.563  0.00  0.00    +0.000 A 
ATOM      8  C   UNL     1      -5.402  13.111  19.140  0.00  0.00    +0.000 A 
ATOM      9  C   UNL     1      -4.117  12.627  19.629  0.00  0.00    +0.000 A 
ATOM     10  C   UNL     1      -3.402  12.824  20.806  0.00  0.00    +0.000 A 
ATOM     11  N   UNL     1      -3.890  13.405  21.951  0.00  0.00    +0.000 N 
ATOM     12  C   UNL     1      -5.305  13.380  22.352  0.00  0.00    +0.000 C 
ATOM     13  C   UNL     1      -5.528  12.877  23.784  0.00  0.00    +0.000 C 
ATOM     14  N   UNL     1      -4.709  13.597  24.766  0.00  0.00    +0.000 NA
ATOM     15  C   UNL     1      -3.293  13.444  24.383  0.00  0.00    +0.000 C 
ATOM     16  C   UNL     1      -2.966  13.952  22.958  0.00  0.00    +0.000 C 
ATOM     17  N   UNL     1      -2.120  12.359  20.853  0.00  0.00    +0.000 NA
ATOM     18  C   UNL     1      -1.579  11.608  19.864  0.00  0.00    +0.000 A 
ATOM     19  C   UNL     1      -0.251  11.207  19.965  0.00  0.00    +0.000 A 
ATOM     20  C   UNL     1       0.361  10.399  18.998  0.00  0.00    +0.000 A 
ATOM     21  C   UNL     1      -0.375   9.951  17.911  0.00  0.00    +0.000 A 
ATOM     22  C   UNL     1      -1.705  10.346  17.778  0.00  0.00    +0.000 A 
ATOM     23  C   UNL     1      -2.301  11.203  18.738  0.00  0.00    +0.000 A 
ATOM     24  C   UNL     1      -3.583  11.744  18.664  0.00  0.00    +0.000 A 
ATOM     25  H   UNL     1      -4.857  13.187  25.686  0.00  0.00    +0.000 HD
ENDROOT
TORSDOF 0
ENDMDL
MODEL 8
REMARK VINA RESULT:      -6.8      2.333      4.746
REMARK  Name = 
REMARK  0 active torsions:
REMARK  status: ('A' for Active; 'I' for Inactive)
REMARK                            x       y       z     vdW  Elec       q    Type
REMARK                         _______ _______ _______ _____ _____    ______ ____
ROOT
ATOM      1  O   UNL     1       4.065   2.279  17.135  0.00  0.00    +0.000 OA
ATOM      2  C   UNL     1       3.963   3.459  17.395  0.00  0.00    +0.000 C 
ATOM      3  C   UNL     1       4.526   4.558  16.590  0.00  0.00    +0.000 A 
ATOM      4  C   UNL     1       5.254   4.498  15.414  0.00  0.00    +0.000 A 
ATOM      5  C   UNL     1       5.709   5.703  14.878  0.00  0.00    +0.000 A 
ATOM      6  C   UNL     1       5.517   6.902  15.576  0.00  0.00    +0.000 A 
ATOM      7  C   UNL     1       4.841   6.911  16.799  0.00  0.00    +0.000 A 
ATOM      8  C   UNL     1       4.237   5.751  17.257  0.00  0.00    +0.000 A 
ATOM      9  C   UNL     1       3.370   5.482  18.397  0.00  0.00    +0.000 A 
ATOM     10  C   UNL     1       2.640   6.293  19.259  0.00  0.00    +0.000 A 
ATOM     11  N   UNL     1       2.391   7.632  19.080  0.00  0.00    +0.000 N 
ATOM     12  C   UNL     1       2.317   8.290  17.767  0.00  0.00    +0.000 C 
ATOM     13  C   UNL     1       1.038   9.113  17.565  0.00  0.00    +0.000 C 
ATOM     14  N   UNL     1       0.808  10.070  18.653  0.00  0.00    +0.000 NA
ATOM     15  C   UNL     1       0.738   9.316  19.919  0.00  0.00    +0.000 C 
ATOM     16  C   UNL     1       2.001   8.474  20.223  0.00  0.00    +0.000 C 
ATOM     17  N   UNL     1       2.077   5.707  20.355  0.00  0.00    +0.000 NA
ATOM     18  C   UNL     1       2.090   4.366  20.553  0.00  0.00    +0.000 A 
ATOM     19  C   UNL     1       1.532   3.846  21.717  0.00  0.00    +0.000 A 
ATOM     20  C   UNL     1       1.478   2.470  21.970  0.00  0.00    +0.000 A 
ATOM     21  C   UNL     1       1.966   1.579  21.026  0.00  0.00    +0.000 A 
ATOM     22  C   UNL     1       2.541   2.071  19.855  0.00  0.00    +0.000 A 
ATOM     23  C   UNL     1       2.634   3.468  19.631  0.00  0.00    +0.000 A 
ATOM     24  C   UNL     1       3.271   4.082  18.553  0.00  0.00    +0.000 A 
ATOM     25  H   UNL     1      -0.078  10.547  18.494  0.00  0.00    +0.000 HD
ENDROOT
TORSDOF 0
ENDMDL
MODEL 9
REMARK VINA RESULT:      -6.8      7.981     10.439
REMARK  Name = 
REMARK  0 active torsions:
REMARK  status: ('A' for Active; 'I' for Inactive)
REMARK                            x       y       z     vdW  Elec       q    Type
REMARK                         _______ _______ _______ _____ _____    ______ ____
ROOT
ATOM      1  O   UNL     1      -6.555  11.993  17.311  0.00  0.00    +0.000 OA
ATOM      2  C   UNL     1      -5.472  11.868  17.841  0.00  0.00    +0.000 C 
ATOM      3  C   UNL     1      -4.291  11.237  17.224  0.00  0.00    +0.000 A 
ATOM      4  C   UNL     1      -4.155  10.681  15.965  0.00  0.00    +0.000 A 
ATOM      5  C   UNL     1      -2.924  10.104  15.647  0.00  0.00    +0.000 A 
ATOM      6  C   UNL     1      -1.919  10.010  16.617  0.00  0.00    +0.000 A 
ATOM      7  C   UNL     1      -2.123  10.518  17.903  0.00  0.00    +0.000 A 
ATOM      8  C   UNL     1      -3.272  11.242  18.179  0.00  0.00    +0.000 A 
ATOM      9  C   UNL     1      -3.698  11.993  19.353  0.00  0.00    +0.000 A 
ATOM     10  C   UNL     1      -3.036  12.468  20.480  0.00  0.00    +0.000 A 
ATOM     11  N   UNL     1      -1.673  12.515  20.648  0.00  0.00    +0.000 N 
ATOM     12  C   UNL     1      -0.710  12.643  19.545  0.00  0.00    +0.000 C 
ATOM     13  C   UNL     1       0.296  13.786  19.739  0.00  0.00    +0.000 C 
ATOM     14  N   UNL     1       0.978  13.719  21.037  0.00  0.00    +0.000 NA
ATOM     15  C   UNL     1      -0.048  13.754  22.096  0.00  0.00    +0.000 C 
ATOM     16  C   UNL     1      -1.095  12.617  21.998  0.00  0.00    +0.000 C 
ATOM     17  N   UNL     1      -3.796  12.979  21.492  0.00  0.00    +0.000 NA
ATOM     18  C   UNL     1      -5.134  13.161  21.380  0.00  0.00    +0.000 A 
ATOM     19  C   UNL     1      -5.847  13.647  22.471  0.00  0.00    +0.000 A 
ATOM     20  C   UNL     1      -7.225  13.894  22.414  0.00  0.00    +0.000 A 
ATOM     21  C   UNL     1      -7.911  13.678  21.229  0.00  0.00    +0.000 A 
ATOM     22  C   UNL     1      -7.225  13.181  20.122  0.00  0.00    +0.000 A 
ATOM     23  C   UNL     1      -5.841  12.890  20.205  0.00  0.00    +0.000 A 
ATOM     24  C   UNL     1      -5.069  12.299  19.205  0.00  0.00    +0.000 A 
ATOM     25  H   UNL     1       1.590  14.527  21.132  0.00  0.00    +0.000 HD
ENDROOT
TORSDOF 0
ENDMDL
