MODEL 1
REMARK VINA RESULT:      -8.0      0.000      0.000
REMARK  Name = 
REMARK  4 active torsions:
REMARK  status: ('A' for Active; 'I' for Inactive)
REMARK    1  A    between atoms: O_1  and  C_2
REMARK    2  A    between atoms: C_2  and  C_3
REMARK    3  A    between atoms: C_10  and  C_11
REMARK    4  A    between atoms: C_12  and  C_13
REMARK                            x       y       z     vdW  Elec       q    Type
REMARK                         _______ _______ _______ _____ _____    ______ ____
ROOT
ATOM      1  C   UNL     1       7.483   8.132  17.531  0.00  0.00    +0.000 C 
ATOM      2  C   UNL     1       8.227   9.074  18.041  0.00  0.00    +0.000 C 
ENDROOT
BRANCH   2   3
ATOM      3  C   UNL     1       9.056  10.113  18.563  0.00  0.00    +0.000 A 
ATOM      4  C   UNL     1       9.162  10.295  19.941  0.00  0.00    +0.000 A 
ATOM      5  C   UNL     1       9.992  11.294  20.451  0.00  0.00    +0.000 A 
ATOM      6  C   UNL     1      10.731  12.120  19.588  0.00  0.00    +0.000 A 
ATOM      7  C   UNL     1      11.598  13.109  20.082  0.00  0.00    +0.000 A 
ATOM      8  C   UNL     1      12.333  13.913  19.211  0.00  0.00    +0.000 A 
ATOM      9  C   UNL     1      12.198  13.753  17.835  0.00  0.00    +0.000 A 
ATOM     10  C   UNL     1      11.337  12.782  17.326  0.00  0.00    +0.000 A 
ATOM     11  C   UNL     1      10.605  11.950  18.191  0.00  0.00    +0.000 A 
ATOM     12  C   UNL     1       9.759  10.946  17.691  0.00  0.00    +0.000 A 
ENDBRANCH   2   3
BRANCH   1  20
ATOM     13  C   UNL     1       5.923   4.240  16.530  0.00  0.00    +0.000 C 
ATOM     14  C   UNL     1       5.048   5.170  17.404  0.00  0.00    +0.000 C 
ATOM     15  C   UNL     1       5.934   6.235  18.071  0.00  0.00    +0.000 C 
ATOM     16  C   UNL     1       6.999   5.485  18.900  0.00  0.00    +0.000 C 
ATOM     17  C   UNL     1       7.826   4.575  17.978  0.00  0.00    +0.000 C 
ATOM     18  N   UNL     1       7.361   4.649  16.571  0.00  0.00    +0.000 NA
ATOM     19  C   UNL     1       7.516   6.061  16.132  0.00  0.00    +0.000 C 
ATOM     20  C   UNL     1       6.616   7.035  16.937  0.00  0.00    +0.000 C 
BRANCH  13  21
ATOM     21  C   UNL     1       5.368   4.080  15.096  0.00  0.00    +0.000 C 
BRANCH  21  22
ATOM     22  O   UNL     1       6.207   3.283  14.265  0.00  0.00    +0.000 OA
ATOM     23  H   UNL     1       5.759   2.426  14.159  0.00  0.00    +0.000 HD
ENDBRANCH  21  22
ENDBRANCH  13  21
ENDBRANCH   1  20
TORSDOF 4
ENDMDL
MODEL 2
REMARK VINA RESULT:      -7.9      5.129      7.763
REMARK  Name = 
REMARK  4 active torsions:
REMARK  status: ('A' for Active; 'I' for Inactive)
REMARK    1  A    between atoms: O_1  and  C_2
REMARK    2  A    between atoms: C_2  and  C_3
REMARK    3  A    between atoms: C_10  and  C_11
REMARK    4  A    between atoms: C_12  and  C_13
REMARK                            x       y       z     vdW  Elec       q    Type
REMARK                         _______ _______ _______ _____ _____    ______ ____
ROOT
ATOM      1  C   UNL     1       3.442   6.887  17.618  0.00  0.00    +0.000 C 
ATOM      2  C   UNL     1       2.672   7.678  18.312  0.00  0.00    +0.000 C 
ENDROOT
BRANCH   2   3
ATOM      3  C   UNL     1       1.830   8.571  19.042  0.00  0.00    +0.000 A 
ATOM      4  C   UNL     1       1.211   9.636  18.391  0.00  0.00    +0.000 A 
ATOM      5  C   UNL     1       0.368  10.493  19.101  0.00  0.00    +0.000 A 
ATOM      6  C   UNL     1       0.130  10.289  20.471  0.00  0.00    +0.000 A 
ATOM      7  C   UNL     1      -0.742  11.119  21.195  0.00  0.00    +0.000 A 
ATOM      8  C   UNL     1      -0.977  10.895  22.552  0.00  0.00    +0.000 A 
ATOM      9  C   UNL     1      -0.329   9.852  23.208  0.00  0.00    +0.000 A 
ATOM     10  C   UNL     1       0.545   9.022  22.507  0.00  0.00    +0.000 A 
ATOM     11  C   UNL     1       0.776   9.222  21.134  0.00  0.00    +0.000 A 
ATOM     12  C   UNL     1       1.629   8.373  20.410  0.00  0.00    +0.000 A 
ENDBRANCH   2   3
BRANCH   1  20
ATOM     13  C   UNL     1       6.921   4.771  16.203  0.00  0.00    +0.000 C 
ATOM     14  C   UNL     1       5.779   3.945  16.842  0.00  0.00    +0.000 C 
ATOM     15  C   UNL     1       4.914   4.859  17.725  0.00  0.00    +0.000 C 
ATOM     16  C   UNL     1       5.847   5.483  18.784  0.00  0.00    +0.000 C 
ATOM     17  C   UNL     1       6.962   6.280  18.087  0.00  0.00    +0.000 C 
ATOM     18  N   UNL     1       6.847   6.208  16.610  0.00  0.00    +0.000 NA
ATOM     19  C   UNL     1       5.528   6.788  16.244  0.00  0.00    +0.000 C 
ATOM     20  C   UNL     1       4.340   5.966  16.809  0.00  0.00    +0.000 C 
BRANCH  13  21
ATOM     21  C   UNL     1       7.016   4.567  14.673  0.00  0.00    +0.000 C 
BRANCH  21  22
ATOM     22  O   UNL     1       7.897   5.494  14.046  0.00  0.00    +0.000 OA
ATOM     23  H   UNL     1       7.532   5.669  13.161  0.00  0.00    +0.000 HD
ENDBRANCH  21  22
ENDBRANCH  13  21
ENDBRANCH   1  20
TORSDOF 4
ENDMDL
MODEL 3
REMARK VINA RESULT:      -7.9      3.533      8.560
REMARK  Name = 
REMARK  4 active torsions:
REMARK  status: ('A' for Active; 'I' for Inactive)
REMARK    1  A    between atoms: O_1  and  C_2
REMARK    2  A    between atoms: C_2  and  C_3
REMARK    3  A    between atoms: C_10  and  C_11
REMARK    4  A    between atoms: C_12  and  C_13
REMARK                            x       y       z     vdW  Elec       q    Type
REMARK                         _______ _______ _______ _____ _____    ______ ____
ROOT
ATOM      1  C   UNL     1       9.012  10.095  17.863  0.00  0.00    +0.000 C 
ATOM      2  C   UNL     1       8.382   8.958  17.952  0.00  0.00    +0.000 C 
ENDROOT
BRANCH   2   3
ATOM      3  C   UNL     1       7.699   7.711  18.088  0.00  0.00    +0.000 A 
ATOM      4  C   UNL     1       8.190   6.736  18.954  0.00  0.00    +0.000 A 
ATOM      5  C   UNL     1       7.508   5.528  19.105  0.00  0.00    +0.000 A 
ATOM      6  C   UNL     1       6.321   5.283  18.393  0.00  0.00    +0.000 A 
ATOM      7  C   UNL     1       5.602   4.087  18.557  0.00  0.00    +0.000 A 
ATOM      8  C   UNL     1       4.419   3.865  17.851  0.00  0.00    +0.000 A 
ATOM      9  C   UNL     1       3.950   4.825  16.958  0.00  0.00    +0.000 A 
ATOM     10  C   UNL     1       4.655   6.014  16.778  0.00  0.00    +0.000 A 
ATOM     11  C   UNL     1       5.837   6.262  17.497  0.00  0.00    +0.000 A 
ATOM     12  C   UNL     1       6.538   7.470  17.349  0.00  0.00    +0.000 A 
ENDBRANCH   2   3
BRANCH   1  20
ATOM     13  C   UNL     1      10.530  14.017  18.811  0.00  0.00    +0.000 C 
ATOM     14  C   UNL     1      11.544  12.856  18.689  0.00  0.00    +0.000 C 
ATOM     15  C   UNL     1      10.817  11.514  18.872  0.00  0.00    +0.000 C 
ATOM     16  C   UNL     1      10.135  11.553  20.257  0.00  0.00    +0.000 C 
ATOM     17  C   UNL     1       9.149  12.730  20.315  0.00  0.00    +0.000 C 
ATOM     18  N   UNL     1       9.145  13.507  19.052  0.00  0.00    +0.000 NA
ATOM     19  C   UNL     1       8.734  12.577  17.966  0.00  0.00    +0.000 C 
ATOM     20  C   UNL     1       9.747  11.421  17.759  0.00  0.00    +0.000 C 
BRANCH  13  21
ATOM     21  C   UNL     1      10.623  15.012  17.630  0.00  0.00    +0.000 C 
BRANCH  21  22
ATOM     22  O   UNL     1      11.199  14.433  16.463  0.00  0.00    +0.000 OA
ATOM     23  H   UNL     1      10.579  14.605  15.733  0.00  0.00    +0.000 HD
ENDBRANCH  21  22
ENDBRANCH  13  21
ENDBRANCH   1  20
TORSDOF 4
ENDMDL
MODEL 4
REMARK VINA RESULT:      -7.9      3.717      8.643
REMARK  Name = 
REMARK  4 active torsions:
REMARK  status: ('A' for Active; 'I' for Inactive)
REMARK    1  A    between atoms: O_1  and  C_2
REMARK    2  A    between atoms: C_2  and  C_3
REMARK    3  A    between atoms: C_10  and  C_11
REMARK    4  A    between atoms: C_12  and  C_13
REMARK                            x       y       z     vdW  Elec       q    Type
REMARK                         _______ _______ _______ _____ _____    ______ ____
ROOT
ATOM      1  C   UNL     1       9.050  10.712  17.890  0.00  0.00    +0.000 C 
ATOM      2  C   UNL     1       8.551   9.509  17.955  0.00  0.00    +0.000 C 
ENDROOT
BRANCH   2   3
ATOM      3  C   UNL     1       7.983   8.199  17.995  0.00  0.00    +0.000 A 
ATOM      4  C   UNL     1       8.415   7.280  18.950  0.00  0.00    +0.000 A 
ATOM      5  C   UNL     1       7.842   6.009  19.004  0.00  0.00    +0.000 A 
ATOM      6  C   UNL     1       6.825   5.644  18.106  0.00  0.00    +0.000 A 
ATOM      7  C   UNL     1       6.212   4.381  18.167  0.00  0.00    +0.000 A 
ATOM      8  C   UNL     1       5.195   4.039  17.275  0.00  0.00    +0.000 A 
ATOM      9  C   UNL     1       4.791   4.946  16.298  0.00  0.00    +0.000 A 
ATOM     10  C   UNL     1       5.393   6.201  16.219  0.00  0.00    +0.000 A 
ATOM     11  C   UNL     1       6.405   6.568  17.124  0.00  0.00    +0.000 A 
ATOM     12  C   UNL     1       6.996   7.841  17.075  0.00  0.00    +0.000 A 
ENDBRANCH   2   3
BRANCH   1  20
ATOM     13  C   UNL     1      11.152  14.332  18.919  0.00  0.00    +0.000 C 
ATOM     14  C   UNL     1      11.697  13.484  17.746  0.00  0.00    +0.000 C 
ATOM     15  C   UNL     1      11.175  12.043  17.864  0.00  0.00    +0.000 C 
ATOM     16  C   UNL     1      11.633  11.505  19.236  0.00  0.00    +0.000 C 
ATOM     17  C   UNL     1      11.067  12.393  20.356  0.00  0.00    +0.000 C 
ATOM     18  N   UNL     1      10.269  13.520  19.813  0.00  0.00    +0.000 NA
ATOM     19  C   UNL     1       9.145  12.929  19.040  0.00  0.00    +0.000 C 
ATOM     20  C   UNL     1       9.631  12.114  17.813  0.00  0.00    +0.000 C 
BRANCH  13  21
ATOM     21  C   UNL     1      10.502  15.652  18.445  0.00  0.00    +0.000 C 
BRANCH  21  22
ATOM     22  O   UNL     1      10.120  15.619  17.073  0.00  0.00    +0.000 OA
ATOM     23  H   UNL     1      10.230  16.524  16.732  0.00  0.00    +0.000 HD
ENDBRANCH  21  22
ENDBRANCH  13  21
ENDBRANCH   1  20
TORSDOF 4
ENDMDL
MODEL 5
REMARK VINA RESULT:      -7.8      5.712      8.090
REMARK  Name = 
REMARK  4 active torsions:
REMARK  status: ('A' for Active; 'I' for Inactive)
REMARK    1  A    between atoms: O_1  and  C_2
REMARK    2  A    between atoms: C_2  and  C_3
REMARK    3  A    between atoms: C_10  and  C_11
REMARK    4  A    between atoms: C_12  and  C_13
REMARK                            x       y       z     vdW  Elec       q    Type
REMARK                         _______ _______ _______ _____ _____    ______ ____
ROOT
ATOM      1  C   UNL     1       2.885   7.264  17.964  0.00  0.00    +0.000 C 
ATOM      2  C   UNL     1       2.172   8.157  18.592  0.00  0.00    +0.000 C 
ENDROOT
BRANCH   2   3
ATOM      3  C   UNL     1       1.363   9.130  19.254  0.00  0.00    +0.000 A 
ATOM      4  C   UNL     1       0.924  10.259  18.563  0.00  0.00    +0.000 A 
ATOM      5  C   UNL     1       0.112  11.196  19.203  0.00  0.00    +0.000 A 
ATOM      6  C   UNL     1      -0.274  11.013  20.541  0.00  0.00    +0.000 A 
ATOM      7  C   UNL     1      -1.119  11.928  21.193  0.00  0.00    +0.000 A 
ATOM      8  C   UNL     1      -1.503  11.725  22.518  0.00  0.00    +0.000 A 
ATOM      9  C   UNL     1      -1.032  10.616  23.217  0.00  0.00    +0.000 A 
ATOM     10  C   UNL     1      -0.188   9.701  22.589  0.00  0.00    +0.000 A 
ATOM     11  C   UNL     1       0.191   9.881  21.247  0.00  0.00    +0.000 A 
ATOM     12  C   UNL     1       1.014   8.950  20.593  0.00  0.00    +0.000 A 
ENDBRANCH   2   3
BRANCH   1  20
ATOM     13  C   UNL     1       5.742   4.139  17.155  0.00  0.00    +0.000 C 
ATOM     14  C   UNL     1       4.240   3.813  16.981  0.00  0.00    +0.000 C 
ATOM     15  C   UNL     1       3.397   4.815  17.785  0.00  0.00    +0.000 C 
ATOM     16  C   UNL     1       3.851   4.712  19.257  0.00  0.00    +0.000 C 
ATOM     17  C   UNL     1       5.349   5.039  19.361  0.00  0.00    +0.000 C 
ATOM     18  N   UNL     1       5.941   5.333  18.033  0.00  0.00    +0.000 NA
ATOM     19  C   UNL     1       5.220   6.512  17.483  0.00  0.00    +0.000 C 
ATOM     20  C   UNL     1       3.716   6.224  17.232  0.00  0.00    +0.000 C 
BRANCH  13  21
ATOM     21  C   UNL     1       6.488   4.235  15.805  0.00  0.00    +0.000 C 
BRANCH  21  22
ATOM     22  O   UNL     1       7.840   4.661  15.949  0.00  0.00    +0.000 OA
ATOM     23  H   UNL     1       7.833   5.632  15.882  0.00  0.00    +0.000 HD
ENDBRANCH  21  22
ENDBRANCH  13  21
ENDBRANCH   1  20
TORSDOF 4
ENDMDL
MODEL 6
REMARK VINA RESULT:      -7.7      5.711      8.009
REMARK  Name = 
REMARK  4 active torsions:
REMARK  status: ('A' for Active; 'I' for Inactive)
REMARK    1  A    between atoms: O_1  and  C_2
REMARK    2  A    between atoms: C_2  and  C_3
REMARK    3  A    between atoms: C_10  and  C_11
REMARK    4  A    between atoms: C_12  and  C_13
REMARK                            x       y       z     vdW  Elec       q    Type
REMARK                         _______ _______ _______ _____ _____    ______ ____
ROOT
ATOM      1  C   UNL     1       2.899   7.078  18.326  0.00  0.00    +0.000 C 
ATOM      2  C   UNL     1       2.199   7.804  19.152  0.00  0.00    +0.000 C 
ENDROOT
BRANCH   2   3
ATOM      3  C   UNL     1       1.402   8.578  20.049  0.00  0.00    +0.000 A 
ATOM      4  C   UNL     1       1.402   8.286  21.412  0.00  0.00    +0.000 A 
ATOM      5  C   UNL     1       0.642   9.059  22.291  0.00  0.00    +0.000 A 
ATOM      6  C   UNL     1      -0.124  10.138  21.816  0.00  0.00    +0.000 A 
ATOM      7  C   UNL     1      -0.868  10.949  22.690  0.00  0.00    +0.000 A 
ATOM      8  C   UNL     1      -1.613  12.023  22.203  0.00  0.00    +0.000 A 
ATOM      9  C   UNL     1      -1.641  12.289  20.837  0.00  0.00    +0.000 A 
ATOM     10  C   UNL     1      -0.914  11.491  19.955  0.00  0.00    +0.000 A 
ATOM     11  C   UNL     1      -0.142  10.417  20.432  0.00  0.00    +0.000 A 
ATOM     12  C   UNL     1       0.621   9.626  19.558  0.00  0.00    +0.000 A 
ENDBRANCH   2   3
BRANCH   1  20
ATOM     13  C   UNL     1       6.006   4.565  16.709  0.00  0.00    +0.000 C 
ATOM     14  C   UNL     1       4.586   3.967  16.844  0.00  0.00    +0.000 C 
ATOM     15  C   UNL     1       3.783   4.774  17.877  0.00  0.00    +0.000 C 
ATOM     16  C   UNL     1       4.569   4.721  19.205  0.00  0.00    +0.000 C 
ATOM     17  C   UNL     1       5.970   5.320  19.002  0.00  0.00    +0.000 C 
ATOM     18  N   UNL     1       6.184   5.753  17.600  0.00  0.00    +0.000 NA
ATOM     19  C   UNL     1       5.160   6.789  17.300  0.00  0.00    +0.000 C 
ATOM     20  C   UNL     1       3.714   6.231  17.363  0.00  0.00    +0.000 C 
BRANCH  13  21
ATOM     21  C   UNL     1       6.399   4.834  15.238  0.00  0.00    +0.000 C 
BRANCH  21  22
ATOM     22  O   UNL     1       7.648   5.509  15.113  0.00  0.00    +0.000 OA
ATOM     23  H   UNL     1       7.476   6.448  15.302  0.00  0.00    +0.000 HD
ENDBRANCH  21  22
ENDBRANCH  13  21
ENDBRANCH   1  20
TORSDOF 4
ENDMDL
MODEL 7
REMARK VINA RESULT:      -7.7      5.141      7.598
REMARK  Name = 
REMARK  4 active torsions:
REMARK  status: ('A' for Active; 'I' for Inactive)
REMARK    1  A    between atoms: O_1  and  C_2
REMARK    2  A    between atoms: C_2  and  C_3
REMARK    3  A    between atoms: C_10  and  C_11
REMARK    4  A    between atoms: C_12  and  C_13
REMARK                            x       y       z     vdW  Elec       q    Type
REMARK                         _______ _______ _______ _____ _____    ______ ____
ROOT
ATOM      1  C   UNL     1       3.465   6.647  17.834  0.00  0.00    +0.000 C 
ATOM      2  C   UNL     1       2.696   7.341  18.627  0.00  0.00    +0.000 C 
ENDROOT
BRANCH   2   3
ATOM      3  C   UNL     1       1.859   8.132  19.471  0.00  0.00    +0.000 A 
ATOM      4  C   UNL     1       1.629   7.743  20.789  0.00  0.00    +0.000 A 
ATOM      5  C   UNL     1       0.831   8.530  21.620  0.00  0.00    +0.000 A 
ATOM      6  C   UNL     1       0.257   9.720  21.143  0.00  0.00    +0.000 A 
ATOM      7  C   UNL     1      -0.521  10.544  21.974  0.00  0.00    +0.000 A 
ATOM      8  C   UNL     1      -1.074  11.729  21.487  0.00  0.00    +0.000 A 
ATOM      9  C   UNL     1      -0.873  12.096  20.159  0.00  0.00    +0.000 A 
ATOM     10  C   UNL     1      -0.110  11.288  19.318  0.00  0.00    +0.000 A 
ATOM     11  C   UNL     1       0.471  10.102  19.799  0.00  0.00    +0.000 A 
ATOM     12  C   UNL     1       1.270   9.296  18.972  0.00  0.00    +0.000 A 
ENDBRANCH   2   3
BRANCH   1  20
ATOM     13  C   UNL     1       6.967   4.894  16.033  0.00  0.00    +0.000 C 
ATOM     14  C   UNL     1       5.958   3.950  16.728  0.00  0.00    +0.000 C 
ATOM     15  C   UNL     1       5.102   4.750  17.723  0.00  0.00    +0.000 C 
ATOM     16  C   UNL     1       6.072   5.412  18.726  0.00  0.00    +0.000 C 
ATOM     17  C   UNL     1       7.050   6.329  17.974  0.00  0.00    +0.000 C 
ATOM     18  N   UNL     1       6.811   6.303  16.510  0.00  0.00    +0.000 NA
ATOM     19  C   UNL     1       5.421   6.781  16.284  0.00  0.00    +0.000 C 
ATOM     20  C   UNL     1       4.360   5.838  16.911  0.00  0.00    +0.000 C 
BRANCH  13  21
ATOM     21  C   UNL     1       6.942   4.759  14.492  0.00  0.00    +0.000 C 
BRANCH  21  22
ATOM     22  O   UNL     1       7.925   5.566  13.850  0.00  0.00    +0.000 OA
ATOM     23  H   UNL     1       7.978   6.395  14.357  0.00  0.00    +0.000 HD
ENDBRANCH  21  22
ENDBRANCH  13  21
ENDBRANCH   1  20
TORSDOF 4
ENDMDL
MODEL 8
REMARK VINA RESULT:      -7.6      7.556      8.883
REMARK  Name = 
REMARK  4 active torsions:
REMARK  status: ('A' for Active; 'I' for Inactive)
REMARK    1  A    between atoms: O_1  and  C_2
REMARK    2  A    between atoms: C_2  and  C_3
REMARK    3  A    between atoms: C_10  and  C_11
REMARK    4  A    between atoms: C_12  and  C_13
REMARK                            x       y       z     vdW  Elec       q    Type
REMARK                         _______ _______ _______ _____ _____    ______ ____
ROOT
ATOM      1  C   UNL     1       2.485   6.424  19.822  0.00  0.00    +0.000 C 
ATOM      2  C   UNL     1       1.850   7.533  20.080  0.00  0.00    +0.000 C 
ENDROOT
BRANCH   2   3
ATOM      3  C   UNL     1       1.132   8.742  20.332  0.00  0.00    +0.000 A 
ATOM      4  C   UNL     1       1.053   9.725  19.348  0.00  0.00    +0.000 A 
ATOM      5  C   UNL     1       0.330  10.895  19.587  0.00  0.00    +0.000 A 
ATOM      6  C   UNL     1      -0.327  11.092  20.813  0.00  0.00    +0.000 A 
ATOM      7  C   UNL     1      -1.088  12.247  21.059  0.00  0.00    +0.000 A 
ATOM      8  C   UNL     1      -1.745  12.422  22.278  0.00  0.00    +0.000 A 
ATOM      9  C   UNL     1      -1.633  11.454  23.273  0.00  0.00    +0.000 A 
ATOM     10  C   UNL     1      -0.877  10.305  23.049  0.00  0.00    +0.000 A 
ATOM     11  C   UNL     1      -0.227  10.105  21.818  0.00  0.00    +0.000 A 
ATOM     12  C   UNL     1       0.511   8.937  21.568  0.00  0.00    +0.000 A 
ENDBRANCH   2   3
BRANCH   1  20
ATOM     13  C   UNL     1       3.299   2.340  18.709  0.00  0.00    +0.000 C 
ATOM     14  C   UNL     1       3.829   3.463  17.787  0.00  0.00    +0.000 C 
ATOM     15  C   UNL     1       3.029   4.753  18.033  0.00  0.00    +0.000 C 
ATOM     16  C   UNL     1       1.545   4.425  17.763  0.00  0.00    +0.000 C 
ATOM     17  C   UNL     1       1.084   3.300  18.704  0.00  0.00    +0.000 C 
ATOM     18  N   UNL     1       2.186   2.830  19.579  0.00  0.00    +0.000 NA
ATOM     19  C   UNL     1       2.629   3.994  20.390  0.00  0.00    +0.000 C 
ATOM     20  C   UNL     1       3.225   5.132  19.519  0.00  0.00    +0.000 C 
BRANCH  13  21
ATOM     21  C   UNL     1       4.430   1.636  19.495  0.00  0.00    +0.000 C 
BRANCH  21  22
ATOM     22  O   UNL     1       4.698   0.320  19.018  0.00  0.00    +0.000 OA
ATOM     23  H   UNL     1       5.310  -0.087  19.656  0.00  0.00    +0.000 HD
ENDBRANCH  21  22
ENDBRANCH  13  21
ENDBRANCH   1  20
TORSDOF 4
ENDMDL
MODEL 9
REMARK VINA RESULT:      -7.5      6.599      8.735
REMARK  Name = 
REMARK  4 active torsions:
REMARK  status: ('A' for Active; 'I' for Inactive)
REMARK    1  A    between atoms: O_1  and  C_2
REMARK    2  A    between atoms: C_2  and  C_3
REMARK    3  A    between atoms: C_10  and  C_11
REMARK    4  A    between atoms: C_12  and  C_13
REMARK                            x       y       z     vdW  Elec       q    Type
REMARK                         _______ _______ _______ _____ _____    ______ ____
ROOT
ATOM      1  C   UNL     1       2.298   7.345  19.290  0.00  0.00    +0.000 C 
ATOM      2  C   UNL     1       1.569   8.158  20.003  0.00  0.00    +0.000 C 
ENDROOT
BRANCH   2   3
ATOM      3  C   UNL     1       0.767   9.020  20.810  0.00  0.00    +0.000 A 
ATOM      4  C   UNL     1       0.733   8.850  22.193  0.00  0.00    +0.000 A 
ATOM      5  C   UNL     1      -0.032   9.710  22.983  0.00  0.00    +0.000 A 
ATOM      6  C   UNL     1      -0.769  10.753  22.398  0.00  0.00    +0.000 A 
ATOM      7  C   UNL     1      -1.518  11.649  23.179  0.00  0.00    +0.000 A 
ATOM      8  C   UNL     1      -2.235  12.687  22.583  0.00  0.00    +0.000 A 
ATOM      9  C   UNL     1      -2.229  12.831  21.198  0.00  0.00    +0.000 A 
ATOM     10  C   UNL     1      -1.498  11.947  20.407  0.00  0.00    +0.000 A 
ATOM     11  C   UNL     1      -0.753  10.909  20.994  0.00  0.00    +0.000 A 
ATOM     12  C   UNL     1       0.014  10.032  20.210  0.00  0.00    +0.000 A 
ENDBRANCH   2   3
BRANCH   1  20
ATOM     13  C   UNL     1       4.423   3.826  17.992  0.00  0.00    +0.000 C 
ATOM     14  C   UNL     1       3.201   4.284  17.161  0.00  0.00    +0.000 C 
ATOM     15  C   UNL     1       2.297   5.180  18.024  0.00  0.00    +0.000 C 
ATOM     16  C   UNL     1       1.888   4.354  19.262  0.00  0.00    +0.000 C 
ATOM     17  C   UNL     1       3.143   3.924  20.037  0.00  0.00    +0.000 C 
ATOM     18  N   UNL     1       4.385   4.394  19.375  0.00  0.00    +0.000 NA
ATOM     19  C   UNL     1       4.322   5.879  19.329  0.00  0.00    +0.000 C 
ATOM     20  C   UNL     1       3.147   6.397  18.459  0.00  0.00    +0.000 C 
BRANCH  13  21
ATOM     21  C   UNL     1       5.763   4.074  17.261  0.00  0.00    +0.000 C 
BRANCH  21  22
ATOM     22  O   UNL     1       6.884   4.057  18.140  0.00  0.00    +0.000 OA
ATOM     23  H   UNL     1       7.503   4.734  17.815  0.00  0.00    +0.000 HD
ENDBRANCH  21  22
ENDBRANCH  13  21
ENDBRANCH   1  20
TORSDOF 4
ENDMDL
