MODEL 1
REMARK VINA RESULT:      -8.0      0.000      0.000
REMARK  Name = 
REMARK  5 active torsions:
REMARK  status: ('A' for Active; 'I' for Inactive)
REMARK    1  A    between atoms: C_1  and  C_2
REMARK    2  A    between atoms: C_2  and  C_3
REMARK    3  A    between atoms: C_2  and  C_4
REMARK    4  A    between atoms: C_4  and  N_5
REMARK    5  A    between atoms: N_13  and  C_14
REMARK                            x       y       z     vdW  Elec       q    Type
REMARK                         _______ _______ _______ _____ _____    ______ ____
ROOT
ATOM      1  N   UNL     1       6.107   4.122  16.649  0.00  0.00    +0.000 N 
ATOM      2  C   UNL     1       4.811   4.542  17.106  0.00  0.00    +0.000 C 
ATOM      3  C   UNL     1       5.109   5.707  18.061  0.00  0.00    +0.000 C 
ATOM      4  C   UNL     1       4.143   5.760  19.264  0.00  0.00    +0.000 C 
ATOM      5  C   UNL     1       2.733   6.192  18.866  0.00  0.00    +0.000 C 
ATOM      6  N   UNL     1       2.785   7.462  18.145  0.00  0.00    +0.000 N 
ATOM      7  C   UNL     1       1.972   8.565  18.374  0.00  0.00    +0.000 C 
ATOM      8  O   UNL     1       1.851   9.462  17.541  0.00  0.00    +0.000 OA
ATOM      9  N   UNL     1       1.386   8.604  19.620  0.00  0.00    +0.000 N 
ATOM     10  C   UNL     1       3.617   7.462  16.948  0.00  0.00    +0.000 C 
ATOM     11  C   UNL     1       5.050   7.055  17.297  0.00  0.00    +0.000 C 
ATOM     12  C   UNL     1       6.545   5.405  18.551  0.00  0.00    +0.000 C 
ATOM     13  C   UNL     1       7.125   4.481  17.513  0.00  0.00    +0.000 C 
ATOM     14  O   UNL     1       8.295   4.146  17.445  0.00  0.00    +0.000 OA
ATOM     15  H   UNL     1       1.976   8.244  20.360  0.00  0.00    +0.000 HD
ENDROOT
BRANCH   9  16
ATOM     16  C   UNL     1       0.526   9.662  20.017  0.00  0.00    +0.000 A 
ATOM     17  C   UNL     1      -0.280  10.327  19.085  0.00  0.00    +0.000 A 
ATOM     18  C   UNL     1      -1.105  11.381  19.487  0.00  0.00    +0.000 A 
ATOM     19  C   UNL     1      -1.131  11.780  20.821  0.00  0.00    +0.000 A 
ATOM     20  C   UNL     1      -0.341  11.118  21.762  0.00  0.00    +0.000 A 
ATOM     21  C   UNL     1       0.473  10.052  21.363  0.00  0.00    +0.000 A 
ATOM     22 CL   UNL     1       1.465   9.284  22.554  0.00  0.00    +0.000 Cl
ENDBRANCH   9  16
BRANCH   1  23
ATOM     23  C   UNL     1       6.336   3.508  15.350  0.00  0.00    +0.000 C 
BRANCH  23  25
ATOM     24  C   UNL     1       7.441   5.202  13.787  0.00  0.00    +0.000 C 
ATOM     25  C   UNL     1       6.139   4.506  14.189  0.00  0.00    +0.000 C 
ATOM     26  C   UNL     1       5.554   3.795  12.965  0.00  0.00    +0.000 C 
ENDBRANCH  23  25
ENDBRANCH   1  23
TORSDOF 3
ENDMDL
MODEL 2
REMARK VINA RESULT:      -7.3      3.658      8.585
REMARK  Name = 
REMARK  5 active torsions:
REMARK  status: ('A' for Active; 'I' for Inactive)
REMARK    1  A    between atoms: C_1  and  C_2
REMARK    2  A    between atoms: C_2  and  C_3
REMARK    3  A    between atoms: C_2  and  C_4
REMARK    4  A    between atoms: C_4  and  N_5
REMARK    5  A    between atoms: N_13  and  C_14
REMARK                            x       y       z     vdW  Elec       q    Type
REMARK                         _______ _______ _______ _____ _____    ______ ____
ROOT
ATOM      1  N   UNL     1       0.379  12.298  20.206  0.00  0.00    +0.000 N 
ATOM      2  C   UNL     1       1.066  11.095  20.585  0.00  0.00    +0.000 C 
ATOM      3  C   UNL     1       0.304   9.981  19.851  0.00  0.00    +0.000 C 
ATOM      4  C   UNL     1       0.218   8.673  20.667  0.00  0.00    +0.000 C 
ATOM      5  C   UNL     1       1.562   7.954  20.766  0.00  0.00    +0.000 C 
ATOM      6  N   UNL     1       2.111   7.735  19.430  0.00  0.00    +0.000 N 
ATOM      7  C   UNL     1       2.650   6.546  18.954  0.00  0.00    +0.000 C 
ATOM      8  O   UNL     1       3.372   6.518  17.957  0.00  0.00    +0.000 OA
ATOM      9  N   UNL     1       2.255   5.417  19.635  0.00  0.00    +0.000 N 
ATOM     10  C   UNL     1       2.297   8.939  18.630  0.00  0.00    +0.000 C 
ATOM     11  C   UNL     1       0.970   9.687  18.483  0.00  0.00    +0.000 C 
ATOM     12  C   UNL     1      -1.110  10.581  19.667  0.00  0.00    +0.000 C 
ATOM     13  C   UNL     1      -0.921  12.069  19.795  0.00  0.00    +0.000 C 
ATOM     14  O   UNL     1      -1.769  12.909  19.546  0.00  0.00    +0.000 OA
ATOM     15  H   UNL     1       1.294   5.448  19.953  0.00  0.00    +0.000 HD
ENDROOT
BRANCH   9  16
ATOM     16  C   UNL     1       2.712   4.121  19.278  0.00  0.00    +0.000 A 
ATOM     17  C   UNL     1       3.713   3.479  20.018  0.00  0.00    +0.000 A 
ATOM     18  C   UNL     1       4.169   2.212  19.643  0.00  0.00    +0.000 A 
ATOM     19  C   UNL     1       3.632   1.577  18.526  0.00  0.00    +0.000 A 
ATOM     20  C   UNL     1       2.626   2.202  17.787  0.00  0.00    +0.000 A 
ATOM     21  C   UNL     1       2.157   3.462  18.171  0.00  0.00    +0.000 A 
ATOM     22 CL   UNL     1       0.936   4.217  17.206  0.00  0.00    +0.000 Cl
ENDBRANCH   9  16
BRANCH   1  23
ATOM     23  C   UNL     1       1.027  13.599  20.133  0.00  0.00    +0.000 C 
BRANCH  23  25
ATOM     24  C   UNL     1       1.846  15.440  18.559  0.00  0.00    +0.000 C 
ATOM     25  C   UNL     1       1.413  13.978  18.687  0.00  0.00    +0.000 C 
ATOM     26  C   UNL     1       2.545  13.077  18.182  0.00  0.00    +0.000 C 
ENDBRANCH  23  25
ENDBRANCH   1  23
TORSDOF 3
ENDMDL
MODEL 3
REMARK VINA RESULT:      -7.3      3.341      8.559
REMARK  Name = 
REMARK  5 active torsions:
REMARK  status: ('A' for Active; 'I' for Inactive)
REMARK    1  A    between atoms: C_1  and  C_2
REMARK    2  A    between atoms: C_2  and  C_3
REMARK    3  A    between atoms: C_2  and  C_4
REMARK    4  A    between atoms: C_4  and  N_5
REMARK    5  A    between atoms: N_13  and  C_14
REMARK                            x       y       z     vdW  Elec       q    Type
REMARK                         _______ _______ _______ _____ _____    ______ ____
ROOT
ATOM      1  N   UNL     1       0.405  12.647  20.026  0.00  0.00    +0.000 N 
ATOM      2  C   UNL     1       1.165  11.458  20.297  0.00  0.00    +0.000 C 
ATOM      3  C   UNL     1       0.285  10.320  19.762  0.00  0.00    +0.000 C 
ATOM      4  C   UNL     1       0.375   9.037  20.618  0.00  0.00    +0.000 C 
ATOM      5  C   UNL     1       1.720   8.327  20.470  0.00  0.00    +0.000 C 
ATOM      6  N   UNL     1       1.995   8.068  19.059  0.00  0.00    +0.000 N 
ATOM      7  C   UNL     1       2.442   6.868  18.521  0.00  0.00    +0.000 C 
ATOM      8  O   UNL     1       2.952   6.811  17.403  0.00  0.00    +0.000 OA
ATOM      9  N   UNL     1       2.200   5.758  19.300  0.00  0.00    +0.000 N 
ATOM     10  C   UNL     1       2.007   9.248  18.203  0.00  0.00    +0.000 C 
ATOM     11  C   UNL     1       0.670   9.986  18.298  0.00  0.00    +0.000 C 
ATOM     12  C   UNL     1      -1.144  10.908  19.844  0.00  0.00    +0.000 C 
ATOM     13  C   UNL     1      -0.948  12.400  19.888  0.00  0.00    +0.000 C 
ATOM     14  O   UNL     1      -1.837  13.229  19.786  0.00  0.00    +0.000 OA
ATOM     15  H   UNL     1       1.321   5.796  19.802  0.00  0.00    +0.000 HD
ENDROOT
BRANCH   9  16
ATOM     16  C   UNL     1       2.591   4.454  18.899  0.00  0.00    +0.000 A 
ATOM     17  C   UNL     1       1.645   3.517  18.466  0.00  0.00    +0.000 A 
ATOM     18  C   UNL     1       2.041   2.229  18.094  0.00  0.00    +0.000 A 
ATOM     19  C   UNL     1       3.384   1.866  18.155  0.00  0.00    +0.000 A 
ATOM     20  C   UNL     1       4.339   2.794  18.575  0.00  0.00    +0.000 A 
ATOM     21  C   UNL     1       3.945   4.088  18.931  0.00  0.00    +0.000 A 
ATOM     22 CL   UNL     1       5.154   5.195  19.481  0.00  0.00    +0.000 Cl
ENDBRANCH   9  16
BRANCH   1  23
ATOM     23  C   UNL     1       1.013  13.948  19.787  0.00  0.00    +0.000 C 
BRANCH  23  25
ATOM     24  C   UNL     1       2.931  14.205  18.117  0.00  0.00    +0.000 C 
ATOM     25  C   UNL     1       2.535  13.845  19.551  0.00  0.00    +0.000 C 
ATOM     26  C   UNL     1       3.289  14.759  20.521  0.00  0.00    +0.000 C 
ENDBRANCH  23  25
ENDBRANCH   1  23
TORSDOF 3
ENDMDL
MODEL 4
REMARK VINA RESULT:      -7.2      2.635      3.830
REMARK  Name = 
REMARK  5 active torsions:
REMARK  status: ('A' for Active; 'I' for Inactive)
REMARK    1  A    between atoms: C_1  and  C_2
REMARK    2  A    between atoms: C_2  and  C_3
REMARK    3  A    between atoms: C_2  and  C_4
REMARK    4  A    between atoms: C_4  and  N_5
REMARK    5  A    between atoms: N_13  and  C_14
REMARK                            x       y       z     vdW  Elec       q    Type
REMARK                         _______ _______ _______ _____ _____    ______ ____
ROOT
ATOM      1  N   UNL     1       4.526   5.286  18.578  0.00  0.00    +0.000 N 
ATOM      2  C   UNL     1       4.034   6.635  18.543  0.00  0.00    +0.000 C 
ATOM      3  C   UNL     1       2.509   6.477  18.462  0.00  0.00    +0.000 C 
ATOM      4  C   UNL     1       1.838   7.563  17.593  0.00  0.00    +0.000 C 
ATOM      5  C   UNL     1       1.853   8.938  18.256  0.00  0.00    +0.000 C 
ATOM      6  N   UNL     1       1.262   8.857  19.590  0.00  0.00    +0.000 N 
ATOM      7  C   UNL     1       0.317   9.727  20.118  0.00  0.00    +0.000 C 
ATOM      8  O   UNL     1       0.105   9.794  21.329  0.00  0.00    +0.000 OA
ATOM      9  N   UNL     1      -0.403  10.438  19.183  0.00  0.00    +0.000 N 
ATOM     10  C   UNL     1       1.900   7.908  20.494  0.00  0.00    +0.000 C 
ATOM     11  C   UNL     1       1.891   6.505  19.883  0.00  0.00    +0.000 C 
ATOM     12  C   UNL     1       2.331   5.089  17.803  0.00  0.00    +0.000 C 
ATOM     13  C   UNL     1       3.635   4.375  18.041  0.00  0.00    +0.000 C 
ATOM     14  O   UNL     1       3.840   3.193  17.823  0.00  0.00    +0.000 OA
ATOM     15  H   UNL     1      -0.607   9.915  18.341  0.00  0.00    +0.000 HD
ENDROOT
BRANCH   9  16
ATOM     16  C   UNL     1      -1.408  11.370  19.553  0.00  0.00    +0.000 A 
ATOM     17  C   UNL     1      -1.158  12.361  20.511  0.00  0.00    +0.000 A 
ATOM     18  C   UNL     1      -2.163  13.258  20.881  0.00  0.00    +0.000 A 
ATOM     19  C   UNL     1      -3.426  13.172  20.300  0.00  0.00    +0.000 A 
ATOM     20  C   UNL     1      -3.685  12.196  19.336  0.00  0.00    +0.000 A 
ATOM     21  C   UNL     1      -2.674  11.309  18.953  0.00  0.00    +0.000 A 
ATOM     22 CL   UNL     1      -3.047  10.091  17.783  0.00  0.00    +0.000 Cl
ENDBRANCH   9  16
BRANCH   1  23
ATOM     23  C   UNL     1       5.769   4.905  19.232  0.00  0.00    +0.000 C 
BRANCH  23  25
ATOM     24  C   UNL     1       8.163   5.767  19.481  0.00  0.00    +0.000 C 
ATOM     25  C   UNL     1       7.007   5.489  18.518  0.00  0.00    +0.000 C 
ATOM     26  C   UNL     1       7.491   4.536  17.420  0.00  0.00    +0.000 C 
ENDBRANCH  23  25
ENDBRANCH   1  23
TORSDOF 3
ENDMDL
MODEL 5
REMARK VINA RESULT:      -7.1      2.803      9.368
REMARK  Name = 
REMARK  5 active torsions:
REMARK  status: ('A' for Active; 'I' for Inactive)
REMARK    1  A    between atoms: C_1  and  C_2
REMARK    2  A    between atoms: C_2  and  C_3
REMARK    3  A    between atoms: C_2  and  C_4
REMARK    4  A    between atoms: C_4  and  N_5
REMARK    5  A    between atoms: N_13  and  C_14
REMARK                            x       y       z     vdW  Elec       q    Type
REMARK                         _______ _______ _______ _____ _____    ______ ____
ROOT
ATOM      1  N   UNL     1      -1.145  12.555  20.606  0.00  0.00    +0.000 N 
ATOM      2  C   UNL     1      -0.830  11.425  19.776  0.00  0.00    +0.000 C 
ATOM      3  C   UNL     1       0.705  11.382  19.769  0.00  0.00    +0.000 C 
ATOM      4  C   UNL     1       1.286  10.925  18.413  0.00  0.00    +0.000 C 
ATOM      5  C   UNL     1       1.050   9.439  18.144  0.00  0.00    +0.000 C 
ATOM      6  N   UNL     1       1.559   8.643  19.258  0.00  0.00    +0.000 N 
ATOM      7  C   UNL     1       2.348   7.505  19.155  0.00  0.00    +0.000 C 
ATOM      8  O   UNL     1       2.470   6.716  20.092  0.00  0.00    +0.000 OA
ATOM      9  N   UNL     1       3.029   7.378  17.965  0.00  0.00    +0.000 N 
ATOM     10  C   UNL     1       0.991   8.966  20.562  0.00  0.00    +0.000 C 
ATOM     11  C   UNL     1       1.221  10.443  20.889  0.00  0.00    +0.000 C 
ATOM     12  C   UNL     1       1.103  12.852  20.043  0.00  0.00    +0.000 C 
ATOM     13  C   UNL     1      -0.111  13.469  20.685  0.00  0.00    +0.000 C 
ATOM     14  O   UNL     1      -0.147  14.571  21.205  0.00  0.00    +0.000 OA
ATOM     15  H   UNL     1       3.354   8.258  17.584  0.00  0.00    +0.000 HD
ENDROOT
BRANCH   9  16
ATOM     16  C   UNL     1       3.880   6.274  17.695  0.00  0.00    +0.000 A 
ATOM     17  C   UNL     1       5.267   6.438  17.593  0.00  0.00    +0.000 A 
ATOM     18  C   UNL     1       6.090   5.346  17.306  0.00  0.00    +0.000 A 
ATOM     19  C   UNL     1       5.536   4.083  17.115  0.00  0.00    +0.000 A 
ATOM     20  C   UNL     1       4.156   3.904  17.225  0.00  0.00    +0.000 A 
ATOM     21  C   UNL     1       3.333   4.993  17.529  0.00  0.00    +0.000 A 
ATOM     22 CL   UNL     1       1.625   4.735  17.619  0.00  0.00    +0.000 Cl
ENDBRANCH   9  16
BRANCH   1  23
ATOM     23  C   UNL     1      -2.368  12.656  21.388  0.00  0.00    +0.000 C 
BRANCH  23  25
ATOM     24  C   UNL     1      -3.402  12.513  23.722  0.00  0.00    +0.000 C 
ATOM     25  C   UNL     1      -2.117  12.439  22.896  0.00  0.00    +0.000 C 
ATOM     26  C   UNL     1      -1.446  11.083  23.137  0.00  0.00    +0.000 C 
ENDBRANCH  23  25
ENDBRANCH   1  23
TORSDOF 3
ENDMDL
MODEL 6
REMARK VINA RESULT:      -7.1      3.066      8.674
REMARK  Name = 
REMARK  5 active torsions:
REMARK  status: ('A' for Active; 'I' for Inactive)
REMARK    1  A    between atoms: C_1  and  C_2
REMARK    2  A    between atoms: C_2  and  C_3
REMARK    3  A    between atoms: C_2  and  C_4
REMARK    4  A    between atoms: C_4  and  N_5
REMARK    5  A    between atoms: N_13  and  C_14
REMARK                            x       y       z     vdW  Elec       q    Type
REMARK                         _______ _______ _______ _____ _____    ______ ____
ROOT
ATOM      1  N   UNL     1       0.276  12.708  20.347  0.00  0.00    +0.000 N 
ATOM      2  C   UNL     1       1.021  11.505  20.596  0.00  0.00    +0.000 C 
ATOM      3  C   UNL     1       0.209  10.407  19.894  0.00  0.00    +0.000 C 
ATOM      4  C   UNL     1       0.234   9.063  20.653  0.00  0.00    +0.000 C 
ATOM      5  C   UNL     1       1.595   8.373  20.580  0.00  0.00    +0.000 C 
ATOM      6  N   UNL     1       2.006   8.225  19.185  0.00  0.00    +0.000 N 
ATOM      7  C   UNL     1       2.515   7.073  18.602  0.00  0.00    +0.000 C 
ATOM      8  O   UNL     1       3.129   7.105  17.535  0.00  0.00    +0.000 OA
ATOM      9  N   UNL     1       2.214   5.905  19.266  0.00  0.00    +0.000 N 
ATOM     10  C   UNL     1       2.084   9.468  18.427  0.00  0.00    +0.000 C 
ATOM     11  C   UNL     1       0.735  10.190  18.452  0.00  0.00    +0.000 C 
ATOM     12  C   UNL     1      -1.228  10.981  19.885  0.00  0.00    +0.000 C 
ATOM     13  C   UNL     1      -1.055  12.466  20.062  0.00  0.00    +0.000 C 
ATOM     14  O   UNL     1      -1.940  13.296  19.941  0.00  0.00    +0.000 OA
ATOM     15  H   UNL     1       1.292   5.899  19.683  0.00  0.00    +0.000 HD
ENDROOT
BRANCH   9  16
ATOM     16  C   UNL     1       2.657   4.637  18.805  0.00  0.00    +0.000 A 
ATOM     17  C   UNL     1       3.717   4.529  17.896  0.00  0.00    +0.000 A 
ATOM     18  C   UNL     1       4.128   3.276  17.434  0.00  0.00    +0.000 A 
ATOM     19  C   UNL     1       3.484   2.122  17.873  0.00  0.00    +0.000 A 
ATOM     20  C   UNL     1       2.433   2.216  18.787  0.00  0.00    +0.000 A 
ATOM     21  C   UNL     1       2.032   3.468  19.263  0.00  0.00    +0.000 A 
ATOM     22 CL   UNL     1       0.702   3.543  20.366  0.00  0.00    +0.000 Cl
ENDBRANCH   9  16
BRANCH   1  23
ATOM     23  C   UNL     1       0.888  14.026  20.267  0.00  0.00    +0.000 C 
BRANCH  23  25
ATOM     24  C   UNL     1       1.233  15.986  18.662  0.00  0.00    +0.000 C 
ATOM     25  C   UNL     1       1.138  14.465  18.809  0.00  0.00    +0.000 C 
ATOM     26  C   UNL     1       2.425  13.832  18.273  0.00  0.00    +0.000 C 
ENDBRANCH  23  25
ENDBRANCH   1  23
TORSDOF 3
ENDMDL
MODEL 7
REMARK VINA RESULT:      -7.0      3.390      8.524
REMARK  Name = 
REMARK  5 active torsions:
REMARK  status: ('A' for Active; 'I' for Inactive)
REMARK    1  A    between atoms: C_1  and  C_2
REMARK    2  A    between atoms: C_2  and  C_3
REMARK    3  A    between atoms: C_2  and  C_4
REMARK    4  A    between atoms: C_4  and  N_5
REMARK    5  A    between atoms: N_13  and  C_14
REMARK                            x       y       z     vdW  Elec       q    Type
REMARK                         _______ _______ _______ _____ _____    ______ ____
ROOT
ATOM      1  N   UNL     1       0.439  12.613  20.336  0.00  0.00    +0.000 N 
ATOM      2  C   UNL     1       1.096  11.374  20.647  0.00  0.00    +0.000 C 
ATOM      3  C   UNL     1       0.261  10.312  19.917  0.00  0.00    +0.000 C 
ATOM      4  C   UNL     1       0.163   8.984  20.698  0.00  0.00    +0.000 C 
ATOM      5  C   UNL     1       1.482   8.214  20.713  0.00  0.00    +0.000 C 
ATOM      6  N   UNL     1       1.961   8.016  19.347  0.00  0.00    +0.000 N 
ATOM      7  C   UNL     1       2.433   6.824  18.812  0.00  0.00    +0.000 C 
ATOM      8  O   UNL     1       3.107   6.801  17.782  0.00  0.00    +0.000 OA
ATOM      9  N   UNL     1       2.026   5.689  19.477  0.00  0.00    +0.000 N 
ATOM     10  C   UNL     1       2.155   9.238  18.575  0.00  0.00    +0.000 C 
ATOM     11  C   UNL     1       0.853  10.037  18.511  0.00  0.00    +0.000 C 
ATOM     12  C   UNL     1      -1.137  10.969  19.817  0.00  0.00    +0.000 C 
ATOM     13  C   UNL     1      -0.886  12.444  19.980  0.00  0.00    +0.000 C 
ATOM     14  O   UNL     1      -1.712  13.322  19.795  0.00  0.00    +0.000 OA
ATOM     15  H   UNL     1       1.083   5.745  19.841  0.00  0.00    +0.000 HD
ENDROOT
BRANCH   9  16
ATOM     16  C   UNL     1       2.418   4.389  19.062  0.00  0.00    +0.000 A 
ATOM     17  C   UNL     1       2.645   4.100  17.711  0.00  0.00    +0.000 A 
ATOM     18  C   UNL     1       3.009   2.810  17.314  0.00  0.00    +0.000 A 
ATOM     19  C   UNL     1       3.148   1.799  18.262  0.00  0.00    +0.000 A 
ATOM     20  C   UNL     1       2.936   2.078  19.614  0.00  0.00    +0.000 A 
ATOM     21  C   UNL     1       2.588   3.372  20.013  0.00  0.00    +0.000 A 
ATOM     22 CL   UNL     1       2.298   3.666  21.692  0.00  0.00    +0.000 Cl
ENDBRANCH   9  16
BRANCH   1  23
ATOM     23  C   UNL     1       1.131  13.891  20.271  0.00  0.00    +0.000 C 
BRANCH  23  25
ATOM     24  C   UNL     1       2.562  13.745  18.157  0.00  0.00    +0.000 C 
ATOM     25  C   UNL     1       2.554  13.755  19.687  0.00  0.00    +0.000 C 
ATOM     26  C   UNL     1       3.447  14.896  20.183  0.00  0.00    +0.000 C 
ENDBRANCH  23  25
ENDBRANCH   1  23
TORSDOF 3
ENDMDL
MODEL 8
REMARK VINA RESULT:      -6.9      3.346      8.942
REMARK  Name = 
REMARK  5 active torsions:
REMARK  status: ('A' for Active; 'I' for Inactive)
REMARK    1  A    between atoms: C_1  and  C_2
REMARK    2  A    between atoms: C_2  and  C_3
REMARK    3  A    between atoms: C_2  and  C_4
REMARK    4  A    between atoms: C_4  and  N_5
REMARK    5  A    between atoms: N_13  and  C_14
REMARK                            x       y       z     vdW  Elec       q    Type
REMARK                         _______ _______ _______ _____ _____    ______ ____
ROOT
ATOM      1  N   UNL     1       0.399  12.660  20.011  0.00  0.00    +0.000 N 
ATOM      2  C   UNL     1       1.152  11.470  20.292  0.00  0.00    +0.000 C 
ATOM      3  C   UNL     1       0.279  10.334  19.740  0.00  0.00    +0.000 C 
ATOM      4  C   UNL     1       0.354   9.049  20.595  0.00  0.00    +0.000 C 
ATOM      5  C   UNL     1       1.699   8.337  20.469  0.00  0.00    +0.000 C 
ATOM      6  N   UNL     1       1.998   8.081  19.062  0.00  0.00    +0.000 N 
ATOM      7  C   UNL     1       2.452   6.881  18.529  0.00  0.00    +0.000 C 
ATOM      8  O   UNL     1       2.981   6.826  17.419  0.00  0.00    +0.000 OA
ATOM      9  N   UNL     1       2.195   5.770  19.302  0.00  0.00    +0.000 N 
ATOM     10  C   UNL     1       2.027   9.263  18.208  0.00  0.00    +0.000 C 
ATOM     11  C   UNL     1       0.689  10.002  18.283  0.00  0.00    +0.000 C 
ATOM     12  C   UNL     1      -1.149  10.924  19.799  0.00  0.00    +0.000 C 
ATOM     13  C   UNL     1      -0.952  12.416  19.849  0.00  0.00    +0.000 C 
ATOM     14  O   UNL     1      -1.838  13.246  19.735  0.00  0.00    +0.000 OA
ATOM     15  H   UNL     1       1.308   5.808  19.788  0.00  0.00    +0.000 HD
ENDROOT
BRANCH   9  16
ATOM     16  C   UNL     1       2.591   4.466  18.905  0.00  0.00    +0.000 A 
ATOM     17  C   UNL     1       1.652   3.533  18.448  0.00  0.00    +0.000 A 
ATOM     18  C   UNL     1       2.052   2.245  18.081  0.00  0.00    +0.000 A 
ATOM     19  C   UNL     1       3.393   1.878  18.169  0.00  0.00    +0.000 A 
ATOM     20  C   UNL     1       4.341   2.803  18.612  0.00  0.00    +0.000 A 
ATOM     21  C   UNL     1       3.943   4.096  18.963  0.00  0.00    +0.000 A 
ATOM     22 CL   UNL     1       5.143   5.198  19.543  0.00  0.00    +0.000 Cl
ENDBRANCH   9  16
BRANCH   1  23
ATOM     23  C   UNL     1       1.013  13.960  19.785  0.00  0.00    +0.000 C 
BRANCH  23  25
ATOM     24  C   UNL     1       2.508  14.889  21.639  0.00  0.00    +0.000 C 
ATOM     25  C   UNL     1       1.088  14.802  21.077  0.00  0.00    +0.000 C 
ATOM     26  C   UNL     1       0.565  16.219  20.823  0.00  0.00    +0.000 C 
ENDBRANCH  23  25
ENDBRANCH   1  23
TORSDOF 3
ENDMDL
MODEL 9
REMARK VINA RESULT:      -6.9      3.361      9.280
REMARK  Name = 
REMARK  5 active torsions:
REMARK  status: ('A' for Active; 'I' for Inactive)
REMARK    1  A    between atoms: C_1  and  C_2
REMARK    2  A    between atoms: C_2  and  C_3
REMARK    3  A    between atoms: C_2  and  C_4
REMARK    4  A    between atoms: C_4  and  N_5
REMARK    5  A    between atoms: N_13  and  C_14
REMARK                            x       y       z     vdW  Elec       q    Type
REMARK                         _______ _______ _______ _____ _____    ______ ____
ROOT
ATOM      1  N   UNL     1      -0.825  13.055  19.887  0.00  0.00    +0.000 N 
ATOM      2  C   UNL     1      -0.560  11.795  19.251  0.00  0.00    +0.000 C 
ATOM      3  C   UNL     1       0.923  11.528  19.549  0.00  0.00    +0.000 C 
ATOM      4  C   UNL     1       1.652  10.821  18.386  0.00  0.00    +0.000 C 
ATOM      5  C   UNL     1       1.222   9.364  18.224  0.00  0.00    +0.000 C 
ATOM      6  N   UNL     1       1.384   8.651  19.489  0.00  0.00    +0.000 N 
ATOM      7  C   UNL     1       1.977   7.406  19.655  0.00  0.00    +0.000 C 
ATOM      8  O   UNL     1       1.795   6.735  20.671  0.00  0.00    +0.000 OA
ATOM      9  N   UNL     1       2.828   7.030  18.641  0.00  0.00    +0.000 N 
ATOM     10  C   UNL     1       0.654   9.218  20.617  0.00  0.00    +0.000 C 
ATOM     11  C   UNL     1       1.065  10.676  20.836  0.00  0.00    +0.000 C 
ATOM     12  C   UNL     1       1.505  12.947  19.751  0.00  0.00    +0.000 C 
ATOM     13  C   UNL     1       0.316  13.812  20.078  0.00  0.00    +0.000 C 
ATOM     14  O   UNL     1       0.373  14.965  20.469  0.00  0.00    +0.000 OA
ATOM     15  H   UNL     1       3.358   7.798  18.247  0.00  0.00    +0.000 HD
ENDROOT
BRANCH   9  16
ATOM     16  C   UNL     1       3.516   5.788  18.654  0.00  0.00    +0.000 A 
ATOM     17  C   UNL     1       4.823   5.691  19.147  0.00  0.00    +0.000 A 
ATOM     18  C   UNL     1       5.497   4.467  19.134  0.00  0.00    +0.000 A 
ATOM     19  C   UNL     1       4.872   3.330  18.626  0.00  0.00    +0.000 A 
ATOM     20  C   UNL     1       3.565   3.412  18.141  0.00  0.00    +0.000 A 
ATOM     21  C   UNL     1       2.885   4.633  18.170  0.00  0.00    +0.000 A 
ATOM     22 CL   UNL     1       1.282   4.698  17.525  0.00  0.00    +0.000 Cl
ENDBRANCH   9  16
BRANCH   1  23
ATOM     23  C   UNL     1      -2.134  13.433  20.399  0.00  0.00    +0.000 C 
BRANCH  23  25
ATOM     24  C   UNL     1      -1.676  12.526  22.745  0.00  0.00    +0.000 C 
ATOM     25  C   UNL     1      -2.608  12.499  21.532  0.00  0.00    +0.000 C 
ATOM     26  C   UNL     1      -4.022  12.879  21.982  0.00  0.00    +0.000 C 
ENDBRANCH  23  25
ENDBRANCH   1  23
TORSDOF 3
ENDMDL
