MODEL 1
REMARK VINA RESULT:      -7.3      0.000      0.000
REMARK  Name = 
REMARK  7 active torsions:
REMARK  status: ('A' for Active; 'I' for Inactive)
REMARK    1  A    between atoms: N_1  and  S_2
REMARK    2  A    between atoms: S_2  and  C_5
REMARK    3  A    between atoms: C_5  and  C_8
REMARK    4  A    between atoms: C_8  and  C_11
REMARK    5  A    between atoms: C_11  and  C_14
REMARK    6  A    between atoms: C_14  and  S_17
REMARK    7  A    between atoms: S_17  and  N_18
REMARK                            x       y       z     vdW  Elec       q    Type
REMARK                         _______ _______ _______ _____ _____    ______ ____
ROOT
ATOM      1  C   UNL     1       4.379   5.647  17.818  0.00  0.00    +0.000 C 
ATOM      2  F   UNL     1       4.559   7.001  17.841  0.00  0.00    +0.000 F 
ATOM      3  F   UNL     1       4.115   5.337  16.521  0.00  0.00    +0.000 F 
ENDROOT
BRANCH   1   4
ATOM      4  C   UNL     1       5.642   4.966  18.291  0.00  0.00    +0.000 C 
ATOM      5  F   UNL     1       5.381   3.695  18.724  0.00  0.00    +0.000 F 
ATOM      6  F   UNL     1       6.172   5.622  19.363  0.00  0.00    +0.000 F 
BRANCH   4   7
ATOM      7  S   UNL     1       6.833   4.848  16.912  0.00  0.00    +0.000 S 
ATOM      8  O   UNL     1       7.304   6.145  16.489  0.00  0.00    +0.000 OA
ATOM      9  O   UNL     1       6.407   3.847  15.957  0.00  0.00    +0.000 OA
BRANCH   7  10
ATOM     10  N   UNL     1       8.173   4.128  17.669  0.00  0.00    +0.000 NA
ATOM     11  H   UNL     1       7.924   3.200  18.022  0.00  0.00    +0.000 HD
ATOM     12  H   UNL     1       8.580   4.742  18.377  0.00  0.00    +0.000 HD
ENDBRANCH   7  10
ENDBRANCH   4   7
ENDBRANCH   1   4
BRANCH   1  13
ATOM     13  C   UNL     1       3.162   5.323  18.677  0.00  0.00    +0.000 C 
ATOM     14  F   UNL     1       3.566   5.004  19.935  0.00  0.00    +0.000 F 
ATOM     15  F   UNL     1       2.432   6.471  18.807  0.00  0.00    +0.000 F 
BRANCH  13  16
ATOM     16  C   UNL     1       2.284   4.236  18.098  0.00  0.00    +0.000 C 
ATOM     17  F   UNL     1       1.325   4.765  17.282  0.00  0.00    +0.000 F 
ATOM     18  F   UNL     1       2.986   3.371  17.316  0.00  0.00    +0.000 F 
BRANCH  16  19
ATOM     19  S   UNL     1       1.525   3.268  19.449  0.00  0.00    +0.000 S 
ATOM     20  O   UNL     1       2.480   2.317  19.973  0.00  0.00    +0.000 OA
ATOM     21  O   UNL     1       0.736   4.118  20.312  0.00  0.00    +0.000 OA
BRANCH  19  22
ATOM     22  N   UNL     1       0.392   2.326  18.610  0.00  0.00    +0.000 NA
ATOM     23  H   UNL     1       0.272   1.383  18.980  0.00  0.00    +0.000 HD
ATOM     24  H   UNL     1       0.439   2.422  17.594  0.00  0.00    +0.000 HD
ENDBRANCH  19  22
ENDBRANCH  16  19
ENDBRANCH  13  16
ENDBRANCH   1  13
TORSDOF 7
ENDMDL
MODEL 2
REMARK VINA RESULT:      -7.3      1.539      5.273
REMARK  Name = 
REMARK  7 active torsions:
REMARK  status: ('A' for Active; 'I' for Inactive)
REMARK    1  A    between atoms: N_1  and  S_2
REMARK    2  A    between atoms: S_2  and  C_5
REMARK    3  A    between atoms: C_5  and  C_8
REMARK    4  A    between atoms: C_8  and  C_11
REMARK    5  A    between atoms: C_11  and  C_14
REMARK    6  A    between atoms: C_14  and  S_17
REMARK    7  A    between atoms: S_17  and  N_18
REMARK                            x       y       z     vdW  Elec       q    Type
REMARK                         _______ _______ _______ _____ _____    ______ ____
ROOT
ATOM      1  C   UNL     1       3.689   3.894  17.939  0.00  0.00    +0.000 C 
ATOM      2  F   UNL     1       4.372   2.795  18.374  0.00  0.00    +0.000 F 
ATOM      3  F   UNL     1       3.010   3.487  16.833  0.00  0.00    +0.000 F 
ENDROOT
BRANCH   1   4
ATOM      4  C   UNL     1       2.737   4.352  19.020  0.00  0.00    +0.000 C 
ATOM      5  F   UNL     1       1.659   5.000  18.482  0.00  0.00    +0.000 F 
ATOM      6  F   UNL     1       3.340   5.257  19.843  0.00  0.00    +0.000 F 
BRANCH   4   7
ATOM      7  S   UNL     1       2.111   2.908  19.944  0.00  0.00    +0.000 S 
ATOM      8  O   UNL     1       2.903   2.630  21.118  0.00  0.00    +0.000 OA
ATOM      9  O   UNL     1       1.710   1.857  19.034  0.00  0.00    +0.000 OA
BRANCH   7  10
ATOM     10  N   UNL     1       0.635   3.494  20.549  0.00  0.00    +0.000 NA
ATOM     11  H   UNL     1       0.059   3.857  19.785  0.00  0.00    +0.000 HD
ATOM     12  H   UNL     1       0.778   4.159  21.310  0.00  0.00    +0.000 HD
ENDBRANCH   7  10
ENDBRANCH   4   7
ENDBRANCH   1   4
BRANCH   1  13
ATOM     13  C   UNL     1       4.711   4.955  17.546  0.00  0.00    +0.000 C 
ATOM     14  F   UNL     1       4.099   6.166  17.464  0.00  0.00    +0.000 F 
ATOM     15  F   UNL     1       5.605   5.066  18.573  0.00  0.00    +0.000 F 
BRANCH  13  16
ATOM     16  C   UNL     1       5.454   4.637  16.269  0.00  0.00    +0.000 C 
ATOM     17  F   UNL     1       5.492   3.290  16.047  0.00  0.00    +0.000 F 
ATOM     18  F   UNL     1       4.842   5.165  15.173  0.00  0.00    +0.000 F 
BRANCH  16  19
ATOM     19  S   UNL     1       7.143   5.330  16.345  0.00  0.00    +0.000 S 
ATOM     20  O   UNL     1       7.085   6.739  16.665  0.00  0.00    +0.000 OA
ATOM     21  O   UNL     1       8.041   4.425  17.024  0.00  0.00    +0.000 OA
BRANCH  19  22
ATOM     22  N   UNL     1       7.617   5.276  14.718  0.00  0.00    +0.000 NA
ATOM     23  H   UNL     1       8.291   4.542  14.500  0.00  0.00    +0.000 HD
ATOM     24  H   UNL     1       7.778   6.193  14.298  0.00  0.00    +0.000 HD
ENDBRANCH  19  22
ENDBRANCH  16  19
ENDBRANCH  13  16
ENDBRANCH   1  13
TORSDOF 7
ENDMDL
MODEL 3
REMARK VINA RESULT:      -7.2      0.121      5.138
REMARK  Name = 
REMARK  7 active torsions:
REMARK  status: ('A' for Active; 'I' for Inactive)
REMARK    1  A    between atoms: N_1  and  S_2
REMARK    2  A    between atoms: S_2  and  C_5
REMARK    3  A    between atoms: C_5  and  C_8
REMARK    4  A    between atoms: C_8  and  C_11
REMARK    5  A    between atoms: C_11  and  C_14
REMARK    6  A    between atoms: C_14  and  S_17
REMARK    7  A    between atoms: S_17  and  N_18
REMARK                            x       y       z     vdW  Elec       q    Type
REMARK                         _______ _______ _______ _____ _____    ______ ____
ROOT
ATOM      1  C   UNL     1       3.100   5.293  18.595  0.00  0.00    +0.000 C 
ATOM      2  F   UNL     1       2.356   6.433  18.695  0.00  0.00    +0.000 F 
ATOM      3  F   UNL     1       3.483   4.996  19.866  0.00  0.00    +0.000 F 
ENDROOT
BRANCH   1   4
ATOM      4  C   UNL     1       2.249   4.189  18.014  0.00  0.00    +0.000 C 
ATOM      5  F   UNL     1       2.988   3.378  17.197  0.00  0.00    +0.000 F 
ATOM      6  F   UNL     1       1.260   4.704  17.229  0.00  0.00    +0.000 F 
BRANCH   4   7
ATOM      7  S   UNL     1       1.576   3.154  19.359  0.00  0.00    +0.000 S 
ATOM      8  O   UNL     1       0.716   3.904  20.242  0.00  0.00    +0.000 OA
ATOM      9  O   UNL     1       2.594   2.261  19.871  0.00  0.00    +0.000 OA
BRANCH   7  10
ATOM     10  N   UNL     1       0.529   2.118  18.513  0.00  0.00    +0.000 NA
ATOM     11  H   UNL     1       0.107   1.441  19.153  0.00  0.00    +0.000 HD
ATOM     12  H   UNL     1       0.992   1.692  17.708  0.00  0.00    +0.000 HD
ENDBRANCH   7  10
ENDBRANCH   4   7
ENDBRANCH   1   4
BRANCH   1  13
ATOM     13  C   UNL     1       4.332   5.611  17.755  0.00  0.00    +0.000 C 
ATOM     14  F   UNL     1       4.088   5.295  16.455  0.00  0.00    +0.000 F 
ATOM     15  F   UNL     1       4.506   6.966  17.776  0.00  0.00    +0.000 F 
BRANCH  13  16
ATOM     16  C   UNL     1       5.593   4.937  18.247  0.00  0.00    +0.000 C 
ATOM     17  F   UNL     1       6.119   5.606  19.316  0.00  0.00    +0.000 F 
ATOM     18  F   UNL     1       5.358   3.673  18.694  0.00  0.00    +0.000 F 
BRANCH  16  19
ATOM     19  S   UNL     1       6.808   4.826  16.888  0.00  0.00    +0.000 S 
ATOM     20  O   UNL     1       6.384   3.833  15.926  0.00  0.00    +0.000 OA
ATOM     21  O   UNL     1       7.256   6.141  16.488  0.00  0.00    +0.000 OA
BRANCH  19  22
ATOM     22  N   UNL     1       8.143   4.130  17.668  0.00  0.00    +0.000 NA
ATOM     23  H   UNL     1       8.800   4.804  18.061  0.00  0.00    +0.000 HD
ATOM     24  H   UNL     1       8.541   3.326  17.180  0.00  0.00    +0.000 HD
ENDBRANCH  19  22
ENDBRANCH  16  19
ENDBRANCH  13  16
ENDBRANCH   1  13
TORSDOF 7
ENDMDL
MODEL 4
REMARK VINA RESULT:      -7.2      1.535      2.556
REMARK  Name = 
REMARK  7 active torsions:
REMARK  status: ('A' for Active; 'I' for Inactive)
REMARK    1  A    between atoms: N_1  and  S_2
REMARK    2  A    between atoms: S_2  and  C_5
REMARK    3  A    between atoms: C_5  and  C_8
REMARK    4  A    between atoms: C_8  and  C_11
REMARK    5  A    between atoms: C_11  and  C_14
REMARK    6  A    between atoms: C_14  and  S_17
REMARK    7  A    between atoms: S_17  and  N_18
REMARK                            x       y       z     vdW  Elec       q    Type
REMARK                         _______ _______ _______ _____ _____    ______ ____
ROOT
ATOM      1  C   UNL     1       4.619   4.999  17.406  0.00  0.00    +0.000 C 
ATOM      2  F   UNL     1       5.455   5.235  18.460  0.00  0.00    +0.000 F 
ATOM      3  F   UNL     1       3.957   6.169  17.198  0.00  0.00    +0.000 F 
ENDROOT
BRANCH   1   4
ATOM      4  C   UNL     1       5.437   4.618  16.194  0.00  0.00    +0.000 C 
ATOM      5  F   UNL     1       4.867   5.098  15.047  0.00  0.00    +0.000 F 
ATOM      6  F   UNL     1       5.480   3.263  16.047  0.00  0.00    +0.000 F 
BRANCH   4   7
ATOM      7  S   UNL     1       7.109   5.339  16.326  0.00  0.00    +0.000 S 
ATOM      8  O   UNL     1       8.027   4.459  17.008  0.00  0.00    +0.000 OA
ATOM      9  O   UNL     1       7.031   6.748  16.645  0.00  0.00    +0.000 OA
BRANCH   7  10
ATOM     10  N   UNL     1       7.622   5.327  14.706  0.00  0.00    +0.000 NA
ATOM     11  H   UNL     1       6.886   5.694  14.099  0.00  0.00    +0.000 HD
ATOM     12  H   UNL     1       7.965   4.406  14.427  0.00  0.00    +0.000 HD
ENDBRANCH   7  10
ENDBRANCH   4   7
ENDBRANCH   1   4
BRANCH   1  13
ATOM     13  C   UNL     1       3.627   3.922  17.828  0.00  0.00    +0.000 C 
ATOM     14  F   UNL     1       2.985   3.441  16.730  0.00  0.00    +0.000 F 
ATOM     15  F   UNL     1       4.346   2.871  18.322  0.00  0.00    +0.000 F 
BRANCH  13  16
ATOM     16  C   UNL     1       2.636   4.385  18.872  0.00  0.00    +0.000 C 
ATOM     17  F   UNL     1       3.217   5.266  19.740  0.00  0.00    +0.000 F 
ATOM     18  F   UNL     1       1.588   5.058  18.323  0.00  0.00    +0.000 F 
BRANCH  16  19
ATOM     19  S   UNL     1       1.959   2.943  19.766  0.00  0.00    +0.000 S 
ATOM     20  O   UNL     1       1.581   1.911  18.826  0.00  0.00    +0.000 OA
ATOM     21  O   UNL     1       2.740   2.656  20.948  0.00  0.00    +0.000 OA
BRANCH  19  22
ATOM     22  N   UNL     1       0.490   3.554  20.353  0.00  0.00    +0.000 NA
ATOM     23  H   UNL     1      -0.135   3.912  19.631  0.00  0.00    +0.000 HD
ATOM     24  H   UNL     1       0.578   4.108  21.205  0.00  0.00    +0.000 HD
ENDBRANCH  19  22
ENDBRANCH  16  19
ENDBRANCH  13  16
ENDBRANCH   1  13
TORSDOF 7
ENDMDL
MODEL 5
REMARK VINA RESULT:      -7.1      1.450      2.453
REMARK  Name = 
REMARK  7 active torsions:
REMARK  status: ('A' for Active; 'I' for Inactive)
REMARK    1  A    between atoms: N_1  and  S_2
REMARK    2  A    between atoms: S_2  and  C_5
REMARK    3  A    between atoms: C_5  and  C_8
REMARK    4  A    between atoms: C_8  and  C_11
REMARK    5  A    between atoms: C_11  and  C_14
REMARK    6  A    between atoms: C_14  and  S_17
REMARK    7  A    between atoms: S_17  and  N_18
REMARK                            x       y       z     vdW  Elec       q    Type
REMARK                         _______ _______ _______ _____ _____    ______ ____
ROOT
ATOM      1  C   UNL     1       5.233   5.022  18.501  0.00  0.00    +0.000 C 
ATOM      2  F   UNL     1       5.848   3.820  18.706  0.00  0.00    +0.000 F 
ATOM      3  F   UNL     1       5.306   5.675  19.692  0.00  0.00    +0.000 F 
ENDROOT
BRANCH   1   4
ATOM      4  C   UNL     1       5.967   5.782  17.421  0.00  0.00    +0.000 C 
ATOM      5  F   UNL     1       6.836   6.688  17.963  0.00  0.00    +0.000 F 
ATOM      6  F   UNL     1       5.095   6.510  16.666  0.00  0.00    +0.000 F 
BRANCH   4   7
ATOM      7  S   UNL     1       6.940   4.622  16.402  0.00  0.00    +0.000 S 
ATOM      8  O   UNL     1       6.104   3.660  15.725  0.00  0.00    +0.000 OA
ATOM      9  O   UNL     1       8.145   4.222  17.098  0.00  0.00    +0.000 OA
BRANCH   7  10
ATOM     10  N   UNL     1       7.515   5.639  15.168  0.00  0.00    +0.000 NA
ATOM     11  H   UNL     1       6.890   5.602  14.359  0.00  0.00    +0.000 HD
ATOM     12  H   UNL     1       8.492   5.442  14.944  0.00  0.00    +0.000 HD
ENDBRANCH   7  10
ENDBRANCH   4   7
ENDBRANCH   1   4
BRANCH   1  13
ATOM     13  C   UNL     1       3.773   4.748  18.160  0.00  0.00    +0.000 C 
ATOM     14  F   UNL     1       3.013   5.812  18.532  0.00  0.00    +0.000 F 
ATOM     15  F   UNL     1       3.672   4.683  16.799  0.00  0.00    +0.000 F 
BRANCH  13  16
ATOM     16  C   UNL     1       3.239   3.467  18.762  0.00  0.00    +0.000 C 
ATOM     17  F   UNL     1       3.764   2.375  18.130  0.00  0.00    +0.000 F 
ATOM     18  F   UNL     1       3.590   3.329  20.070  0.00  0.00    +0.000 F 
BRANCH  16  19
ATOM     19  S   UNL     1       1.415   3.454  18.675  0.00  0.00    +0.000 S 
ATOM     20  O   UNL     1       0.858   3.952  19.913  0.00  0.00    +0.000 OA
ATOM     21  O   UNL     1       0.957   3.918  17.385  0.00  0.00    +0.000 OA
BRANCH  19  22
ATOM     22  N   UNL     1       1.076   1.792  18.687  0.00  0.00    +0.000 NA
ATOM     23  H   UNL     1       1.767   1.219  18.203  0.00  0.00    +0.000 HD
ATOM     24  H   UNL     1       0.093   1.565  18.529  0.00  0.00    +0.000 HD
ENDBRANCH  19  22
ENDBRANCH  16  19
ENDBRANCH  13  16
ENDBRANCH   1  13
TORSDOF 7
ENDMDL
MODEL 6
REMARK VINA RESULT:      -7.0      1.519      2.682
REMARK  Name = 
REMARK  7 active torsions:
REMARK  status: ('A' for Active; 'I' for Inactive)
REMARK    1  A    between atoms: N_1  and  S_2
REMARK    2  A    between atoms: S_2  and  C_5
REMARK    3  A    between atoms: C_5  and  C_8
REMARK    4  A    between atoms: C_8  and  C_11
REMARK    5  A    between atoms: C_11  and  C_14
REMARK    6  A    between atoms: C_14  and  S_17
REMARK    7  A    between atoms: S_17  and  N_18
REMARK                            x       y       z     vdW  Elec       q    Type
REMARK                         _______ _______ _______ _____ _____    ______ ____
ROOT
ATOM      1  C   UNL     1       5.159   5.055  18.243  0.00  0.00    +0.000 C 
ATOM      2  F   UNL     1       5.792   3.868  18.480  0.00  0.00    +0.000 F 
ATOM      3  F   UNL     1       5.336   5.792  19.373  0.00  0.00    +0.000 F 
ENDROOT
BRANCH   1   4
ATOM      4  C   UNL     1       5.794   5.731  17.051  0.00  0.00    +0.000 C 
ATOM      5  F   UNL     1       6.557   6.798  17.441  0.00  0.00    +0.000 F 
ATOM      6  F   UNL     1       4.840   6.242  16.220  0.00  0.00    +0.000 F 
BRANCH   4   7
ATOM      7  S   UNL     1       6.889   4.556  16.184  0.00  0.00    +0.000 S 
ATOM      8  O   UNL     1       6.146   3.517  15.512  0.00  0.00    +0.000 OA
ATOM      9  O   UNL     1       8.053   4.256  16.990  0.00  0.00    +0.000 OA
BRANCH   7  10
ATOM     10  N   UNL     1       7.513   5.519  14.931  0.00  0.00    +0.000 NA
ATOM     11  H   UNL     1       7.153   5.200  14.027  0.00  0.00    +0.000 HD
ATOM     12  H   UNL     1       8.532   5.576  14.973  0.00  0.00    +0.000 HD
ENDBRANCH   7  10
ENDBRANCH   4   7
ENDBRANCH   1   4
BRANCH   1  13
ATOM     13  C   UNL     1       3.675   4.765  18.053  0.00  0.00    +0.000 C 
ATOM     14  F   UNL     1       3.044   5.890  17.623  0.00  0.00    +0.000 F 
ATOM     15  F   UNL     1       3.559   3.866  17.030  0.00  0.00    +0.000 F 
BRANCH  13  16
ATOM     16  C   UNL     1       3.002   4.207  19.287  0.00  0.00    +0.000 C 
ATOM     17  F   UNL     1       3.887   3.492  20.044  0.00  0.00    +0.000 F 
ATOM     18  F   UNL     1       2.538   5.190  20.107  0.00  0.00    +0.000 F 
BRANCH  16  19
ATOM     19  S   UNL     1       1.577   3.172  18.802  0.00  0.00    +0.000 S 
ATOM     20  O   UNL     1       0.860   3.797  17.713  0.00  0.00    +0.000 OA
ATOM     21  O   UNL     1       1.940   1.773  18.780  0.00  0.00    +0.000 OA
BRANCH  19  22
ATOM     22  N   UNL     1       0.554   3.336  20.144  0.00  0.00    +0.000 NA
ATOM     23  H   UNL     1      -0.211   3.997  20.012  0.00  0.00    +0.000 HD
ATOM     24  H   UNL     1       1.042   3.365  21.041  0.00  0.00    +0.000 HD
ENDBRANCH  19  22
ENDBRANCH  16  19
ENDBRANCH  13  16
ENDBRANCH   1  13
TORSDOF 7
ENDMDL
MODEL 7
REMARK VINA RESULT:      -7.0      1.084      1.554
REMARK  Name = 
REMARK  7 active torsions:
REMARK  status: ('A' for Active; 'I' for Inactive)
REMARK    1  A    between atoms: N_1  and  S_2
REMARK    2  A    between atoms: S_2  and  C_5
REMARK    3  A    between atoms: C_5  and  C_8
REMARK    4  A    between atoms: C_8  and  C_11
REMARK    5  A    between atoms: C_11  and  C_14
REMARK    6  A    between atoms: C_14  and  S_17
REMARK    7  A    between atoms: S_17  and  N_18
REMARK                            x       y       z     vdW  Elec       q    Type
REMARK                         _______ _______ _______ _____ _____    ______ ____
ROOT
ATOM      1  C   UNL     1       4.438   4.713  17.516  0.00  0.00    +0.000 C 
ATOM      2  F   UNL     1       4.271   4.511  16.176  0.00  0.00    +0.000 F 
ATOM      3  F   UNL     1       4.905   3.533  18.006  0.00  0.00    +0.000 F 
ENDROOT
BRANCH   1   4
ATOM      4  C   UNL     1       5.439   5.823  17.734  0.00  0.00    +0.000 C 
ATOM      5  F   UNL     1       5.949   5.782  19.003  0.00  0.00    +0.000 F 
ATOM      6  F   UNL     1       4.841   7.043  17.614  0.00  0.00    +0.000 F 
BRANCH   4   7
ATOM      7  S   UNL     1       6.833   5.635  16.571  0.00  0.00    +0.000 S 
ATOM      8  O   UNL     1       6.417   5.779  15.197  0.00  0.00    +0.000 OA
ATOM      9  O   UNL     1       7.704   4.557  16.991  0.00  0.00    +0.000 OA
BRANCH   7  10
ATOM     10  N   UNL     1       7.748   7.030  16.893  0.00  0.00    +0.000 NA
ATOM     11  H   UNL     1       8.565   6.794  17.461  0.00  0.00    +0.000 HD
ATOM     12  H   UNL     1       7.171   7.774  17.290  0.00  0.00    +0.000 HD
ENDBRANCH   7  10
ENDBRANCH   4   7
ENDBRANCH   1   4
BRANCH   1  13
ATOM     13  C   UNL     1       3.070   5.008  18.119  0.00  0.00    +0.000 C 
ATOM     14  F   UNL     1       3.182   5.112  19.470  0.00  0.00    +0.000 F 
ATOM     15  F   UNL     1       2.687   6.246  17.687  0.00  0.00    +0.000 F 
BRANCH  13  16
ATOM     16  C   UNL     1       2.010   3.997  17.741  0.00  0.00    +0.000 C 
ATOM     17  F   UNL     1       0.932   4.610  17.168  0.00  0.00    +0.000 F 
ATOM     18  F   UNL     1       2.456   3.109  16.810  0.00  0.00    +0.000 F 
BRANCH  16  19
ATOM     19  S   UNL     1       1.507   3.045  19.217  0.00  0.00    +0.000 S 
ATOM     20  O   UNL     1       2.618   2.252  19.695  0.00  0.00    +0.000 OA
ATOM     21  O   UNL     1       0.703   3.855  20.104  0.00  0.00    +0.000 OA
BRANCH  19  22
ATOM     22  N   UNL     1       0.426   1.919  18.554  0.00  0.00    +0.000 NA
ATOM     23  H   UNL     1      -0.399   1.740  19.126  0.00  0.00    +0.000 HD
ATOM     24  H   UNL     1       0.877   1.109  18.126  0.00  0.00    +0.000 HD
ENDBRANCH  19  22
ENDBRANCH  16  19
ENDBRANCH  13  16
ENDBRANCH   1  13
TORSDOF 7
ENDMDL
MODEL 8
REMARK VINA RESULT:      -7.0      1.430      5.263
REMARK  Name = 
REMARK  7 active torsions:
REMARK  status: ('A' for Active; 'I' for Inactive)
REMARK    1  A    between atoms: N_1  and  S_2
REMARK    2  A    between atoms: S_2  and  C_5
REMARK    3  A    between atoms: C_5  and  C_8
REMARK    4  A    between atoms: C_8  and  C_11
REMARK    5  A    between atoms: C_11  and  C_14
REMARK    6  A    between atoms: C_14  and  S_17
REMARK    7  A    between atoms: S_17  and  N_18
REMARK                            x       y       z     vdW  Elec       q    Type
REMARK                         _______ _______ _______ _____ _____    ______ ____
ROOT
ATOM      1  C   UNL     1       3.602   3.843  17.719  0.00  0.00    +0.000 C 
ATOM      2  F   UNL     1       4.275   2.773  18.237  0.00  0.00    +0.000 F 
ATOM      3  F   UNL     1       2.949   3.366  16.625  0.00  0.00    +0.000 F 
ENDROOT
BRANCH   1   4
ATOM      4  C   UNL     1       2.627   4.366  18.747  0.00  0.00    +0.000 C 
ATOM      5  F   UNL     1       1.574   5.000  18.145  0.00  0.00    +0.000 F 
ATOM      6  F   UNL     1       3.219   5.303  19.541  0.00  0.00    +0.000 F 
BRANCH   4   7
ATOM      7  S   UNL     1       1.953   2.978  19.723  0.00  0.00    +0.000 S 
ATOM      8  O   UNL     1       2.798   2.642  20.843  0.00  0.00    +0.000 OA
ATOM      9  O   UNL     1       1.411   1.959  18.849  0.00  0.00    +0.000 OA
BRANCH   7  10
ATOM     10  N   UNL     1       0.571   3.680  20.419  0.00  0.00    +0.000 NA
ATOM     11  H   UNL     1       0.263   3.130  21.225  0.00  0.00    +0.000 HD
ATOM     12  H   UNL     1      -0.161   3.838  19.724  0.00  0.00    +0.000 HD
ENDBRANCH   7  10
ENDBRANCH   4   7
ENDBRANCH   1   4
BRANCH   1  13
ATOM     13  C   UNL     1       4.634   4.877  17.284  0.00  0.00    +0.000 C 
ATOM     14  F   UNL     1       4.016   6.069  17.065  0.00  0.00    +0.000 F 
ATOM     15  F   UNL     1       5.475   5.089  18.339  0.00  0.00    +0.000 F 
BRANCH  13  16
ATOM     16  C   UNL     1       5.442   4.458  16.076  0.00  0.00    +0.000 C 
ATOM     17  F   UNL     1       5.606   3.102  16.045  0.00  0.00    +0.000 F 
ATOM     18  F   UNL     1       4.819   4.773  14.907  0.00  0.00    +0.000 F 
BRANCH  16  19
ATOM     19  S   UNL     1       7.059   5.308  16.087  0.00  0.00    +0.000 S 
ATOM     20  O   UNL     1       7.673   5.218  14.781  0.00  0.00    +0.000 OA
ATOM     21  O   UNL     1       6.981   6.554  16.816  0.00  0.00    +0.000 OA
BRANCH  19  22
ATOM     22  N   UNL     1       7.985   4.284  17.071  0.00  0.00    +0.000 NA
ATOM     23  H   UNL     1       8.301   3.430  16.611  0.00  0.00    +0.000 HD
ATOM     24  H   UNL     1       7.635   4.193  18.026  0.00  0.00    +0.000 HD
ENDBRANCH  19  22
ENDBRANCH  16  19
ENDBRANCH  13  16
ENDBRANCH   1  13
TORSDOF 7
ENDMDL
MODEL 9
REMARK VINA RESULT:      -7.0      1.607      2.905
REMARK  Name = 
REMARK  7 active torsions:
REMARK  status: ('A' for Active; 'I' for Inactive)
REMARK    1  A    between atoms: N_1  and  S_2
REMARK    2  A    between atoms: S_2  and  C_5
REMARK    3  A    between atoms: C_5  and  C_8
REMARK    4  A    between atoms: C_8  and  C_11
REMARK    5  A    between atoms: C_11  and  C_14
REMARK    6  A    between atoms: C_14  and  S_17
REMARK    7  A    between atoms: S_17  and  N_18
REMARK                            x       y       z     vdW  Elec       q    Type
REMARK                         _______ _______ _______ _____ _____    ______ ____
ROOT
ATOM      1  C   UNL     1       4.668   5.650  17.504  0.00  0.00    +0.000 C 
ATOM      2  F   UNL     1       5.641   5.872  18.435  0.00  0.00    +0.000 F 
ATOM      3  F   UNL     1       3.802   6.692  17.627  0.00  0.00    +0.000 F 
ENDROOT
BRANCH   1   4
ATOM      4  C   UNL     1       5.289   5.622  16.127  0.00  0.00    +0.000 C 
ATOM      5  F   UNL     1       4.960   6.746  15.419  0.00  0.00    +0.000 F 
ATOM      6  F   UNL     1       4.808   4.573  15.401  0.00  0.00    +0.000 F 
BRANCH   4   7
ATOM      7  S   UNL     1       7.108   5.570  16.271  0.00  0.00    +0.000 S 
ATOM      8  O   UNL     1       7.564   4.390  16.964  0.00  0.00    +0.000 OA
ATOM      9  O   UNL     1       7.631   6.883  16.583  0.00  0.00    +0.000 OA
BRANCH   7  10
ATOM     10  N   UNL     1       7.578   5.330  14.656  0.00  0.00    +0.000 NA
ATOM     11  H   UNL     1       7.537   4.336  14.419  0.00  0.00    +0.000 HD
ATOM     12  H   UNL     1       8.482   5.764  14.459  0.00  0.00    +0.000 HD
ENDBRANCH   7  10
ENDBRANCH   4   7
ENDBRANCH   1   4
BRANCH   1  13
ATOM     13  C   UNL     1       3.957   4.352  17.871  0.00  0.00    +0.000 C 
ATOM     14  F   UNL     1       2.739   4.315  17.267  0.00  0.00    +0.000 F 
ATOM     15  F   UNL     1       4.669   3.323  17.323  0.00  0.00    +0.000 F 
BRANCH  13  16
ATOM     16  C   UNL     1       3.827   4.132  19.362  0.00  0.00    +0.000 C 
ATOM     17  F   UNL     1       4.959   3.563  19.872  0.00  0.00    +0.000 F 
ATOM     18  F   UNL     1       3.674   5.302  20.042  0.00  0.00    +0.000 F 
BRANCH  16  19
ATOM     19  S   UNL     1       2.364   3.095  19.710  0.00  0.00    +0.000 S 
ATOM     20  O   UNL     1       1.169   3.909  19.706  0.00  0.00    +0.000 OA
ATOM     21  O   UNL     1       2.441   1.840  18.998  0.00  0.00    +0.000 OA
BRANCH  19  22
ATOM     22  N   UNL     1       2.605   2.688  21.339  0.00  0.00    +0.000 NA
ATOM     23  H   UNL     1       3.558   2.403  21.565  0.00  0.00    +0.000 HD
ATOM     24  H   UNL     1       1.848   2.139  21.749  0.00  0.00    +0.000 HD
ENDBRANCH  19  22
ENDBRANCH  16  19
ENDBRANCH  13  16
ENDBRANCH   1  13
TORSDOF 7
ENDMDL
