MODEL 1
REMARK VINA RESULT:      -8.5      0.000      0.000
REMARK  Name = 
REMARK  3 active torsions:
REMARK  status: ('A' for Active; 'I' for Inactive)
REMARK    1  A    between atoms: C_2  and  C_4
REMARK    2  A    between atoms: C_8  and  N_9
REMARK    3  A    between atoms: C_10  and  C_12
REMARK                            x       y       z     vdW  Elec       q    Type
REMARK                         _______ _______ _______ _____ _____    ______ ____
ROOT
ATOM      1  N   UNL     1       5.904   3.837  15.323  0.00  0.00    +0.000 N 
ATOM      2  C   UNL     1       5.161   4.677  16.148  0.00  0.00    +0.000 C 
ATOM      3  O   UNL     1       5.082   5.894  15.984  0.00  0.00    +0.000 OA
ATOM      4  H   UNL     1       5.908   2.825  15.436  0.00  0.00    +0.000 HD
ENDROOT
BRANCH   2   5
ATOM      5  C   UNL     1       4.404   4.076  17.279  0.00  0.00    +0.000 A 
ATOM      6  C   UNL     1       4.973   3.827  18.545  0.00  0.00    +0.000 A 
ATOM      7  C   UNL     1       4.182   3.320  19.588  0.00  0.00    +0.000 A 
ATOM      8  C   UNL     1       2.849   3.070  19.333  0.00  0.00    +0.000 A 
ATOM      9  C   UNL     1       2.293   3.319  18.103  0.00  0.00    +0.000 A 
ATOM     10  C   UNL     1       3.037   3.826  17.062  0.00  0.00    +0.000 A 
ATOM     11  O   UNL     1       0.968   3.016  18.057  0.00  0.00    +0.000 OA
ATOM     12  C   UNL     1       0.763   2.496  19.386  0.00  0.00    +0.000 C 
ATOM     13  O   UNL     1       1.941   2.579  20.219  0.00  0.00    +0.000 OA
ENDBRANCH   2   5
BRANCH   1  18
ATOM     14  C   UNL     1       6.619   4.119  12.903  0.00  0.00    +0.000 A 
ATOM     15  C   UNL     1       7.637   4.963  12.389  0.00  0.00    +0.000 A 
ATOM     16  N   UNL     1       8.224   5.710  13.322  0.00  0.00    +0.000 NA
ATOM     17  N   UNL     1       7.594   5.340  14.447  0.00  0.00    +0.000 N 
ATOM     18  C   UNL     1       6.638   4.372  14.267  0.00  0.00    +0.000 A 
ATOM     19  H   UNL     1       7.844   5.770  15.337  0.00  0.00    +0.000 HD
BRANCH  14  21
ATOM     20  N   UNL     1       6.333   2.015  11.804  0.00  0.00    +0.000 N 
ATOM     21  C   UNL     1       5.756   3.195  12.194  0.00  0.00    +0.000 C 
ATOM     22  O   UNL     1       4.582   3.435  11.934  0.00  0.00    +0.000 OA
ATOM     23  H   UNL     1       5.768   1.372  11.266  0.00  0.00    +0.000 HD
ATOM     24  H   UNL     1       7.314   1.799  11.916  0.00  0.00    +0.000 HD
ENDBRANCH  14  21
ENDBRANCH   1  18
TORSDOF 3
ENDMDL
MODEL 2
REMARK VINA RESULT:      -8.3      1.043      1.209
REMARK  Name = 
REMARK  3 active torsions:
REMARK  status: ('A' for Active; 'I' for Inactive)
REMARK    1  A    between atoms: C_2  and  C_4
REMARK    2  A    between atoms: C_8  and  N_9
REMARK    3  A    between atoms: C_10  and  C_12
REMARK                            x       y       z     vdW  Elec       q    Type
REMARK                         _______ _______ _______ _____ _____    ______ ____
ROOT
ATOM      1  N   UNL     1       5.571   4.328  15.200  0.00  0.00    +0.000 N 
ATOM      2  C   UNL     1       5.097   5.355  16.013  0.00  0.00    +0.000 C 
ATOM      3  O   UNL     1       5.411   6.537  15.869  0.00  0.00    +0.000 OA
ATOM      4  H   UNL     1       5.252   3.367  15.295  0.00  0.00    +0.000 HD
ENDROOT
BRANCH   2   5
ATOM      5  C   UNL     1       4.142   5.017  17.103  0.00  0.00    +0.000 A 
ATOM      6  C   UNL     1       3.410   5.986  17.818  0.00  0.00    +0.000 A 
ATOM      7  C   UNL     1       2.476   5.592  18.789  0.00  0.00    +0.000 A 
ATOM      8  C   UNL     1       2.306   4.242  19.021  0.00  0.00    +0.000 A 
ATOM      9  C   UNL     1       3.013   3.297  18.319  0.00  0.00    +0.000 A 
ATOM     10  C   UNL     1       3.929   3.649  17.353  0.00  0.00    +0.000 A 
ATOM     11  O   UNL     1       2.697   2.027  18.687  0.00  0.00    +0.000 OA
ATOM     12  C   UNL     1       1.746   2.279  19.741  0.00  0.00    +0.000 C 
ATOM     13  O   UNL     1       1.452   3.683  19.920  0.00  0.00    +0.000 OA
ENDBRANCH   2   5
BRANCH   1  18
ATOM     14  C   UNL     1       6.584   4.151  12.880  0.00  0.00    +0.000 A 
ATOM     15  C   UNL     1       7.750   4.792  12.387  0.00  0.00    +0.000 A 
ATOM     16  N   UNL     1       8.317   5.609  13.272  0.00  0.00    +0.000 NA
ATOM     17  N   UNL     1       7.523   5.489  14.347  0.00  0.00    +0.000 N 
ATOM     18  C   UNL     1       6.481   4.611  14.184  0.00  0.00    +0.000 A 
ATOM     19  H   UNL     1       7.723   6.024  15.191  0.00  0.00    +0.000 HD
BRANCH  14  21
ATOM     20  N   UNL     1       6.253   2.025  11.836  0.00  0.00    +0.000 N 
ATOM     21  C   UNL     1       5.699   3.223  12.204  0.00  0.00    +0.000 C 
ATOM     22  O   UNL     1       4.525   3.476  11.950  0.00  0.00    +0.000 OA
ATOM     23  H   UNL     1       5.671   1.378  11.320  0.00  0.00    +0.000 HD
ATOM     24  H   UNL     1       7.231   1.796  11.943  0.00  0.00    +0.000 HD
ENDBRANCH  14  21
ENDBRANCH   1  18
TORSDOF 3
ENDMDL
MODEL 3
REMARK VINA RESULT:      -8.3      1.011      1.342
REMARK  Name = 
REMARK  3 active torsions:
REMARK  status: ('A' for Active; 'I' for Inactive)
REMARK    1  A    between atoms: C_2  and  C_4
REMARK    2  A    between atoms: C_8  and  N_9
REMARK    3  A    between atoms: C_10  and  C_12
REMARK                            x       y       z     vdW  Elec       q    Type
REMARK                         _______ _______ _______ _____ _____    ______ ____
ROOT
ATOM      1  N   UNL     1       5.709   3.737  15.416  0.00  0.00    +0.000 N 
ATOM      2  C   UNL     1       5.020   4.566  16.297  0.00  0.00    +0.000 C 
ATOM      3  O   UNL     1       5.041   5.795  16.232  0.00  0.00    +0.000 OA
ATOM      4  H   UNL     1       5.630   2.723  15.447  0.00  0.00    +0.000 HD
ENDROOT
BRANCH   2   5
ATOM      5  C   UNL     1       4.194   3.940  17.365  0.00  0.00    +0.000 A 
ATOM      6  C   UNL     1       3.814   2.583  17.354  0.00  0.00    +0.000 A 
ATOM      7  C   UNL     1       3.090   2.042  18.428  0.00  0.00    +0.000 A 
ATOM      8  C   UNL     1       2.763   2.875  19.479  0.00  0.00    +0.000 A 
ATOM      9  C   UNL     1       3.139   4.196  19.494  0.00  0.00    +0.000 A 
ATOM     10  C   UNL     1       3.858   4.755  18.461  0.00  0.00    +0.000 A 
ATOM     11  O   UNL     1       2.729   4.843  20.617  0.00  0.00    +0.000 OA
ATOM     12  C   UNL     1       2.004   3.792  21.286  0.00  0.00    +0.000 C 
ATOM     13  O   UNL     1       2.068   2.525  20.594  0.00  0.00    +0.000 OA
ENDBRANCH   2   5
BRANCH   1  18
ATOM     14  C   UNL     1       6.549   4.089  13.047  0.00  0.00    +0.000 A 
ATOM     15  C   UNL     1       7.607   4.929  12.614  0.00  0.00    +0.000 A 
ATOM     16  N   UNL     1       8.162   5.630  13.601  0.00  0.00    +0.000 NA
ATOM     17  N   UNL     1       7.470   5.234  14.679  0.00  0.00    +0.000 N 
ATOM     18  C   UNL     1       6.506   4.293  14.418  0.00  0.00    +0.000 A 
ATOM     19  H   UNL     1       7.683   5.627  15.595  0.00  0.00    +0.000 HD
BRANCH  14  21
ATOM     20  N   UNL     1       6.281   2.035  11.851  0.00  0.00    +0.000 N 
ATOM     21  C   UNL     1       5.705   3.208  12.263  0.00  0.00    +0.000 C 
ATOM     22  O   UNL     1       4.547   3.478  11.961  0.00  0.00    +0.000 OA
ATOM     23  H   UNL     1       5.731   1.424  11.262  0.00  0.00    +0.000 HD
ATOM     24  H   UNL     1       7.252   1.798  11.997  0.00  0.00    +0.000 HD
ENDBRANCH  14  21
ENDBRANCH   1  18
TORSDOF 3
ENDMDL
MODEL 4
REMARK VINA RESULT:      -8.1      1.005      1.664
REMARK  Name = 
REMARK  3 active torsions:
REMARK  status: ('A' for Active; 'I' for Inactive)
REMARK    1  A    between atoms: C_2  and  C_4
REMARK    2  A    between atoms: C_8  and  N_9
REMARK    3  A    between atoms: C_10  and  C_12
REMARK                            x       y       z     vdW  Elec       q    Type
REMARK                         _______ _______ _______ _____ _____    ______ ____
ROOT
ATOM      1  N   UNL     1       5.080   4.366  15.361  0.00  0.00    +0.000 N 
ATOM      2  C   UNL     1       5.277   4.169  16.725  0.00  0.00    +0.000 C 
ATOM      3  O   UNL     1       6.378   4.247  17.272  0.00  0.00    +0.000 OA
ATOM      4  H   UNL     1       4.155   4.359  14.937  0.00  0.00    +0.000 HD
ENDROOT
BRANCH   2   5
ATOM      5  C   UNL     1       4.096   3.870  17.579  0.00  0.00    +0.000 A 
ATOM      6  C   UNL     1       2.767   3.955  17.119  0.00  0.00    +0.000 A 
ATOM      7  C   UNL     1       1.702   3.593  17.959  0.00  0.00    +0.000 A 
ATOM      8  C   UNL     1       1.998   3.162  19.236  0.00  0.00    +0.000 A 
ATOM      9  C   UNL     1       3.293   3.071  19.684  0.00  0.00    +0.000 A 
ATOM     10  C   UNL     1       4.360   3.409  18.882  0.00  0.00    +0.000 A 
ATOM     11  O   UNL     1       3.374   2.619  20.963  0.00  0.00    +0.000 OA
ATOM     12  C   UNL     1       1.976   2.485  21.292  0.00  0.00    +0.000 C 
ATOM     13  O   UNL     1       1.099   2.776  20.181  0.00  0.00    +0.000 OA
ENDBRANCH   2   5
BRANCH   1  18
ATOM     14  C   UNL     1       6.496   4.178  13.262  0.00  0.00    +0.000 A 
ATOM     15  C   UNL     1       7.751   4.786  13.001  0.00  0.00    +0.000 A 
ATOM     16  N   UNL     1       8.169   5.577  13.987  0.00  0.00    +0.000 NA
ATOM     17  N   UNL     1       7.189   5.472  14.897  0.00  0.00    +0.000 N 
ATOM     18  C   UNL     1       6.169   4.629  14.533  0.00  0.00    +0.000 A 
ATOM     19  H   UNL     1       7.246   5.993  15.771  0.00  0.00    +0.000 HD
BRANCH  14  21
ATOM     20  N   UNL     1       6.399   2.212  11.904  0.00  0.00    +0.000 N 
ATOM     21  C   UNL     1       5.723   3.286  12.422  0.00  0.00    +0.000 C 
ATOM     22  O   UNL     1       4.537   3.464  12.162  0.00  0.00    +0.000 OA
ATOM     23  H   UNL     1       5.897   1.600  11.275  0.00  0.00    +0.000 HD
ATOM     24  H   UNL     1       7.392   2.062  12.014  0.00  0.00    +0.000 HD
ENDBRANCH  14  21
ENDBRANCH   1  18
TORSDOF 3
ENDMDL
MODEL 5
REMARK VINA RESULT:      -7.6      4.435      5.383
REMARK  Name = 
REMARK  3 active torsions:
REMARK  status: ('A' for Active; 'I' for Inactive)
REMARK    1  A    between atoms: C_2  and  C_4
REMARK    2  A    between atoms: C_8  and  N_9
REMARK    3  A    between atoms: C_10  and  C_12
REMARK                            x       y       z     vdW  Elec       q    Type
REMARK                         _______ _______ _______ _____ _____    ______ ____
ROOT
ATOM      1  N   UNL     1       4.681   6.908  17.296  0.00  0.00    +0.000 N 
ATOM      2  C   UNL     1       3.502   6.380  17.815  0.00  0.00    +0.000 C 
ATOM      3  O   UNL     1       3.154   5.209  17.660  0.00  0.00    +0.000 OA
ATOM      4  H   UNL     1       4.983   7.861  17.487  0.00  0.00    +0.000 HD
ENDROOT
BRANCH   2   5
ATOM      5  C   UNL     1       2.619   7.267  18.619  0.00  0.00    +0.000 A 
ATOM      6  C   UNL     1       2.262   6.998  19.956  0.00  0.00    +0.000 A 
ATOM      7  C   UNL     1       1.479   7.913  20.677  0.00  0.00    +0.000 A 
ATOM      8  C   UNL     1       1.070   9.066  20.039  0.00  0.00    +0.000 A 
ATOM      9  C   UNL     1       1.423   9.333  18.739  0.00  0.00    +0.000 A 
ATOM     10  C   UNL     1       2.198   8.462  18.007  0.00  0.00    +0.000 A 
ATOM     11  O   UNL     1       0.930  10.520  18.296  0.00  0.00    +0.000 OA
ATOM     12  C   UNL     1       0.179  10.949  19.451  0.00  0.00    +0.000 C 
ATOM     13  O   UNL     1       0.309  10.056  20.579  0.00  0.00    +0.000 OA
ENDBRANCH   2   5
BRANCH   1  18
ATOM     14  C   UNL     1       6.439   5.128  16.866  0.00  0.00    +0.000 A 
ATOM     15  C   UNL     1       6.987   4.728  15.620  0.00  0.00    +0.000 A 
ATOM     16  N   UNL     1       6.447   5.359  14.579  0.00  0.00    +0.000 NA
ATOM     17  N   UNL     1       5.554   6.180  15.153  0.00  0.00    +0.000 N 
ATOM     18  C   UNL     1       5.519   6.108  16.523  0.00  0.00    +0.000 A 
ATOM     19  H   UNL     1       4.977   6.790  14.575  0.00  0.00    +0.000 HD
BRANCH  14  21
ATOM     20  N   UNL     1       5.820   3.837  18.782  0.00  0.00    +0.000 N 
ATOM     21  C   UNL     1       6.756   4.650  18.197  0.00  0.00    +0.000 C 
ATOM     22  O   UNL     1       7.786   4.949  18.792  0.00  0.00    +0.000 OA
ATOM     23  H   UNL     1       5.994   3.528  19.729  0.00  0.00    +0.000 HD
ATOM     24  H   UNL     1       4.920   3.626  18.376  0.00  0.00    +0.000 HD
ENDBRANCH  14  21
ENDBRANCH   1  18
TORSDOF 3
ENDMDL
MODEL 6
REMARK VINA RESULT:      -7.6      4.448      5.458
REMARK  Name = 
REMARK  3 active torsions:
REMARK  status: ('A' for Active; 'I' for Inactive)
REMARK    1  A    between atoms: C_2  and  C_4
REMARK    2  A    between atoms: C_8  and  N_9
REMARK    3  A    between atoms: C_10  and  C_12
REMARK                            x       y       z     vdW  Elec       q    Type
REMARK                         _______ _______ _______ _____ _____    ______ ____
ROOT
ATOM      1  N   UNL     1       4.699   7.084  17.243  0.00  0.00    +0.000 N 
ATOM      2  C   UNL     1       3.473   6.665  17.754  0.00  0.00    +0.000 C 
ATOM      3  O   UNL     1       3.079   5.500  17.707  0.00  0.00    +0.000 OA
ATOM      4  H   UNL     1       5.035   8.038  17.346  0.00  0.00    +0.000 HD
ENDROOT
BRANCH   2   5
ATOM      5  C   UNL     1       2.596   7.670  18.412  0.00  0.00    +0.000 A 
ATOM      6  C   UNL     1       2.041   8.775  17.735  0.00  0.00    +0.000 A 
ATOM      7  C   UNL     1       1.167   9.647  18.402  0.00  0.00    +0.000 A 
ATOM      8  C   UNL     1       0.879   9.394  19.728  0.00  0.00    +0.000 A 
ATOM      9  C   UNL     1       1.413   8.314  20.387  0.00  0.00    +0.000 A 
ATOM     10  C   UNL     1       2.265   7.433  19.759  0.00  0.00    +0.000 A 
ATOM     11  O   UNL     1       1.000   8.234  21.680  0.00  0.00    +0.000 OA
ATOM     12  C   UNL     1       0.185   9.419  21.778  0.00  0.00    +0.000 C 
ATOM     13  O   UNL     1       0.060  10.131  20.526  0.00  0.00    +0.000 OA
ENDBRANCH   2   5
BRANCH   1  18
ATOM     14  C   UNL     1       6.313   5.131  17.090  0.00  0.00    +0.000 A 
ATOM     15  C   UNL     1       6.950   4.616  15.931  0.00  0.00    +0.000 A 
ATOM     16  N   UNL     1       6.586   5.236  14.810  0.00  0.00    +0.000 NA
ATOM     17  N   UNL     1       5.721   6.164  15.244  0.00  0.00    +0.000 N 
ATOM     18  C   UNL     1       5.533   6.170  16.604  0.00  0.00    +0.000 A 
ATOM     19  H   UNL     1       5.270   6.792  14.580  0.00  0.00    +0.000 HD
BRANCH  14  21
ATOM     20  N   UNL     1       5.559   3.733  18.877  0.00  0.00    +0.000 N 
ATOM     21  C   UNL     1       6.440   4.699  18.467  0.00  0.00    +0.000 C 
ATOM     22  O   UNL     1       7.267   5.163  19.245  0.00  0.00    +0.000 OA
ATOM     23  H   UNL     1       5.593   3.447  19.847  0.00  0.00    +0.000 HD
ATOM     24  H   UNL     1       4.804   3.375  18.308  0.00  0.00    +0.000 HD
ENDBRANCH  14  21
ENDBRANCH   1  18
TORSDOF 3
ENDMDL
MODEL 7
REMARK VINA RESULT:      -7.6      5.470      7.580
REMARK  Name = 
REMARK  3 active torsions:
REMARK  status: ('A' for Active; 'I' for Inactive)
REMARK    1  A    between atoms: C_2  and  C_4
REMARK    2  A    between atoms: C_8  and  N_9
REMARK    3  A    between atoms: C_10  and  C_12
REMARK                            x       y       z     vdW  Elec       q    Type
REMARK                         _______ _______ _______ _____ _____    ______ ____
ROOT
ATOM      1  N   UNL     1       2.762   5.802  20.155  0.00  0.00    +0.000 N 
ATOM      2  C   UNL     1       2.632   6.604  19.024  0.00  0.00    +0.000 C 
ATOM      3  O   UNL     1       2.974   6.249  17.896  0.00  0.00    +0.000 OA
ATOM      4  H   UNL     1       2.416   6.087  21.069  0.00  0.00    +0.000 HD
ENDROOT
BRANCH   2   5
ATOM      5  C   UNL     1       2.028   7.955  19.176  0.00  0.00    +0.000 A 
ATOM      6  C   UNL     1       1.901   8.869  18.111  0.00  0.00    +0.000 A 
ATOM      7  C   UNL     1       1.260  10.102  18.309  0.00  0.00    +0.000 A 
ATOM      8  C   UNL     1       0.772  10.388  19.568  0.00  0.00    +0.000 A 
ATOM      9  C   UNL     1       0.890   9.495  20.605  0.00  0.00    +0.000 A 
ATOM     10  C   UNL     1       1.503   8.273  20.441  0.00  0.00    +0.000 A 
ATOM     11  O   UNL     1       0.339   9.958  21.759  0.00  0.00    +0.000 OA
ATOM     12  C   UNL     1      -0.093  11.270  21.345  0.00  0.00    +0.000 C 
ATOM     13  O   UNL     1       0.130  11.528  19.941  0.00  0.00    +0.000 OA
ENDBRANCH   2   5
BRANCH   1  18
ATOM     14  C   UNL     1       2.900   3.283  20.439  0.00  0.00    +0.000 A 
ATOM     15  C   UNL     1       3.972   2.425  20.083  0.00  0.00    +0.000 A 
ATOM     16  N   UNL     1       4.982   3.059  19.490  0.00  0.00    +0.000 NA
ATOM     17  N   UNL     1       4.569   4.335  19.472  0.00  0.00    +0.000 N 
ATOM     18  C   UNL     1       3.341   4.540  20.049  0.00  0.00    +0.000 A 
ATOM     19  H   UNL     1       5.158   5.056  19.057  0.00  0.00    +0.000 HD
BRANCH  14  21
ATOM     20  N   UNL     1       0.515   3.159  20.314  0.00  0.00    +0.000 N 
ATOM     21  C   UNL     1       1.639   2.953  21.071  0.00  0.00    +0.000 C 
ATOM     22  O   UNL     1       1.552   2.525  22.218  0.00  0.00    +0.000 OA
ATOM     23  H   UNL     1      -0.382   2.983  20.747  0.00  0.00    +0.000 HD
ATOM     24  H   UNL     1       0.520   3.587  19.398  0.00  0.00    +0.000 HD
ENDBRANCH  14  21
ENDBRANCH   1  18
TORSDOF 3
ENDMDL
MODEL 8
REMARK VINA RESULT:      -7.5      1.029      1.745
REMARK  Name = 
REMARK  3 active torsions:
REMARK  status: ('A' for Active; 'I' for Inactive)
REMARK    1  A    between atoms: C_2  and  C_4
REMARK    2  A    between atoms: C_8  and  N_9
REMARK    3  A    between atoms: C_10  and  C_12
REMARK                            x       y       z     vdW  Elec       q    Type
REMARK                         _______ _______ _______ _____ _____    ______ ____
ROOT
ATOM      1  N   UNL     1       5.614   3.824  15.250  0.00  0.00    +0.000 N 
ATOM      2  C   UNL     1       4.951   4.690  16.116  0.00  0.00    +0.000 C 
ATOM      3  O   UNL     1       5.047   5.916  16.058  0.00  0.00    +0.000 OA
ATOM      4  H   UNL     1       5.473   2.817  15.273  0.00  0.00    +0.000 HD
ENDROOT
BRANCH   2   5
ATOM      5  C   UNL     1       4.060   4.111  17.158  0.00  0.00    +0.000 A 
ATOM      6  C   UNL     1       2.695   3.838  16.943  0.00  0.00    +0.000 A 
ATOM      7  C   UNL     1       1.928   3.228  17.949  0.00  0.00    +0.000 A 
ATOM      8  C   UNL     1       2.548   2.916  19.142  0.00  0.00    +0.000 A 
ATOM      9  C   UNL     1       3.881   3.174  19.349  0.00  0.00    +0.000 A 
ATOM     10  C   UNL     1       4.663   3.761  18.380  0.00  0.00    +0.000 A 
ATOM     11  O   UNL     1       4.304   2.785  20.581  0.00  0.00    +0.000 OA
ATOM     12  C   UNL     1       3.071   2.298  21.149  0.00  0.00    +0.000 C 
ATOM     13  O   UNL     1       1.964   2.328  20.220  0.00  0.00    +0.000 OA
ENDBRANCH   2   5
BRANCH   1  18
ATOM     14  C   UNL     1       6.596   4.067  12.922  0.00  0.00    +0.000 A 
ATOM     15  C   UNL     1       7.678   4.889  12.515  0.00  0.00    +0.000 A 
ATOM     16  N   UNL     1       8.171   5.639  13.499  0.00  0.00    +0.000 NA
ATOM     17  N   UNL     1       7.415   5.292  14.552  0.00  0.00    +0.000 N 
ATOM     18  C   UNL     1       6.469   4.336  14.277  0.00  0.00    +0.000 A 
ATOM     19  H   UNL     1       7.571   5.729  15.459  0.00  0.00    +0.000 HD
BRANCH  14  21
ATOM     20  N   UNL     1       4.503   3.516  11.906  0.00  0.00    +0.000 N 
ATOM     21  C   UNL     1       5.803   3.147  12.131  0.00  0.00    +0.000 C 
ATOM     22  O   UNL     1       6.240   2.089  11.690  0.00  0.00    +0.000 OA
ATOM     23  H   UNL     1       3.913   2.870  11.399  0.00  0.00    +0.000 HD
ATOM     24  H   UNL     1       4.066   4.331  12.314  0.00  0.00    +0.000 HD
ENDBRANCH  14  21
ENDBRANCH   1  18
TORSDOF 3
ENDMDL
MODEL 9
REMARK VINA RESULT:      -7.5      3.322      7.017
REMARK  Name = 
REMARK  3 active torsions:
REMARK  status: ('A' for Active; 'I' for Inactive)
REMARK    1  A    between atoms: C_2  and  C_4
REMARK    2  A    between atoms: C_8  and  N_9
REMARK    3  A    between atoms: C_10  and  C_12
REMARK                            x       y       z     vdW  Elec       q    Type
REMARK                         _______ _______ _______ _____ _____    ______ ____
ROOT
ATOM      1  N   UNL     1       3.537   4.426  19.000  0.00  0.00    +0.000 N 
ATOM      2  C   UNL     1       4.748   3.813  18.687  0.00  0.00    +0.000 C 
ATOM      3  O   UNL     1       5.161   2.798  19.247  0.00  0.00    +0.000 OA
ATOM      4  H   UNL     1       3.183   5.229  18.485  0.00  0.00    +0.000 HD
ENDROOT
BRANCH   2   5
ATOM      5  C   UNL     1       5.583   4.400  17.605  0.00  0.00    +0.000 A 
ATOM      6  C   UNL     1       6.488   5.460  17.814  0.00  0.00    +0.000 A 
ATOM      7  C   UNL     1       7.295   5.920  16.761  0.00  0.00    +0.000 A 
ATOM      8  C   UNL     1       7.168   5.311  15.529  0.00  0.00    +0.000 A 
ATOM      9  C   UNL     1       6.291   4.274  15.326  0.00  0.00    +0.000 A 
ATOM     10  C   UNL     1       5.494   3.791  16.340  0.00  0.00    +0.000 A 
ATOM     11  O   UNL     1       6.322   3.806  14.050  0.00  0.00    +0.000 OA
ATOM     12  C   UNL     1       7.281   4.704  13.455  0.00  0.00    +0.000 C 
ATOM     13  O   UNL     1       7.862   5.627  14.403  0.00  0.00    +0.000 OA
ENDBRANCH   2   5
BRANCH   1  18
ATOM     14  C   UNL     1       1.741   2.953  20.022  0.00  0.00    +0.000 A 
ATOM     15  C   UNL     1       1.304   2.921  21.372  0.00  0.00    +0.000 A 
ATOM     16  N   UNL     1       1.982   3.748  22.166  0.00  0.00    +0.000 NA
ATOM     17  N   UNL     1       2.853   4.327  21.326  0.00  0.00    +0.000 N 
ATOM     18  C   UNL     1       2.742   3.913  20.022  0.00  0.00    +0.000 A 
ATOM     19  H   UNL     1       3.519   5.015  21.676  0.00  0.00    +0.000 HD
BRANCH  14  21
ATOM     20  N   UNL     1       2.217   1.509  18.177  0.00  0.00    +0.000 N 
ATOM     21  C   UNL     1       1.262   2.184  18.891  0.00  0.00    +0.000 C 
ATOM     22  O   UNL     1       0.081   2.134  18.562  0.00  0.00    +0.000 OA
ATOM     23  H   UNL     1       1.918   1.003  17.354  0.00  0.00    +0.000 HD
ATOM     24  H   UNL     1       3.210   1.580  18.349  0.00  0.00    +0.000 HD
ENDBRANCH  14  21
ENDBRANCH   1  18
TORSDOF 3
ENDMDL
