MODEL 1
REMARK VINA RESULT:      -6.1      0.000      0.000
REMARK  Name = 
REMARK  14 active torsions:
REMARK  status: ('A' for Active; 'I' for Inactive)
REMARK    1  A    between atoms: C_2  and  C_3
REMARK    2  A    between atoms: C_2  and  C_4
REMARK    3  A    between atoms: C_4  and  C_5
REMARK    4  A    between atoms: C_6  and  C_7
REMARK    5  A    between atoms: C_8  and  C_9
REMARK    6  A    between atoms: C_20  and  N_21
REMARK    7  A    between atoms: N_21  and  C_22
REMARK    8  A    between atoms: C_22  and  C_23
REMARK    9  A    between atoms: C_23  and  C_24
REMARK   10  A    between atoms: C_24  and  N_25
REMARK   11  A    between atoms: N_25  and  C_26
REMARK   12  A    between atoms: N_25  and  C_28
REMARK   13  A    between atoms: C_26  and  C_27
REMARK   14  A    between atoms: C_28  and  C_29
REMARK                            x       y       z     vdW  Elec       q    Type
REMARK                         _______ _______ _______ _____ _____    ______ ____
ROOT
ATOM      1  C   UNL     1      -0.560  11.231  20.732  0.00  0.00    +0.000 A 
ATOM      2  C   UNL     1      -1.553  12.173  21.296  0.00  0.00    +0.000 A 
ATOM      3  C   UNL     1      -1.364  12.809  22.668  0.00  0.00    +0.000 C 
ATOM      4  C   UNL     1      -2.683  12.459  20.608  0.00  0.00    +0.000 A 
ATOM      5  C   UNL     1      -2.933  11.933  19.329  0.00  0.00    +0.000 A 
ATOM      6  N   UNL     1      -3.951  12.138  18.526  0.00  0.00    +0.000 NA
ATOM      7  C   UNL     1      -3.674  11.414  17.409  0.00  0.00    +0.000 A 
ATOM      8  C   UNL     1      -4.441  11.305  16.237  0.00  0.00    +0.000 A 
ATOM      9  C   UNL     1      -3.959  10.518  15.187  0.00  0.00    +0.000 A 
ATOM     10  C   UNL     1      -2.744   9.847  15.312  0.00  0.00    +0.000 A 
ATOM     11  C   UNL     1      -1.972   9.936  16.479  0.00  0.00    +0.000 A 
ATOM     12  C   UNL     1      -2.460  10.732  17.527  0.00  0.00    +0.000 A 
ATOM     13  N   UNL     1      -1.984  11.066  18.798  0.00  0.00    +0.000 N 
ATOM     14  C   UNL     1      -0.797  10.680  19.502  0.00  0.00    +0.000 A 
ENDROOT
BRANCH   4  15
ATOM     15  C   UNL     1      -3.703  13.355  21.291  0.00  0.00    +0.000 C 
ATOM     16  N   UNL     1      -4.550  14.099  21.858  0.00  0.00    +0.000 NA
ENDBRANCH   4  15
BRANCH  14  17
ATOM     17  N   UNL     1       0.028   9.745  18.873  0.00  0.00    +0.000 N 
ATOM     18  H   UNL     1      -0.487   9.262  18.136  0.00  0.00    +0.000 HD
BRANCH  17  19
ATOM     19  C   UNL     1       1.384  10.080  18.434  0.00  0.00    +0.000 C 
BRANCH  19  20
ATOM     20  C   UNL     1       2.004   8.904  17.687  0.00  0.00    +0.000 C 
BRANCH  20  21
ATOM     21  C   UNL     1       1.977   7.650  18.574  0.00  0.00    +0.000 C 
BRANCH  21  22
ATOM     22  N   UNL     1       3.265   6.939  18.699  0.00  0.00    +0.000 NA
BRANCH  22  23
ATOM     23  C   UNL     1       3.140   5.568  19.219  0.00  0.00    +0.000 C 
ATOM     24  C   UNL     1       2.099   5.353  20.313  0.00  0.00    +0.000 C 
ENDBRANCH  22  23
BRANCH  22  25
ATOM     25  C   UNL     1       3.995   7.023  17.419  0.00  0.00    +0.000 C 
ATOM     26  C   UNL     1       5.105   5.991  17.247  0.00  0.00    +0.000 C 
ENDBRANCH  22  25
ENDBRANCH  21  22
ENDBRANCH  20  21
ENDBRANCH  19  20
ENDBRANCH  17  19
ENDBRANCH  14  17
BRANCH   1  27
ATOM     27  C   UNL     1       0.705  10.985  21.542  0.00  0.00    +0.000 C 
BRANCH  27  29
ATOM     28  C   UNL     1       1.612   8.708  21.947  0.00  0.00    +0.000 C 
ATOM     29  C   UNL     1       0.760   9.678  22.326  0.00  0.00    +0.000 C 
ATOM     30  C   UNL     1      -0.115   9.464  23.533  0.00  0.00    +0.000 C 
ENDBRANCH  27  29
ENDBRANCH   1  27
TORSDOF 10
ENDMDL
MODEL 2
REMARK VINA RESULT:      -6.0      2.998      6.915
REMARK  Name = 
REMARK  14 active torsions:
REMARK  status: ('A' for Active; 'I' for Inactive)
REMARK    1  A    between atoms: C_2  and  C_3
REMARK    2  A    between atoms: C_2  and  C_4
REMARK    3  A    between atoms: C_4  and  C_5
REMARK    4  A    between atoms: C_6  and  C_7
REMARK    5  A    between atoms: C_8  and  C_9
REMARK    6  A    between atoms: C_20  and  N_21
REMARK    7  A    between atoms: N_21  and  C_22
REMARK    8  A    between atoms: C_22  and  C_23
REMARK    9  A    between atoms: C_23  and  C_24
REMARK   10  A    between atoms: C_24  and  N_25
REMARK   11  A    between atoms: N_25  and  C_26
REMARK   12  A    between atoms: N_25  and  C_28
REMARK   13  A    between atoms: C_26  and  C_27
REMARK   14  A    between atoms: C_28  and  C_29
REMARK                            x       y       z     vdW  Elec       q    Type
REMARK                         _______ _______ _______ _____ _____    ______ ____
ROOT
ATOM      1  C   UNL     1      -1.619  11.443  19.698  0.00  0.00    +0.000 A 
ATOM      2  C   UNL     1      -1.667  10.783  18.374  0.00  0.00    +0.000 A 
ATOM      3  C   UNL     1      -0.477  10.008  17.821  0.00  0.00    +0.000 C 
ATOM      4  C   UNL     1      -2.774  10.891  17.602  0.00  0.00    +0.000 A 
ATOM      5  C   UNL     1      -3.925  11.571  18.036  0.00  0.00    +0.000 A 
ATOM      6  N   UNL     1      -5.078  11.734  17.430  0.00  0.00    +0.000 NA
ATOM      7  C   UNL     1      -5.843  12.438  18.306  0.00  0.00    +0.000 A 
ATOM      8  C   UNL     1      -7.174  12.860  18.146  0.00  0.00    +0.000 A 
ATOM      9  C   UNL     1      -7.789  13.559  19.188  0.00  0.00    +0.000 A 
ATOM     10  C   UNL     1      -7.085  13.840  20.357  0.00  0.00    +0.000 A 
ATOM     11  C   UNL     1      -5.754  13.437  20.528  0.00  0.00    +0.000 A 
ATOM     12  C   UNL     1      -5.144  12.731  19.479  0.00  0.00    +0.000 A 
ATOM     13  N   UNL     1      -3.878  12.170  19.291  0.00  0.00    +0.000 N 
ATOM     14  C   UNL     1      -2.716  12.139  20.128  0.00  0.00    +0.000 A 
ENDROOT
BRANCH   4  15
ATOM     15  C   UNL     1      -2.716  10.272  16.215  0.00  0.00    +0.000 C 
ATOM     16  N   UNL     1      -2.669   9.758  15.064  0.00  0.00    +0.000 NA
ENDBRANCH   4  15
BRANCH  14  17
ATOM     17  N   UNL     1      -2.790  12.847  21.330  0.00  0.00    +0.000 N 
ATOM     18  H   UNL     1      -2.493  12.254  22.106  0.00  0.00    +0.000 HD
BRANCH  17  19
ATOM     19  C   UNL     1      -2.249  14.201  21.466  0.00  0.00    +0.000 C 
BRANCH  19  20
ATOM     20  C   UNL     1      -1.214  14.247  22.585  0.00  0.00    +0.000 C 
BRANCH  20  21
ATOM     21  C   UNL     1      -1.919  14.272  23.949  0.00  0.00    +0.000 C 
BRANCH  21  22
ATOM     22  N   UNL     1      -3.394  14.215  23.898  0.00  0.00    +0.000 NA
BRANCH  22  23
ATOM     23  C   UNL     1      -3.968  13.042  24.574  0.00  0.00    +0.000 C 
ATOM     24  C   UNL     1      -5.396  12.671  24.184  0.00  0.00    +0.000 C 
ENDBRANCH  22  23
BRANCH  22  25
ATOM     25  C   UNL     1      -3.947  15.501  24.367  0.00  0.00    +0.000 C 
ATOM     26  C   UNL     1      -4.775  16.255  23.332  0.00  0.00    +0.000 C 
ENDBRANCH  22  25
ENDBRANCH  21  22
ENDBRANCH  20  21
ENDBRANCH  19  20
ENDBRANCH  17  19
ENDBRANCH  14  17
BRANCH   1  27
ATOM     27  C   UNL     1      -0.358  11.248  20.527  0.00  0.00    +0.000 C 
BRANCH  27  29
ATOM     28  C   UNL     1      -0.085   8.905  21.306  0.00  0.00    +0.000 C 
ATOM     29  C   UNL     1      -0.420  10.173  21.607  0.00  0.00    +0.000 C 
ATOM     30  C   UNL     1      -0.836  10.514  23.013  0.00  0.00    +0.000 C 
ENDBRANCH  27  29
ENDBRANCH   1  27
TORSDOF 10
ENDMDL
MODEL 3
REMARK VINA RESULT:      -5.7      0.751      1.533
REMARK  Name = 
REMARK  14 active torsions:
REMARK  status: ('A' for Active; 'I' for Inactive)
REMARK    1  A    between atoms: C_2  and  C_3
REMARK    2  A    between atoms: C_2  and  C_4
REMARK    3  A    between atoms: C_4  and  C_5
REMARK    4  A    between atoms: C_6  and  C_7
REMARK    5  A    between atoms: C_8  and  C_9
REMARK    6  A    between atoms: C_20  and  N_21
REMARK    7  A    between atoms: N_21  and  C_22
REMARK    8  A    between atoms: C_22  and  C_23
REMARK    9  A    between atoms: C_23  and  C_24
REMARK   10  A    between atoms: C_24  and  N_25
REMARK   11  A    between atoms: N_25  and  C_26
REMARK   12  A    between atoms: N_25  and  C_28
REMARK   13  A    between atoms: C_26  and  C_27
REMARK   14  A    between atoms: C_28  and  C_29
REMARK                            x       y       z     vdW  Elec       q    Type
REMARK                         _______ _______ _______ _____ _____    ______ ____
ROOT
ATOM      1  C   UNL     1      -0.451  11.057  20.480  0.00  0.00    +0.000 A 
ATOM      2  C   UNL     1      -1.368  12.058  21.070  0.00  0.00    +0.000 A 
ATOM      3  C   UNL     1      -1.099  12.688  22.431  0.00  0.00    +0.000 C 
ATOM      4  C   UNL     1      -2.501  12.408  20.416  0.00  0.00    +0.000 A 
ATOM      5  C   UNL     1      -2.822  11.893  19.149  0.00  0.00    +0.000 A 
ATOM      6  N   UNL     1      -3.851  12.155  18.377  0.00  0.00    +0.000 NA
ATOM      7  C   UNL     1      -3.653  11.411  17.256  0.00  0.00    +0.000 A 
ATOM      8  C   UNL     1      -4.463  11.343  16.109  0.00  0.00    +0.000 A 
ATOM      9  C   UNL     1      -4.062  10.525  15.049  0.00  0.00    +0.000 A 
ATOM     10  C   UNL     1      -2.885   9.784  15.140  0.00  0.00    +0.000 A 
ATOM     11  C   UNL     1      -2.073   9.831  16.281  0.00  0.00    +0.000 A 
ATOM     12  C   UNL     1      -2.479  10.659  17.340  0.00  0.00    +0.000 A 
ATOM     13  N   UNL     1      -1.944  10.969  18.593  0.00  0.00    +0.000 N 
ATOM     14  C   UNL     1      -0.760  10.516  19.261  0.00  0.00    +0.000 A 
ENDROOT
BRANCH   4  15
ATOM     15  C   UNL     1      -3.444  13.366  21.126  0.00  0.00    +0.000 C 
ATOM     16  N   UNL     1      -4.227  14.161  21.715  0.00  0.00    +0.000 NA
ENDBRANCH   4  15
BRANCH  14  17
ATOM     17  N   UNL     1      -0.012   9.531  18.613  0.00  0.00    +0.000 N 
ATOM     18  H   UNL     1      -0.559   9.113  17.859  0.00  0.00    +0.000 HD
BRANCH  17  19
ATOM     19  C   UNL     1       1.371   9.761  18.191  0.00  0.00    +0.000 C 
BRANCH  19  20
ATOM     20  C   UNL     1       2.075   8.432  17.939  0.00  0.00    +0.000 C 
BRANCH  20  21
ATOM     21  C   UNL     1       2.387   7.744  19.277  0.00  0.00    +0.000 C 
BRANCH  21  22
ATOM     22  N   UNL     1       2.319   6.269  19.258  0.00  0.00    +0.000 NA
BRANCH  22  23
ATOM     23  C   UNL     1       3.597   5.619  18.929  0.00  0.00    +0.000 C 
ATOM     24  C   UNL     1       3.676   4.936  17.567  0.00  0.00    +0.000 C 
ENDBRANCH  22  23
BRANCH  22  25
ATOM     25  C   UNL     1       1.719   5.793  20.520  0.00  0.00    +0.000 C 
ATOM     26  C   UNL     1       1.174   4.369  20.471  0.00  0.00    +0.000 C 
ENDBRANCH  22  25
ENDBRANCH  21  22
ENDBRANCH  20  21
ENDBRANCH  19  20
ENDBRANCH  17  19
ENDBRANCH  14  17
BRANCH   1  27
ATOM     27  C   UNL     1       0.822  10.739  21.251  0.00  0.00    +0.000 C 
BRANCH  27  29
ATOM     28  C   UNL     1      -0.319   8.724  22.150  0.00  0.00    +0.000 C 
ATOM     29  C   UNL     1       0.787   9.490  22.126  0.00  0.00    +0.000 C 
ATOM     30  C   UNL     1       1.982   9.091  22.950  0.00  0.00    +0.000 C 
ENDBRANCH  27  29
ENDBRANCH   1  27
TORSDOF 10
ENDMDL
MODEL 4
REMARK VINA RESULT:      -5.7      1.450      2.376
REMARK  Name = 
REMARK  14 active torsions:
REMARK  status: ('A' for Active; 'I' for Inactive)
REMARK    1  A    between atoms: C_2  and  C_3
REMARK    2  A    between atoms: C_2  and  C_4
REMARK    3  A    between atoms: C_4  and  C_5
REMARK    4  A    between atoms: C_6  and  C_7
REMARK    5  A    between atoms: C_8  and  C_9
REMARK    6  A    between atoms: C_20  and  N_21
REMARK    7  A    between atoms: N_21  and  C_22
REMARK    8  A    between atoms: C_22  and  C_23
REMARK    9  A    between atoms: C_23  and  C_24
REMARK   10  A    between atoms: C_24  and  N_25
REMARK   11  A    between atoms: N_25  and  C_26
REMARK   12  A    between atoms: N_25  and  C_28
REMARK   13  A    between atoms: C_26  and  C_27
REMARK   14  A    between atoms: C_28  and  C_29
REMARK                            x       y       z     vdW  Elec       q    Type
REMARK                         _______ _______ _______ _____ _____    ______ ____
ROOT
ATOM      1  C   UNL     1      -0.004  12.190  20.399  0.00  0.00    +0.000 A 
ATOM      2  C   UNL     1      -1.030  12.978  21.120  0.00  0.00    +0.000 A 
ATOM      3  C   UNL     1      -0.697  13.759  22.385  0.00  0.00    +0.000 C 
ATOM      4  C   UNL     1      -2.311  12.985  20.683  0.00  0.00    +0.000 A 
ATOM      5  C   UNL     1      -2.706  12.308  19.516  0.00  0.00    +0.000 A 
ATOM      6  N   UNL     1      -3.887  12.247  18.945  0.00  0.00    +0.000 NA
ATOM      7  C   UNL     1      -3.704  11.489  17.831  0.00  0.00    +0.000 A 
ATOM      8  C   UNL     1      -4.657  11.134  16.861  0.00  0.00    +0.000 A 
ATOM      9  C   UNL     1      -4.252  10.360  15.771  0.00  0.00    +0.000 A 
ATOM     10  C   UNL     1      -2.927   9.941  15.660  0.00  0.00    +0.000 A 
ATOM     11  C   UNL     1      -1.967  10.277  16.624  0.00  0.00    +0.000 A 
ATOM     12  C   UNL     1      -2.380  11.059  17.714  0.00  0.00    +0.000 A 
ATOM     13  N   UNL     1      -1.732  11.589  18.833  0.00  0.00    +0.000 N 
ATOM     14  C   UNL     1      -0.373  11.496  19.278  0.00  0.00    +0.000 A 
ENDROOT
BRANCH   4  15
ATOM     15  C   UNL     1      -3.329  13.733  21.528  0.00  0.00    +0.000 C 
ATOM     16  N   UNL     1      -4.173  14.354  22.229  0.00  0.00    +0.000 NA
ENDBRANCH   4  15
BRANCH  14  17
ATOM     17  N   UNL     1       0.478  10.678  18.531  0.00  0.00    +0.000 N 
ATOM     18  H   UNL     1       1.262  11.223  18.171  0.00  0.00    +0.000 HD
BRANCH  17  19
ATOM     19  C   UNL     1       0.926   9.374  19.022  0.00  0.00    +0.000 C 
BRANCH  19  20
ATOM     20  C   UNL     1       1.840   8.709  17.998  0.00  0.00    +0.000 C 
BRANCH  20  21
ATOM     21  C   UNL     1       2.678   7.615  18.678  0.00  0.00    +0.000 C 
BRANCH  21  22
ATOM     22  N   UNL     1       3.135   6.528  17.791  0.00  0.00    +0.000 NA
BRANCH  22  23
ATOM     23  C   UNL     1       4.547   6.637  17.393  0.00  0.00    +0.000 C 
ATOM     24  C   UNL     1       4.993   5.750  16.235  0.00  0.00    +0.000 C 
ENDBRANCH  22  23
BRANCH  22  25
ATOM     25  C   UNL     1       2.789   5.227  18.396  0.00  0.00    +0.000 C 
ATOM     26  C   UNL     1       1.738   4.427  17.633  0.00  0.00    +0.000 C 
ENDBRANCH  22  25
ENDBRANCH  21  22
ENDBRANCH  20  21
ENDBRANCH  19  20
ENDBRANCH  17  19
ENDBRANCH  14  17
BRANCH   1  27
ATOM     27  C   UNL     1       1.423  12.258  20.925  0.00  0.00    +0.000 C 
BRANCH  27  29
ATOM     28  C   UNL     1       2.794  14.311  21.199  0.00  0.00    +0.000 C 
ATOM     29  C   UNL     1       2.294  13.378  20.367  0.00  0.00    +0.000 C 
ATOM     30  C   UNL     1       2.619  13.446  18.899  0.00  0.00    +0.000 C 
ENDBRANCH  27  29
ENDBRANCH   1  27
TORSDOF 10
ENDMDL
MODEL 5
REMARK VINA RESULT:      -5.6      0.634      1.424
REMARK  Name = 
REMARK  14 active torsions:
REMARK  status: ('A' for Active; 'I' for Inactive)
REMARK    1  A    between atoms: C_2  and  C_3
REMARK    2  A    between atoms: C_2  and  C_4
REMARK    3  A    between atoms: C_4  and  C_5
REMARK    4  A    between atoms: C_6  and  C_7
REMARK    5  A    between atoms: C_8  and  C_9
REMARK    6  A    between atoms: C_20  and  N_21
REMARK    7  A    between atoms: N_21  and  C_22
REMARK    8  A    between atoms: C_22  and  C_23
REMARK    9  A    between atoms: C_23  and  C_24
REMARK   10  A    between atoms: C_24  and  N_25
REMARK   11  A    between atoms: N_25  and  C_26
REMARK   12  A    between atoms: N_25  and  C_28
REMARK   13  A    between atoms: C_26  and  C_27
REMARK   14  A    between atoms: C_28  and  C_29
REMARK                            x       y       z     vdW  Elec       q    Type
REMARK                         _______ _______ _______ _____ _____    ______ ____
ROOT
ATOM      1  C   UNL     1      -0.634  11.269  20.745  0.00  0.00    +0.000 A 
ATOM      2  C   UNL     1      -1.570  12.308  21.231  0.00  0.00    +0.000 A 
ATOM      3  C   UNL     1      -1.362  13.013  22.566  0.00  0.00    +0.000 C 
ATOM      4  C   UNL     1      -2.667  12.625  20.504  0.00  0.00    +0.000 A 
ATOM      5  C   UNL     1      -2.931  12.039  19.254  0.00  0.00    +0.000 A 
ATOM      6  N   UNL     1      -3.919  12.262  18.419  0.00  0.00    +0.000 NA
ATOM      7  C   UNL     1      -3.673  11.454  17.354  0.00  0.00    +0.000 A 
ATOM      8  C   UNL     1      -4.427  11.325  16.175  0.00  0.00    +0.000 A 
ATOM      9  C   UNL     1      -3.982  10.445  15.184  0.00  0.00    +0.000 A 
ATOM     10  C   UNL     1      -2.818   9.704  15.374  0.00  0.00    +0.000 A 
ATOM     11  C   UNL     1      -2.061   9.813  16.549  0.00  0.00    +0.000 A 
ATOM     12  C   UNL     1      -2.511  10.702  17.538  0.00  0.00    +0.000 A 
ATOM     13  N   UNL     1      -2.035  11.080  18.795  0.00  0.00    +0.000 N 
ATOM     14  C   UNL     1      -0.888  10.661  19.545  0.00  0.00    +0.000 A 
ENDROOT
BRANCH   4  15
ATOM     15  C   UNL     1      -3.636  13.627  21.111  0.00  0.00    +0.000 C 
ATOM     16  N   UNL     1      -4.439  14.459  21.615  0.00  0.00    +0.000 NA
ENDBRANCH   4  15
BRANCH  14  17
ATOM     17  N   UNL     1      -0.117   9.636  18.991  0.00  0.00    +0.000 N 
ATOM     18  H   UNL     1      -0.661   9.125  18.295  0.00  0.00    +0.000 HD
BRANCH  17  19
ATOM     19  C   UNL     1       1.252   9.862  18.526  0.00  0.00    +0.000 C 
BRANCH  19  20
ATOM     20  C   UNL     1       2.097   8.611  18.741  0.00  0.00    +0.000 C 
BRANCH  20  21
ATOM     21  C   UNL     1       2.828   8.244  17.441  0.00  0.00    +0.000 C 
BRANCH  21  22
ATOM     22  N   UNL     1       3.435   6.898  17.416  0.00  0.00    +0.000 NA
BRANCH  22  23
ATOM     23  C   UNL     1       4.906   6.909  17.410  0.00  0.00    +0.000 C 
ATOM     24  C   UNL     1       5.592   5.687  18.014  0.00  0.00    +0.000 C 
ENDBRANCH  22  23
BRANCH  22  25
ATOM     25  C   UNL     1       2.852   6.082  18.499  0.00  0.00    +0.000 C 
ATOM     26  C   UNL     1       1.964   4.935  18.027  0.00  0.00    +0.000 C 
ENDBRANCH  22  25
ENDBRANCH  21  22
ENDBRANCH  20  21
ENDBRANCH  19  20
ENDBRANCH  17  19
ENDBRANCH  14  17
BRANCH   1  27
ATOM     27  C   UNL     1       0.598  10.989  21.594  0.00  0.00    +0.000 C 
BRANCH  27  29
ATOM     28  C   UNL     1      -0.302   9.525  23.389  0.00  0.00    +0.000 C 
ATOM     29  C   UNL     1       0.587   9.689  22.391  0.00  0.00    +0.000 C 
ATOM     30  C   UNL     1       1.547   8.576  22.065  0.00  0.00    +0.000 C 
ENDBRANCH  27  29
ENDBRANCH   1  27
TORSDOF 10
ENDMDL
MODEL 6
REMARK VINA RESULT:      -5.5      1.507      2.070
REMARK  Name = 
REMARK  14 active torsions:
REMARK  status: ('A' for Active; 'I' for Inactive)
REMARK    1  A    between atoms: C_2  and  C_3
REMARK    2  A    between atoms: C_2  and  C_4
REMARK    3  A    between atoms: C_4  and  C_5
REMARK    4  A    between atoms: C_6  and  C_7
REMARK    5  A    between atoms: C_8  and  C_9
REMARK    6  A    between atoms: C_20  and  N_21
REMARK    7  A    between atoms: N_21  and  C_22
REMARK    8  A    between atoms: C_22  and  C_23
REMARK    9  A    between atoms: C_23  and  C_24
REMARK   10  A    between atoms: C_24  and  N_25
REMARK   11  A    between atoms: N_25  and  C_26
REMARK   12  A    between atoms: N_25  and  C_28
REMARK   13  A    between atoms: C_26  and  C_27
REMARK   14  A    between atoms: C_28  and  C_29
REMARK                            x       y       z     vdW  Elec       q    Type
REMARK                         _______ _______ _______ _____ _____    ______ ____
ROOT
ATOM      1  C   UNL     1      -0.062  12.239  20.388  0.00  0.00    +0.000 A 
ATOM      2  C   UNL     1      -1.088  12.814  21.287  0.00  0.00    +0.000 A 
ATOM      3  C   UNL     1      -0.724  13.413  22.640  0.00  0.00    +0.000 C 
ATOM      4  C   UNL     1      -2.394  12.781  20.933  0.00  0.00    +0.000 A 
ATOM      5  C   UNL     1      -2.821  12.264  19.698  0.00  0.00    +0.000 A 
ATOM      6  N   UNL     1      -4.032  12.192  19.195  0.00  0.00    +0.000 NA
ATOM      7  C   UNL     1      -3.874  11.637  17.965  0.00  0.00    +0.000 A 
ATOM      8  C   UNL     1      -4.866  11.358  17.009  0.00  0.00    +0.000 A 
ATOM      9  C   UNL     1      -4.484  10.801  15.785  0.00  0.00    +0.000 A 
ATOM     10  C   UNL     1      -3.143  10.519  15.530  0.00  0.00    +0.000 A 
ATOM     11  C   UNL     1      -2.144  10.780  16.477  0.00  0.00    +0.000 A 
ATOM     12  C   UNL     1      -2.534  11.344  17.702  0.00  0.00    +0.000 A 
ATOM     13  N   UNL     1      -1.848  11.746  18.850  0.00  0.00    +0.000 N 
ATOM     14  C   UNL     1      -0.457  11.700  19.194  0.00  0.00    +0.000 A 
ENDROOT
BRANCH   4  15
ATOM     15  C   UNL     1      -3.401  13.298  21.947  0.00  0.00    +0.000 C 
ATOM     16  N   UNL     1      -4.237  13.727  22.789  0.00  0.00    +0.000 NA
ENDBRANCH   4  15
BRANCH  14  17
ATOM     17  N   UNL     1       0.396  11.084  18.275  0.00  0.00    +0.000 N 
ATOM     18  H   UNL     1       1.261  11.619  18.186  0.00  0.00    +0.000 HD
BRANCH  17  19
ATOM     19  C   UNL     1       0.668   9.646  18.315  0.00  0.00    +0.000 C 
BRANCH  19  20
ATOM     20  C   UNL     1       2.170   9.391  18.233  0.00  0.00    +0.000 C 
BRANCH  20  21
ATOM     21  C   UNL     1       2.435   8.070  17.495  0.00  0.00    +0.000 C 
BRANCH  21  22
ATOM     22  N   UNL     1       3.376   7.151  18.165  0.00  0.00    +0.000 NA
BRANCH  22  23
ATOM     23  C   UNL     1       2.722   6.042  18.875  0.00  0.00    +0.000 C 
ATOM     24  C   UNL     1       2.052   4.983  18.003  0.00  0.00    +0.000 C 
ENDBRANCH  22  23
BRANCH  22  25
ATOM     25  C   UNL     1       4.401   6.713  17.197  0.00  0.00    +0.000 C 
ATOM     26  C   UNL     1       5.629   6.056  17.820  0.00  0.00    +0.000 C 
ENDBRANCH  22  25
ENDBRANCH  21  22
ENDBRANCH  20  21
ENDBRANCH  19  20
ENDBRANCH  17  19
ENDBRANCH  14  17
BRANCH   1  27
ATOM     27  C   UNL     1       1.391  12.345  20.832  0.00  0.00    +0.000 C 
BRANCH  27  29
ATOM     28  C   UNL     1       3.281  13.946  21.018  0.00  0.00    +0.000 C 
ATOM     29  C   UNL     1       2.141  13.597  20.392  0.00  0.00    +0.000 C 
ATOM     30  C   UNL     1       1.634  14.442  19.254  0.00  0.00    +0.000 C 
ENDBRANCH  27  29
ENDBRANCH   1  27
TORSDOF 10
ENDMDL
MODEL 7
REMARK VINA RESULT:      -5.5      2.991      6.280
REMARK  Name = 
REMARK  14 active torsions:
REMARK  status: ('A' for Active; 'I' for Inactive)
REMARK    1  A    between atoms: C_2  and  C_3
REMARK    2  A    between atoms: C_2  and  C_4
REMARK    3  A    between atoms: C_4  and  C_5
REMARK    4  A    between atoms: C_6  and  C_7
REMARK    5  A    between atoms: C_8  and  C_9
REMARK    6  A    between atoms: C_20  and  N_21
REMARK    7  A    between atoms: N_21  and  C_22
REMARK    8  A    between atoms: C_22  and  C_23
REMARK    9  A    between atoms: C_23  and  C_24
REMARK   10  A    between atoms: C_24  and  N_25
REMARK   11  A    between atoms: N_25  and  C_26
REMARK   12  A    between atoms: N_25  and  C_28
REMARK   13  A    between atoms: C_26  and  C_27
REMARK   14  A    between atoms: C_28  and  C_29
REMARK                            x       y       z     vdW  Elec       q    Type
REMARK                         _______ _______ _______ _____ _____    ______ ____
ROOT
ATOM      1  C   UNL     1      -1.706  11.525  19.791  0.00  0.00    +0.000 A 
ATOM      2  C   UNL     1      -1.686  10.824  18.487  0.00  0.00    +0.000 A 
ATOM      3  C   UNL     1      -0.457  10.064  18.004  0.00  0.00    +0.000 C 
ATOM      4  C   UNL     1      -2.765  10.881  17.671  0.00  0.00    +0.000 A 
ATOM      5  C   UNL     1      -3.948  11.543  18.041  0.00  0.00    +0.000 A 
ATOM      6  N   UNL     1      -5.081  11.658  17.387  0.00  0.00    +0.000 NA
ATOM      7  C   UNL     1      -5.896  12.368  18.210  0.00  0.00    +0.000 A 
ATOM      8  C   UNL     1      -7.230  12.750  17.987  0.00  0.00    +0.000 A 
ATOM      9  C   UNL     1      -7.902  13.464  18.983  0.00  0.00    +0.000 A 
ATOM     10  C   UNL     1      -7.251  13.798  20.168  0.00  0.00    +0.000 A 
ATOM     11  C   UNL     1      -5.918  13.435  20.402  0.00  0.00    +0.000 A 
ATOM     12  C   UNL     1      -5.251  12.714  19.399  0.00  0.00    +0.000 A 
ATOM     13  N   UNL     1      -3.965  12.181  19.276  0.00  0.00    +0.000 N 
ATOM     14  C   UNL     1      -2.835  12.205  20.158  0.00  0.00    +0.000 A 
ENDROOT
BRANCH   4  15
ATOM     15  C   UNL     1      -2.638  10.222  16.307  0.00  0.00    +0.000 C 
ATOM     16  N   UNL     1      -2.533   9.675  15.175  0.00  0.00    +0.000 NA
ENDBRANCH   4  15
BRANCH  14  17
ATOM     17  N   UNL     1      -2.974  12.947  21.334  0.00  0.00    +0.000 N 
ATOM     18  H   UNL     1      -2.577  12.433  22.122  0.00  0.00    +0.000 HD
BRANCH  17  19
ATOM     19  C   UNL     1      -2.619  14.366  21.400  0.00  0.00    +0.000 C 
BRANCH  19  20
ATOM     20  C   UNL     1      -1.397  14.564  22.292  0.00  0.00    +0.000 C 
BRANCH  20  21
ATOM     21  C   UNL     1      -0.181  14.947  21.435  0.00  0.00    +0.000 C 
BRANCH  21  22
ATOM     22  N   UNL     1      -0.496  15.443  20.080  0.00  0.00    +0.000 NA
BRANCH  22  23
ATOM     23  C   UNL     1      -0.371  16.901  19.936  0.00  0.00    +0.000 C 
ATOM     24  C   UNL     1      -1.677  17.686  19.854  0.00  0.00    +0.000 C 
ENDBRANCH  22  23
BRANCH  22  25
ATOM     25  C   UNL     1       0.287  14.679  19.089  0.00  0.00    +0.000 C 
ATOM     26  C   UNL     1       1.616  15.317  18.697  0.00  0.00    +0.000 C 
ENDBRANCH  22  25
ENDBRANCH  21  22
ENDBRANCH  20  21
ENDBRANCH  19  20
ENDBRANCH  17  19
ENDBRANCH  14  17
BRANCH   1  27
ATOM     27  C   UNL     1      -0.473  11.388  20.674  0.00  0.00    +0.000 C 
BRANCH  27  29
ATOM     28  C   UNL     1      -0.908  10.615  22.994  0.00  0.00    +0.000 C 
ATOM     29  C   UNL     1      -0.526  10.301  21.742  0.00  0.00    +0.000 C 
ATOM     30  C   UNL     1      -0.173   8.876  21.411  0.00  0.00    +0.000 C 
ENDBRANCH  27  29
ENDBRANCH   1  27
TORSDOF 10
ENDMDL
MODEL 8
REMARK VINA RESULT:      -5.5      3.005      4.276
REMARK  Name = 
REMARK  14 active torsions:
REMARK  status: ('A' for Active; 'I' for Inactive)
REMARK    1  A    between atoms: C_2  and  C_3
REMARK    2  A    between atoms: C_2  and  C_4
REMARK    3  A    between atoms: C_4  and  C_5
REMARK    4  A    between atoms: C_6  and  C_7
REMARK    5  A    between atoms: C_8  and  C_9
REMARK    6  A    between atoms: C_20  and  N_21
REMARK    7  A    between atoms: N_21  and  C_22
REMARK    8  A    between atoms: C_22  and  C_23
REMARK    9  A    between atoms: C_23  and  C_24
REMARK   10  A    between atoms: C_24  and  N_25
REMARK   11  A    between atoms: N_25  and  C_26
REMARK   12  A    between atoms: N_25  and  C_28
REMARK   13  A    between atoms: C_26  and  C_27
REMARK   14  A    between atoms: C_28  and  C_29
REMARK                            x       y       z     vdW  Elec       q    Type
REMARK                         _______ _______ _______ _____ _____    ______ ____
ROOT
ATOM      1  C   UNL     1      -0.346  11.624  20.226  0.00  0.00    +0.000 A 
ATOM      2  C   UNL     1      -1.358  12.640  20.597  0.00  0.00    +0.000 A 
ATOM      3  C   UNL     1      -2.661  12.257  21.287  0.00  0.00    +0.000 C 
ATOM      4  C   UNL     1      -1.156  13.942  20.289  0.00  0.00    +0.000 A 
ATOM      5  C   UNL     1       0.023  14.390  19.669  0.00  0.00    +0.000 A 
ATOM      6  N   UNL     1       0.383  15.608  19.340  0.00  0.00    +0.000 NA
ATOM      7  C   UNL     1       1.625  15.479  18.802  0.00  0.00    +0.000 A 
ATOM      8  C   UNL     1       2.462  16.492  18.305  0.00  0.00    +0.000 A 
ATOM      9  C   UNL     1       3.722  16.144  17.812  0.00  0.00    +0.000 A 
ATOM     10  C   UNL     1       4.130  14.812  17.805  0.00  0.00    +0.000 A 
ATOM     11  C   UNL     1       3.303  13.787  18.286  0.00  0.00    +0.000 A 
ATOM     12  C   UNL     1       2.041  14.146  18.784  0.00  0.00    +0.000 A 
ATOM     13  N   UNL     1       0.977  13.432  19.343  0.00  0.00    +0.000 N 
ATOM     14  C   UNL     1       0.795  12.032  19.591  0.00  0.00    +0.000 A 
ENDROOT
BRANCH   4  15
ATOM     15  C   UNL     1      -2.280  14.914  20.611  0.00  0.00    +0.000 C 
ATOM     16  N   UNL     1      -3.213  15.720  20.878  0.00  0.00    +0.000 NA
ENDBRANCH   4  15
BRANCH  14  17
ATOM     17  N   UNL     1       1.807  11.179  19.143  0.00  0.00    +0.000 N 
ATOM     18  H   UNL     1       2.108  10.564  19.900  0.00  0.00    +0.000 HD
BRANCH  17  19
ATOM     19  C   UNL     1       1.699  10.446  17.881  0.00  0.00    +0.000 C 
BRANCH  19  20
ATOM     20  C   UNL     1       1.488   8.960  18.149  0.00  0.00    +0.000 C 
BRANCH  20  21
ATOM     21  C   UNL     1       2.785   8.188  17.867  0.00  0.00    +0.000 C 
BRANCH  21  22
ATOM     22  N   UNL     1       2.747   6.749  18.195  0.00  0.00    +0.000 NA
BRANCH  22  23
ATOM     23  C   UNL     1       3.799   5.960  17.536  0.00  0.00    +0.000 C 
ATOM     24  C   UNL     1       4.966   6.748  16.949  0.00  0.00    +0.000 C 
ENDBRANCH  22  23
BRANCH  22  25
ATOM     25  C   UNL     1       2.713   6.585  19.662  0.00  0.00    +0.000 C 
ATOM     26  C   UNL     1       1.850   5.428  20.155  0.00  0.00    +0.000 C 
ENDBRANCH  22  25
ENDBRANCH  21  22
ENDBRANCH  20  21
ENDBRANCH  19  20
ENDBRANCH  17  19
ENDBRANCH  14  17
BRANCH   1  27
ATOM     27  C   UNL     1      -0.622  10.185  20.636  0.00  0.00    +0.000 C 
BRANCH  27  29
ATOM     28  C   UNL     1       1.141   8.992  21.918  0.00  0.00    +0.000 C 
ATOM     29  C   UNL     1       0.012   9.724  21.945  0.00  0.00    +0.000 C 
ATOM     30  C   UNL     1      -0.601  10.091  23.270  0.00  0.00    +0.000 C 
ENDBRANCH  27  29
ENDBRANCH   1  27
TORSDOF 10
ENDMDL
MODEL 9
REMARK VINA RESULT:      -5.5      3.084      6.819
REMARK  Name = 
REMARK  14 active torsions:
REMARK  status: ('A' for Active; 'I' for Inactive)
REMARK    1  A    between atoms: C_2  and  C_3
REMARK    2  A    between atoms: C_2  and  C_4
REMARK    3  A    between atoms: C_4  and  C_5
REMARK    4  A    between atoms: C_6  and  C_7
REMARK    5  A    between atoms: C_8  and  C_9
REMARK    6  A    between atoms: C_20  and  N_21
REMARK    7  A    between atoms: N_21  and  C_22
REMARK    8  A    between atoms: C_22  and  C_23
REMARK    9  A    between atoms: C_23  and  C_24
REMARK   10  A    between atoms: C_24  and  N_25
REMARK   11  A    between atoms: N_25  and  C_26
REMARK   12  A    between atoms: N_25  and  C_28
REMARK   13  A    between atoms: C_26  and  C_27
REMARK   14  A    between atoms: C_28  and  C_29
REMARK                            x       y       z     vdW  Elec       q    Type
REMARK                         _______ _______ _______ _____ _____    ______ ____
ROOT
ATOM      1  C   UNL     1      -1.724  11.656  19.455  0.00  0.00    +0.000 A 
ATOM      2  C   UNL     1      -1.804  10.858  18.211  0.00  0.00    +0.000 A 
ATOM      3  C   UNL     1      -0.626  10.030  17.712  0.00  0.00    +0.000 C 
ATOM      4  C   UNL     1      -2.932  10.883  17.462  0.00  0.00    +0.000 A 
ATOM      5  C   UNL     1      -4.073  11.603  17.853  0.00  0.00    +0.000 A 
ATOM      6  N   UNL     1      -5.243  11.699  17.264  0.00  0.00    +0.000 NA
ATOM      7  C   UNL     1      -5.987  12.491  18.080  0.00  0.00    +0.000 A 
ATOM      8  C   UNL     1      -7.324  12.892  17.912  0.00  0.00    +0.000 A 
ATOM      9  C   UNL     1      -7.914  13.697  18.890  0.00  0.00    +0.000 A 
ATOM     10  C   UNL     1      -7.181  14.102  20.003  0.00  0.00    +0.000 A 
ATOM     11  C   UNL     1      -5.843  13.722  20.180  0.00  0.00    +0.000 A 
ATOM     12  C   UNL     1      -5.259  12.908  19.196  0.00  0.00    +0.000 A 
ATOM     13  N   UNL     1      -3.996  12.333  19.034  0.00  0.00    +0.000 N 
ATOM     14  C   UNL     1      -2.811  12.393  19.839  0.00  0.00    +0.000 A 
ENDROOT
BRANCH   4  15
ATOM     15  C   UNL     1      -2.909  10.119  16.148  0.00  0.00    +0.000 C 
ATOM     16  N   UNL     1      -2.889   9.486  15.058  0.00  0.00    +0.000 NA
ENDBRANCH   4  15
BRANCH  14  17
ATOM     17  N   UNL     1      -2.857  13.225  20.960  0.00  0.00    +0.000 N 
ATOM     18  H   UNL     1      -2.758  12.671  21.812  0.00  0.00    +0.000 HD
BRANCH  17  19
ATOM     19  C   UNL     1      -2.072  14.458  21.041  0.00  0.00    +0.000 C 
BRANCH  19  20
ATOM     20  C   UNL     1      -2.732  15.442  22.002  0.00  0.00    +0.000 C 
BRANCH  20  21
ATOM     21  C   UNL     1      -3.855  14.740  22.780  0.00  0.00    +0.000 C 
BRANCH  21  22
ATOM     22  N   UNL     1      -3.463  14.184  24.090  0.00  0.00    +0.000 NA
BRANCH  22  23
ATOM     23  C   UNL     1      -3.611  12.723  24.186  0.00  0.00    +0.000 C 
ATOM     24  C   UNL     1      -4.923  12.215  24.776  0.00  0.00    +0.000 C 
ENDBRANCH  22  23
BRANCH  22  25
ATOM     25  C   UNL     1      -2.112  14.667  24.439  0.00  0.00    +0.000 C 
ATOM     26  C   UNL     1      -2.017  15.378  25.786  0.00  0.00    +0.000 C 
ENDBRANCH  22  25
ENDBRANCH  21  22
ENDBRANCH  20  21
ENDBRANCH  19  20
ENDBRANCH  17  19
ENDBRANCH  14  17
BRANCH   1  27
ATOM     27  C   UNL     1      -0.440  11.553  20.267  0.00  0.00    +0.000 C 
BRANCH  27  29
ATOM     28  C   UNL     1      -0.024   9.257  21.122  0.00  0.00    +0.000 C 
ATOM     29  C   UNL     1      -0.430  10.514  21.383  0.00  0.00    +0.000 C 
ATOM     30  C   UNL     1      -0.852  10.879  22.782  0.00  0.00    +0.000 C 
ENDBRANCH  27  29
ENDBRANCH   1  27
TORSDOF 10
ENDMDL
