MODEL 1
REMARK VINA RESULT:      -8.4      0.000      0.000
REMARK  Name = 
REMARK  4 active torsions:
REMARK  status: ('A' for Active; 'I' for Inactive)
REMARK    1  A    between atoms: N_1  and  C_2
REMARK    2  A    between atoms: C_5  and  C_6
REMARK    3  A    between atoms: C_14  and  N_15
REMARK    4  A    between atoms: C_16  and  C_18
REMARK                            x       y       z     vdW  Elec       q    Type
REMARK                         _______ _______ _______ _____ _____    ______ ____
ROOT
ATOM      1  C   UNL     1       2.624   8.078  17.923  0.00  0.00    +0.000 A 
ATOM      2  C   UNL     1       2.238   9.419  17.791  0.00  0.00    +0.000 A 
ATOM      3  C   UNL     1       1.465  10.054  18.772  0.00  0.00    +0.000 A 
ATOM      4  C   UNL     1       1.063   9.374  19.927  0.00  0.00    +0.000 A 
ATOM      5  C   UNL     1       1.539   8.061  20.086  0.00  0.00    +0.000 A 
ATOM      6  C   UNL     1       2.362   7.427  19.140  0.00  0.00    +0.000 A 
ENDROOT
BRANCH   4   7
ATOM      7  C   UNL     1       0.194   9.993  20.956  0.00  0.00    +0.000 A 
ATOM      8  C   UNL     1      -0.529  11.174  20.681  0.00  0.00    +0.000 A 
ATOM      9  C   UNL     1      -1.367  11.760  21.636  0.00  0.00    +0.000 A 
ATOM     10  C   UNL     1      -1.481  11.175  22.887  0.00  0.00    +0.000 A 
ATOM     11  F   UNL     1      -2.274  11.739  23.810  0.00  0.00    +0.000 F 
ATOM     12  C   UNL     1      -0.782  10.019  23.199  0.00  0.00    +0.000 A 
ATOM     13  C   UNL     1       0.045   9.428  22.238  0.00  0.00    +0.000 A 
ENDBRANCH   4   7
BRANCH   6  14
ATOM     14  N   UNL     1       2.935   6.150  19.404  0.00  0.00    +0.000 N 
ATOM     15  C   UNL     1       2.653   5.017  18.661  0.00  0.00    +0.000 C 
ATOM     16  O   UNL     1       1.756   4.946  17.810  0.00  0.00    +0.000 OA
ATOM     17  H   UNL     1       3.341   6.007  20.319  0.00  0.00    +0.000 HD
BRANCH  15  18
ATOM     18  C   UNL     1       3.482   3.753  18.999  0.00  0.00    +0.000 C 
ATOM     19  C   UNL     1       3.895   3.079  17.680  0.00  0.00    +0.000 C 
ATOM     20  C   UNL     1       4.906   3.975  17.012  0.00  0.00    +0.000 A 
ATOM     21  C   UNL     1       4.875   4.235  15.639  0.00  0.00    +0.000 A 
ATOM     22  C   UNL     1       5.783   5.136  15.082  0.00  0.00    +0.000 A 
ATOM     23  C   UNL     1       6.758   5.732  15.880  0.00  0.00    +0.000 A 
ATOM     24  C   UNL     1       6.797   5.466  17.248  0.00  0.00    +0.000 A 
ATOM     25  C   UNL     1       5.840   4.627  17.830  0.00  0.00    +0.000 A 
ATOM     26  C   UNL     1       5.750   4.520  19.332  0.00  0.00    +0.000 C 
ATOM     27  O   UNL     1       4.599   3.855  19.873  0.00  0.00    +0.000 OA
ENDBRANCH  15  18
ENDBRANCH   6  14
BRANCH   1  28
ATOM     28  N   UNL     1       3.411   7.486  16.914  0.00  0.00    +0.000 N 
ATOM     29  H   UNL     1       3.542   8.102  16.115  0.00  0.00    +0.000 HD
ATOM     30  H   UNL     1       3.026   6.596  16.611  0.00  0.00    +0.000 HD
ENDBRANCH   1  28
TORSDOF 4
ENDMDL
MODEL 2
REMARK VINA RESULT:      -7.6      3.047      4.728
REMARK  Name = 
REMARK  4 active torsions:
REMARK  status: ('A' for Active; 'I' for Inactive)
REMARK    1  A    between atoms: N_1  and  C_2
REMARK    2  A    between atoms: C_5  and  C_6
REMARK    3  A    between atoms: C_14  and  N_15
REMARK    4  A    between atoms: C_16  and  C_18
REMARK                            x       y       z     vdW  Elec       q    Type
REMARK                         _______ _______ _______ _____ _____    ______ ____
ROOT
ATOM      1  C   UNL     1       1.228   9.278  21.575  0.00  0.00    +0.000 A 
ATOM      2  C   UNL     1       0.086  10.031  21.883  0.00  0.00    +0.000 A 
ATOM      3  C   UNL     1      -0.848  10.373  20.896  0.00  0.00    +0.000 A 
ATOM      4  C   UNL     1      -0.680   9.961  19.569  0.00  0.00    +0.000 A 
ATOM      5  C   UNL     1       0.419   9.128  19.299  0.00  0.00    +0.000 A 
ATOM      6  C   UNL     1       1.335   8.728  20.286  0.00  0.00    +0.000 A 
ENDROOT
BRANCH   4   7
ATOM      7  C   UNL     1      -1.613  10.356  18.487  0.00  0.00    +0.000 A 
ATOM      8  C   UNL     1      -1.535   9.762  17.208  0.00  0.00    +0.000 A 
ATOM      9  C   UNL     1      -2.419  10.111  16.182  0.00  0.00    +0.000 A 
ATOM     10  C   UNL     1      -3.388  11.072  16.421  0.00  0.00    +0.000 A 
ATOM     11  F   UNL     1      -4.232  11.419  15.437  0.00  0.00    +0.000 F 
ATOM     12  C   UNL     1      -3.494  11.683  17.660  0.00  0.00    +0.000 A 
ATOM     13  C   UNL     1      -2.617  11.323  18.689  0.00  0.00    +0.000 A 
ENDBRANCH   4   7
BRANCH   6  14
ATOM     14  N   UNL     1       2.352   7.774  20.000  0.00  0.00    +0.000 N 
ATOM     15  C   UNL     1       2.623   7.302  18.728  0.00  0.00    +0.000 C 
ATOM     16  O   UNL     1       1.912   7.518  17.738  0.00  0.00    +0.000 OA
ATOM     17  H   UNL     1       2.700   7.224  20.775  0.00  0.00    +0.000 HD
BRANCH  15  18
ATOM     18  C   UNL     1       3.862   6.383  18.588  0.00  0.00    +0.000 C 
ATOM     19  C   UNL     1       3.924   5.464  19.818  0.00  0.00    +0.000 C 
ATOM     20  C   UNL     1       2.774   4.496  19.717  0.00  0.00    +0.000 A 
ATOM     21  C   UNL     1       1.989   4.158  20.823  0.00  0.00    +0.000 A 
ATOM     22  C   UNL     1       0.885   3.320  20.662  0.00  0.00    +0.000 A 
ATOM     23  C   UNL     1       0.598   2.772  19.413  0.00  0.00    +0.000 A 
ATOM     24  C   UNL     1       1.386   3.099  18.311  0.00  0.00    +0.000 A 
ATOM     25  C   UNL     1       2.447   4.002  18.447  0.00  0.00    +0.000 A 
ATOM     26  C   UNL     1       3.153   4.522  17.218  0.00  0.00    +0.000 C 
ATOM     27  O   UNL     1       4.049   5.628  17.397  0.00  0.00    +0.000 OA
ENDBRANCH  15  18
ENDBRANCH   6  14
BRANCH   1  28
ATOM     28  N   UNL     1       2.133   8.949  22.604  0.00  0.00    +0.000 N 
ATOM     29  H   UNL     1       2.932   9.579  22.632  0.00  0.00    +0.000 HD
ATOM     30  H   UNL     1       2.448   7.987  22.535  0.00  0.00    +0.000 HD
ENDBRANCH   1  28
TORSDOF 4
ENDMDL
MODEL 3
REMARK VINA RESULT:      -7.5      3.913      9.046
REMARK  Name = 
REMARK  4 active torsions:
REMARK  status: ('A' for Active; 'I' for Inactive)
REMARK    1  A    between atoms: N_1  and  C_2
REMARK    2  A    between atoms: C_5  and  C_6
REMARK    3  A    between atoms: C_14  and  N_15
REMARK    4  A    between atoms: C_16  and  C_18
REMARK                            x       y       z     vdW  Elec       q    Type
REMARK                         _______ _______ _______ _____ _____    ______ ____
ROOT
ATOM      1  C   UNL     1       0.881   8.805  20.445  0.00  0.00    +0.000 A 
ATOM      2  C   UNL     1       1.468   7.628  20.931  0.00  0.00    +0.000 A 
ATOM      3  C   UNL     1       2.297   6.840  20.121  0.00  0.00    +0.000 A 
ATOM      4  C   UNL     1       2.579   7.209  18.802  0.00  0.00    +0.000 A 
ATOM      5  C   UNL     1       2.060   8.440  18.363  0.00  0.00    +0.000 A 
ATOM      6  C   UNL     1       1.274   9.271  19.179  0.00  0.00    +0.000 A 
ENDROOT
BRANCH   4   7
ATOM      7  C   UNL     1       3.400   6.369  17.896  0.00  0.00    +0.000 A 
ATOM      8  C   UNL     1       3.209   4.972  17.830  0.00  0.00    +0.000 A 
ATOM      9  C   UNL     1       3.963   4.169  16.968  0.00  0.00    +0.000 A 
ATOM     10  C   UNL     1       4.930   4.756  16.169  0.00  0.00    +0.000 A 
ATOM     11  F   UNL     1       5.664   3.989  15.348  0.00  0.00    +0.000 F 
ATOM     12  C   UNL     1       5.154   6.123  16.209  0.00  0.00    +0.000 A 
ATOM     13  C   UNL     1       4.389   6.926  17.063  0.00  0.00    +0.000 A 
ENDBRANCH   4   7
BRANCH   6  14
ATOM     14  N   UNL     1       0.885  10.569  18.744  0.00  0.00    +0.000 N 
ATOM     15  C   UNL     1      -0.429  10.938  18.516  0.00  0.00    +0.000 C 
ATOM     16  O   UNL     1      -1.382  10.148  18.495  0.00  0.00    +0.000 OA
ATOM     17  H   UNL     1       1.601  11.151  18.328  0.00  0.00    +0.000 HD
BRANCH  15  18
ATOM     18  C   UNL     1      -0.675  12.432  18.193  0.00  0.00    +0.000 C 
ATOM     19  C   UNL     1      -1.999  12.858  18.849  0.00  0.00    +0.000 C 
ATOM     20  C   UNL     1      -1.781  12.868  20.340  0.00  0.00    +0.000 A 
ATOM     21  C   UNL     1      -2.728  12.358  21.232  0.00  0.00    +0.000 A 
ATOM     22  C   UNL     1      -2.445  12.316  22.597  0.00  0.00    +0.000 A 
ATOM     23  C   UNL     1      -1.245  12.835  23.080  0.00  0.00    +0.000 A 
ATOM     24  C   UNL     1      -0.303  13.354  22.193  0.00  0.00    +0.000 A 
ATOM     25  C   UNL     1      -0.544  13.326  20.814  0.00  0.00    +0.000 A 
ATOM     26  C   UNL     1       0.563  13.681  19.852  0.00  0.00    +0.000 C 
ATOM     27  O   UNL     1       0.341  13.390  18.465  0.00  0.00    +0.000 OA
ENDBRANCH  15  18
ENDBRANCH   6  14
BRANCH   1  28
ATOM     28  N   UNL     1       0.064   9.571  21.301  0.00  0.00    +0.000 N 
ATOM     29  H   UNL     1      -0.264   9.036  22.102  0.00  0.00    +0.000 HD
ATOM     30  H   UNL     1      -0.723   9.977  20.805  0.00  0.00    +0.000 HD
ENDBRANCH   1  28
TORSDOF 4
ENDMDL
MODEL 4
REMARK VINA RESULT:      -7.3      4.198      9.210
REMARK  Name = 
REMARK  4 active torsions:
REMARK  status: ('A' for Active; 'I' for Inactive)
REMARK    1  A    between atoms: N_1  and  C_2
REMARK    2  A    between atoms: C_5  and  C_6
REMARK    3  A    between atoms: C_14  and  N_15
REMARK    4  A    between atoms: C_16  and  C_18
REMARK                            x       y       z     vdW  Elec       q    Type
REMARK                         _______ _______ _______ _____ _____    ______ ____
ROOT
ATOM      1  C   UNL     1       0.782   8.984  20.295  0.00  0.00    +0.000 A 
ATOM      2  C   UNL     1       1.353   7.816  20.820  0.00  0.00    +0.000 A 
ATOM      3  C   UNL     1       2.211   7.018  20.052  0.00  0.00    +0.000 A 
ATOM      4  C   UNL     1       2.539   7.366  18.737  0.00  0.00    +0.000 A 
ATOM      5  C   UNL     1       2.033   8.588  18.261  0.00  0.00    +0.000 A 
ATOM      6  C   UNL     1       1.217   9.430  19.035  0.00  0.00    +0.000 A 
ENDROOT
BRANCH   4   7
ATOM      7  C   UNL     1       3.392   6.514  17.874  0.00  0.00    +0.000 A 
ATOM      8  C   UNL     1       3.209   5.115  17.827  0.00  0.00    +0.000 A 
ATOM      9  C   UNL     1       3.995   4.300  17.005  0.00  0.00    +0.000 A 
ATOM     10  C   UNL     1       4.985   4.877  16.227  0.00  0.00    +0.000 A 
ATOM     11  F   UNL     1       5.748   4.099  15.445  0.00  0.00    +0.000 F 
ATOM     12  C   UNL     1       5.201   6.246  16.250  0.00  0.00    +0.000 A 
ATOM     13  C   UNL     1       4.405   7.061  17.063  0.00  0.00    +0.000 A 
ENDBRANCH   4   7
BRANCH   6  14
ATOM     14  N   UNL     1       0.840  10.721  18.567  0.00  0.00    +0.000 N 
ATOM     15  C   UNL     1       1.308  11.901  19.117  0.00  0.00    +0.000 C 
ATOM     16  O   UNL     1       1.956  11.972  20.169  0.00  0.00    +0.000 OA
ATOM     17  H   UNL     1       0.003  10.780  18.002  0.00  0.00    +0.000 HD
BRANCH  15  18
ATOM     18  C   UNL     1       0.908  13.205  18.382  0.00  0.00    +0.000 C 
ATOM     19  C   UNL     1      -0.615  13.192  18.170  0.00  0.00    +0.000 C 
ATOM     20  C   UNL     1      -1.261  13.356  19.520  0.00  0.00    +0.000 A 
ATOM     21  C   UNL     1      -2.374  12.604  19.907  0.00  0.00    +0.000 A 
ATOM     22  C   UNL     1      -2.886  12.733  21.198  0.00  0.00    +0.000 A 
ATOM     23  C   UNL     1      -2.328  13.653  22.084  0.00  0.00    +0.000 A 
ATOM     24  C   UNL     1      -1.224  14.411  21.698  0.00  0.00    +0.000 A 
ATOM     25  C   UNL     1      -0.653  14.230  20.432  0.00  0.00    +0.000 A 
ATOM     26  C   UNL     1       0.665  14.885  20.103  0.00  0.00    +0.000 C 
ATOM     27  O   UNL     1       1.324  14.462  18.900  0.00  0.00    +0.000 OA
ENDBRANCH  15  18
ENDBRANCH   6  14
BRANCH   1  28
ATOM     28  N   UNL     1      -0.067   9.761  21.110  0.00  0.00    +0.000 N 
ATOM     29  H   UNL     1      -0.012   9.494  22.089  0.00  0.00    +0.000 HD
ATOM     30  H   UNL     1      -1.030   9.725  20.790  0.00  0.00    +0.000 HD
ENDBRANCH   1  28
TORSDOF 4
ENDMDL
MODEL 5
REMARK VINA RESULT:      -7.3      3.909      8.406
REMARK  Name = 
REMARK  4 active torsions:
REMARK  status: ('A' for Active; 'I' for Inactive)
REMARK    1  A    between atoms: N_1  and  C_2
REMARK    2  A    between atoms: C_5  and  C_6
REMARK    3  A    between atoms: C_14  and  N_15
REMARK    4  A    between atoms: C_16  and  C_18
REMARK                            x       y       z     vdW  Elec       q    Type
REMARK                         _______ _______ _______ _____ _____    ______ ____
ROOT
ATOM      1  C   UNL     1       1.750   9.843  18.379  0.00  0.00    +0.000 A 
ATOM      2  C   UNL     1       2.587   8.996  17.639  0.00  0.00    +0.000 A 
ATOM      3  C   UNL     1       2.846   7.684  18.057  0.00  0.00    +0.000 A 
ATOM      4  C   UNL     1       2.267   7.168  19.222  0.00  0.00    +0.000 A 
ATOM      5  C   UNL     1       1.357   8.000  19.898  0.00  0.00    +0.000 A 
ATOM      6  C   UNL     1       1.040   9.298  19.463  0.00  0.00    +0.000 A 
ENDROOT
BRANCH   4   7
ATOM      7  C   UNL     1       2.567   5.808  19.728  0.00  0.00    +0.000 A 
ATOM      8  C   UNL     1       1.796   5.231  20.761  0.00  0.00    +0.000 A 
ATOM      9  C   UNL     1       2.056   3.941  21.237  0.00  0.00    +0.000 A 
ATOM     10  C   UNL     1       3.103   3.216  20.691  0.00  0.00    +0.000 A 
ATOM     11  F   UNL     1       3.363   1.983  21.152  0.00  0.00    +0.000 F 
ATOM     12  C   UNL     1       3.887   3.749  19.681  0.00  0.00    +0.000 A 
ATOM     13  C   UNL     1       3.617   5.034  19.197  0.00  0.00    +0.000 A 
ENDBRANCH   4   7
BRANCH   6  14
ATOM     14  N   UNL     1       0.013  10.053  20.096  0.00  0.00    +0.000 N 
ATOM     15  C   UNL     1       0.199  10.768  21.266  0.00  0.00    +0.000 C 
ATOM     16  O   UNL     1       1.210  10.693  21.976  0.00  0.00    +0.000 OA
ATOM     17  H   UNL     1      -0.941   9.840  19.837  0.00  0.00    +0.000 HD
BRANCH  15  18
ATOM     18  C   UNL     1      -0.988  11.650  21.726  0.00  0.00    +0.000 C 
ATOM     19  C   UNL     1      -0.424  12.967  22.286  0.00  0.00    +0.000 C 
ATOM     20  C   UNL     1       0.143  13.744  21.127  0.00  0.00    +0.000 A 
ATOM     21  C   UNL     1       1.366  14.417  21.212  0.00  0.00    +0.000 A 
ATOM     22  C   UNL     1       1.887  15.055  20.087  0.00  0.00    +0.000 A 
ATOM     23  C   UNL     1       1.166  15.073  18.894  0.00  0.00    +0.000 A 
ATOM     24  C   UNL     1      -0.058  14.412  18.810  0.00  0.00    +0.000 A 
ATOM     25  C   UNL     1      -0.551  13.701  19.910  0.00  0.00    +0.000 A 
ATOM     26  C   UNL     1      -1.757  12.808  19.747  0.00  0.00    +0.000 C 
ATOM     27  O   UNL     1      -2.060  11.914  20.828  0.00  0.00    +0.000 OA
ENDBRANCH  15  18
ENDBRANCH   6  14
BRANCH   1  28
ATOM     28  N   UNL     1       1.510  11.152  17.913  0.00  0.00    +0.000 N 
ATOM     29  H   UNL     1       0.517  11.357  17.832  0.00  0.00    +0.000 HD
ATOM     30  H   UNL     1       1.978  11.327  17.030  0.00  0.00    +0.000 HD
ENDBRANCH   1  28
TORSDOF 4
ENDMDL
MODEL 6
REMARK VINA RESULT:      -7.2      3.907      8.338
REMARK  Name = 
REMARK  4 active torsions:
REMARK  status: ('A' for Active; 'I' for Inactive)
REMARK    1  A    between atoms: N_1  and  C_2
REMARK    2  A    between atoms: C_5  and  C_6
REMARK    3  A    between atoms: C_14  and  N_15
REMARK    4  A    between atoms: C_16  and  C_18
REMARK                            x       y       z     vdW  Elec       q    Type
REMARK                         _______ _______ _______ _____ _____    ______ ____
ROOT
ATOM      1  C   UNL     1       1.885   9.653  18.406  0.00  0.00    +0.000 A 
ATOM      2  C   UNL     1       2.380   8.657  17.553  0.00  0.00    +0.000 A 
ATOM      3  C   UNL     1       2.579   7.345  18.005  0.00  0.00    +0.000 A 
ATOM      4  C   UNL     1       2.276   6.981  19.322  0.00  0.00    +0.000 A 
ATOM      5  C   UNL     1       1.691   7.969  20.133  0.00  0.00    +0.000 A 
ATOM      6  C   UNL     1       1.431   9.274  19.681  0.00  0.00    +0.000 A 
ENDROOT
BRANCH   4   7
ATOM      7  C   UNL     1       2.531   5.621  19.853  0.00  0.00    +0.000 A 
ATOM      8  C   UNL     1       3.591   4.833  19.352  0.00  0.00    +0.000 A 
ATOM      9  C   UNL     1       3.855   3.555  19.855  0.00  0.00    +0.000 A 
ATOM     10  C   UNL     1       3.050   3.043  20.860  0.00  0.00    +0.000 A 
ATOM     11  F   UNL     1       3.292   1.813  21.338  0.00  0.00    +0.000 F 
ATOM     12  C   UNL     1       1.995   3.781  21.373  0.00  0.00    +0.000 A 
ATOM     13  C   UNL     1       1.741   5.065  20.877  0.00  0.00    +0.000 A 
ENDBRANCH   4   7
BRANCH   6  14
ATOM     14  N   UNL     1       0.714  10.201  20.488  0.00  0.00    +0.000 N 
ATOM     15  C   UNL     1      -0.594  10.579  20.240  0.00  0.00    +0.000 C 
ATOM     16  O   UNL     1      -1.220  10.294  19.210  0.00  0.00    +0.000 OA
ATOM     17  H   UNL     1       1.257  10.804  21.091  0.00  0.00    +0.000 HD
BRANCH  15  18
ATOM     18  C   UNL     1      -1.261  11.481  21.308  0.00  0.00    +0.000 C 
ATOM     19  C   UNL     1      -0.171  12.353  21.953  0.00  0.00    +0.000 C 
ATOM     20  C   UNL     1       0.288  13.343  20.915  0.00  0.00    +0.000 A 
ATOM     21  C   UNL     1       1.639  13.653  20.730  0.00  0.00    +0.000 A 
ATOM     22  C   UNL     1       2.020  14.515  19.702  0.00  0.00    +0.000 A 
ATOM     23  C   UNL     1       1.053  15.114  18.896  0.00  0.00    +0.000 A 
ATOM     24  C   UNL     1      -0.295  14.815  19.085  0.00  0.00    +0.000 A 
ATOM     25  C   UNL     1      -0.681  13.889  20.062  0.00  0.00    +0.000 A 
ATOM     26  C   UNL     1      -2.109  13.404  20.113  0.00  0.00    +0.000 C 
ATOM     27  O   UNL     1      -2.386  12.277  20.957  0.00  0.00    +0.000 OA
ENDBRANCH  15  18
ENDBRANCH   6  14
BRANCH   1  28
ATOM     28  N   UNL     1       1.691  10.956  17.902  0.00  0.00    +0.000 N 
ATOM     29  H   UNL     1       2.246  11.134  17.069  0.00  0.00    +0.000 HD
ATOM     30  H   UNL     1       1.880  11.663  18.607  0.00  0.00    +0.000 HD
ENDBRANCH   1  28
TORSDOF 4
ENDMDL
MODEL 7
REMARK VINA RESULT:      -7.1      2.328      3.465
REMARK  Name = 
REMARK  4 active torsions:
REMARK  status: ('A' for Active; 'I' for Inactive)
REMARK    1  A    between atoms: N_1  and  C_2
REMARK    2  A    between atoms: C_5  and  C_6
REMARK    3  A    between atoms: C_14  and  N_15
REMARK    4  A    between atoms: C_16  and  C_18
REMARK                            x       y       z     vdW  Elec       q    Type
REMARK                         _______ _______ _______ _____ _____    ______ ____
ROOT
ATOM      1  C   UNL     1       1.879   6.785  20.664  0.00  0.00    +0.000 A 
ATOM      2  C   UNL     1       1.061   7.602  21.456  0.00  0.00    +0.000 A 
ATOM      3  C   UNL     1       0.638   8.861  21.008  0.00  0.00    +0.000 A 
ATOM      4  C   UNL     1       1.006   9.339  19.745  0.00  0.00    +0.000 A 
ATOM      5  C   UNL     1       1.746   8.467  18.928  0.00  0.00    +0.000 A 
ATOM      6  C   UNL     1       2.131   7.179  19.338  0.00  0.00    +0.000 A 
ENDROOT
BRANCH   4   7
ATOM      7  C   UNL     1       0.629  10.689  19.262  0.00  0.00    +0.000 A 
ATOM      8  C   UNL     1      -0.709  10.995  18.932  0.00  0.00    +0.000 A 
ATOM      9  C   UNL     1      -1.083  12.269  18.492  0.00  0.00    +0.000 A 
ATOM     10  C   UNL     1      -0.116  13.253  18.364  0.00  0.00    +0.000 A 
ATOM     11  F   UNL     1      -0.467  14.473  17.932  0.00  0.00    +0.000 F 
ATOM     12  C   UNL     1       1.210  12.991  18.672  0.00  0.00    +0.000 A 
ATOM     13  C   UNL     1       1.579  11.719  19.124  0.00  0.00    +0.000 A 
ENDBRANCH   4   7
BRANCH   6  14
ATOM     14  N   UNL     1       2.758   6.278  18.433  0.00  0.00    +0.000 N 
ATOM     15  C   UNL     1       3.703   6.665  17.498  0.00  0.00    +0.000 C 
ATOM     16  O   UNL     1       3.976   7.842  17.229  0.00  0.00    +0.000 OA
ATOM     17  H   UNL     1       2.305   5.386  18.282  0.00  0.00    +0.000 HD
BRANCH  15  18
ATOM     18  C   UNL     1       4.385   5.526  16.702  0.00  0.00    +0.000 C 
ATOM     19  C   UNL     1       5.646   6.094  16.030  0.00  0.00    +0.000 C 
ATOM     20  C   UNL     1       6.645   6.387  17.119  0.00  0.00    +0.000 A 
ATOM     21  C   UNL     1       7.410   7.557  17.129  0.00  0.00    +0.000 A 
ATOM     22  C   UNL     1       8.262   7.820  18.202  0.00  0.00    +0.000 A 
ATOM     23  C   UNL     1       8.396   6.894  19.234  0.00  0.00    +0.000 A 
ATOM     24  C   UNL     1       7.642   5.722  19.222  0.00  0.00    +0.000 A 
ATOM     25  C   UNL     1       6.724   5.486  18.190  0.00  0.00    +0.000 A 
ATOM     26  C   UNL     1       5.756   4.333  18.296  0.00  0.00    +0.000 C 
ATOM     27  O   UNL     1       4.681   4.293  17.347  0.00  0.00    +0.000 OA
ENDBRANCH  15  18
ENDBRANCH   6  14
BRANCH   1  28
ATOM     28  N   UNL     1       2.271   5.522  21.154  0.00  0.00    +0.000 N 
ATOM     29  H   UNL     1       1.941   5.357  22.101  0.00  0.00    +0.000 HD
ATOM     30  H   UNL     1       3.277   5.396  21.105  0.00  0.00    +0.000 HD
ENDBRANCH   1  28
TORSDOF 4
ENDMDL
MODEL 8
REMARK VINA RESULT:      -7.1      4.011      8.737
REMARK  Name = 
REMARK  4 active torsions:
REMARK  status: ('A' for Active; 'I' for Inactive)
REMARK    1  A    between atoms: N_1  and  C_2
REMARK    2  A    between atoms: C_5  and  C_6
REMARK    3  A    between atoms: C_14  and  N_15
REMARK    4  A    between atoms: C_16  and  C_18
REMARK                            x       y       z     vdW  Elec       q    Type
REMARK                         _______ _______ _______ _____ _____    ______ ____
ROOT
ATOM      1  C   UNL     1       1.252  10.497  18.528  0.00  0.00    +0.000 A 
ATOM      2  C   UNL     1       2.127   9.766  17.712  0.00  0.00    +0.000 A 
ATOM      3  C   UNL     1       2.491   8.451  18.030  0.00  0.00    +0.000 A 
ATOM      4  C   UNL     1       1.982   7.815  19.168  0.00  0.00    +0.000 A 
ATOM      5  C   UNL     1       1.034   8.529  19.921  0.00  0.00    +0.000 A 
ATOM      6  C   UNL     1       0.613   9.828  19.586  0.00  0.00    +0.000 A 
ENDROOT
BRANCH   4   7
ATOM      7  C   UNL     1       2.393   6.449  19.570  0.00  0.00    +0.000 A 
ATOM      8  C   UNL     1       3.488   5.808  18.952  0.00  0.00    +0.000 A 
ATOM      9  C   UNL     1       3.899   4.526  19.332  0.00  0.00    +0.000 A 
ATOM     10  C   UNL     1       3.206   3.862  20.331  0.00  0.00    +0.000 A 
ATOM     11  F   UNL     1       3.588   2.628  20.692  0.00  0.00    +0.000 F 
ATOM     12  C   UNL     1       2.120   4.453  20.958  0.00  0.00    +0.000 A 
ATOM     13  C   UNL     1       1.720   5.741  20.585  0.00  0.00    +0.000 A 
ENDBRANCH   4   7
BRANCH   6  14
ATOM     14  N   UNL     1      -0.447  10.460  20.293  0.00  0.00    +0.000 N 
ATOM     15  C   UNL     1      -0.300  11.030  21.546  0.00  0.00    +0.000 C 
ATOM     16  O   UNL     1       0.706  10.902  22.256  0.00  0.00    +0.000 OA
ATOM     17  H   UNL     1      -1.391  10.248  19.996  0.00  0.00    +0.000 HD
BRANCH  15  18
ATOM     18  C   UNL     1      -1.523  11.804  22.095  0.00  0.00    +0.000 C 
ATOM     19  C   UNL     1      -1.014  13.046  22.844  0.00  0.00    +0.000 C 
ATOM     20  C   UNL     1      -0.451  13.993  21.816  0.00  0.00    +0.000 A 
ATOM     21  C   UNL     1       0.747  14.684  22.021  0.00  0.00    +0.000 A 
ATOM     22  C   UNL     1       1.268  15.487  21.006  0.00  0.00    +0.000 A 
ATOM     23  C   UNL     1       0.569  15.647  19.811  0.00  0.00    +0.000 A 
ATOM     24  C   UNL     1      -0.631  14.967  19.608  0.00  0.00    +0.000 A 
ATOM     25  C   UNL     1      -1.121  14.097  20.589  0.00  0.00    +0.000 A 
ATOM     26  C   UNL     1      -2.293  13.199  20.277  0.00  0.00    +0.000 C 
ATOM     27  O   UNL     1      -2.587  12.156  21.218  0.00  0.00    +0.000 OA
ENDBRANCH  15  18
ENDBRANCH   6  14
BRANCH   1  28
ATOM     28  N   UNL     1       0.907  11.813  18.161  0.00  0.00    +0.000 N 
ATOM     29  H   UNL     1       0.166  12.195  18.744  0.00  0.00    +0.000 HD
ATOM     30  H   UNL     1       0.647  11.874  17.181  0.00  0.00    +0.000 HD
ENDBRANCH   1  28
TORSDOF 4
ENDMDL
MODEL 9
REMARK VINA RESULT:      -7.0      7.593     11.330
REMARK  Name = 
REMARK  4 active torsions:
REMARK  status: ('A' for Active; 'I' for Inactive)
REMARK    1  A    between atoms: N_1  and  C_2
REMARK    2  A    between atoms: C_5  and  C_6
REMARK    3  A    between atoms: C_14  and  N_15
REMARK    4  A    between atoms: C_16  and  C_18
REMARK                            x       y       z     vdW  Elec       q    Type
REMARK                         _______ _______ _______ _____ _____    ______ ____
ROOT
ATOM      1  C   UNL     1      -5.504  11.519  18.175  0.00  0.00    +0.000 A 
ATOM      2  C   UNL     1      -4.490  10.808  17.519  0.00  0.00    +0.000 A 
ATOM      3  C   UNL     1      -3.141  10.985  17.858  0.00  0.00    +0.000 A 
ATOM      4  C   UNL     1      -2.762  11.868  18.875  0.00  0.00    +0.000 A 
ATOM      5  C   UNL     1      -3.798  12.499  19.585  0.00  0.00    +0.000 A 
ATOM      6  C   UNL     1      -5.158  12.291  19.297  0.00  0.00    +0.000 A 
ENDROOT
BRANCH   4   7
ATOM      7  C   UNL     1      -1.344  12.128  19.219  0.00  0.00    +0.000 A 
ATOM      8  C   UNL     1      -0.595  13.104  18.526  0.00  0.00    +0.000 A 
ATOM      9  C   UNL     1       0.739  13.373  18.851  0.00  0.00    +0.000 A 
ATOM     10  C   UNL     1       1.345  12.654  19.869  0.00  0.00    +0.000 A 
ATOM     11  F   UNL     1       2.628  12.900  20.177  0.00  0.00    +0.000 F 
ATOM     12  C   UNL     1       0.647  11.682  20.568  0.00  0.00    +0.000 A 
ATOM     13  C   UNL     1      -0.690  11.425  20.250  0.00  0.00    +0.000 A 
ENDBRANCH   4   7
BRANCH   6  14
ATOM     14  N   UNL     1      -6.176  12.840  20.126  0.00  0.00    +0.000 N 
ATOM     15  C   UNL     1      -6.898  12.098  21.045  0.00  0.00    +0.000 C 
ATOM     16  O   UNL     1      -6.864  10.863  21.125  0.00  0.00    +0.000 OA
ATOM     17  H   UNL     1      -6.571  13.728  19.846  0.00  0.00    +0.000 HD
BRANCH  15  18
ATOM     18  C   UNL     1      -7.859  12.892  21.964  0.00  0.00    +0.000 C 
ATOM     19  C   UNL     1      -7.599  12.468  23.418  0.00  0.00    +0.000 C 
ATOM     20  C   UNL     1      -6.245  12.999  23.809  0.00  0.00    +0.000 A 
ATOM     21  C   UNL     1      -5.329  12.234  24.538  0.00  0.00    +0.000 A 
ATOM     22  C   UNL     1      -4.057  12.741  24.805  0.00  0.00    +0.000 A 
ATOM     23  C   UNL     1      -3.717  14.030  24.398  0.00  0.00    +0.000 A 
ATOM     24  C   UNL     1      -4.632  14.799  23.681  0.00  0.00    +0.000 A 
ATOM     25  C   UNL     1      -5.882  14.268  23.338  0.00  0.00    +0.000 A 
ATOM     26  C   UNL     1      -6.775  15.014  22.377  0.00  0.00    +0.000 C 
ATOM     27  O   UNL     1      -7.917  14.310  21.866  0.00  0.00    +0.000 OA
ENDBRANCH  15  18
ENDBRANCH   6  14
BRANCH   1  28
ATOM     28  N   UNL     1      -6.847  11.299  17.806  0.00  0.00    +0.000 N 
ATOM     29  H   UNL     1      -7.276  10.548  18.340  0.00  0.00    +0.000 HD
ATOM     30  H   UNL     1      -6.939  11.119  16.811  0.00  0.00    +0.000 HD
ENDBRANCH   1  28
TORSDOF 4
ENDMDL
