MODEL 1
REMARK VINA RESULT:      -8.4      0.000      0.000
REMARK  Name = 
REMARK  2 active torsions:
REMARK  status: ('A' for Active; 'I' for Inactive)
REMARK    1  A    between atoms: C_2  and  C_17
REMARK    2  A    between atoms: C_6  and  C_7
REMARK                            x       y       z     vdW  Elec       q    Type
REMARK                         _______ _______ _______ _____ _____    ______ ____
ROOT
ATOM      1  O   UNL     1       2.289   8.534  19.363  0.00  0.00    +0.000 OA
ATOM      2  C   UNL     1       1.717   8.144  20.376  0.00  0.00    +0.000 C 
ATOM      3  N   UNL     1       1.751   6.878  20.915  0.00  0.00    +0.000 N 
ATOM      4  C   UNL     1       2.489   5.897  20.311  0.00  0.00    +0.000 A 
ATOM      5  N   UNL     1       3.408   6.022  19.393  0.00  0.00    +0.000 NA
ATOM      6  C   UNL     1       3.837   4.775  18.982  0.00  0.00    +0.000 A 
ATOM      7  C   UNL     1       3.199   3.717  19.606  0.00  0.00    +0.000 A 
ATOM      8  S   UNL     1       2.119   4.310  20.806  0.00  0.00    +0.000 S 
ATOM      9  H   UNL     1       1.105   6.577  21.630  0.00  0.00    +0.000 HD
ENDROOT
BRANCH   6  10
ATOM     10  C   UNL     1       4.848   4.651  17.940  0.00  0.00    +0.000 A 
ATOM     11  C   UNL     1       4.439   4.418  16.615  0.00  0.00    +0.000 A 
ATOM     12  C   UNL     1       5.390   4.305  15.602  0.00  0.00    +0.000 A 
ATOM     13  F   UNL     1       4.996   4.072  14.345  0.00  0.00    +0.000 F 
ATOM     14  C   UNL     1       6.748   4.428  15.876  0.00  0.00    +0.000 A 
ATOM     15  C   UNL     1       7.163   4.673  17.182  0.00  0.00    +0.000 A 
ATOM     16  C   UNL     1       6.214   4.785  18.199  0.00  0.00    +0.000 A 
ATOM     17  F   UNL     1       6.659   5.048  19.436  0.00  0.00    +0.000 F 
ENDBRANCH   6  10
BRANCH   2  18
ATOM     18  C   UNL     1       0.823   9.108  21.048  0.00  0.00    +0.000 A 
ATOM     19  C   UNL     1       0.772   9.244  22.429  0.00  0.00    +0.000 A 
ATOM     20  N   UNL     1      -0.029  10.133  23.064  0.00  0.00    +0.000 NA
ATOM     21  C   UNL     1      -0.787  10.939  22.278  0.00  0.00    +0.000 A 
ATOM     22  C   UNL     1      -0.786  10.885  20.891  0.00  0.00    +0.000 A 
ATOM     23 BR   UNL     1      -1.868  12.045  19.875  0.00  0.00    +0.000 Br
ATOM     24  C   UNL     1       0.031   9.955  20.266  0.00  0.00    +0.000 A 
ENDBRANCH   2  18
TORSDOF 2
ENDMDL
MODEL 2
REMARK VINA RESULT:      -8.2      1.086      1.723
REMARK  Name = 
REMARK  2 active torsions:
REMARK  status: ('A' for Active; 'I' for Inactive)
REMARK    1  A    between atoms: C_2  and  C_17
REMARK    2  A    between atoms: C_6  and  C_7
REMARK                            x       y       z     vdW  Elec       q    Type
REMARK                         _______ _______ _______ _____ _____    ______ ____
ROOT
ATOM      1  O   UNL     1       1.906   8.850  19.467  0.00  0.00    +0.000 OA
ATOM      2  C   UNL     1       1.436   8.425  20.517  0.00  0.00    +0.000 C 
ATOM      3  N   UNL     1       1.565   7.155  21.032  0.00  0.00    +0.000 N 
ATOM      4  C   UNL     1       2.289   6.212  20.354  0.00  0.00    +0.000 A 
ATOM      5  N   UNL     1       3.123   6.386  19.365  0.00  0.00    +0.000 NA
ATOM      6  C   UNL     1       3.565   5.163  18.900  0.00  0.00    +0.000 A 
ATOM      7  C   UNL     1       3.024   4.072  19.558  0.00  0.00    +0.000 A 
ATOM      8  S   UNL     1       2.024   4.606  20.853  0.00  0.00    +0.000 S 
ATOM      9  H   UNL     1       0.994   6.820  21.793  0.00  0.00    +0.000 HD
ENDROOT
BRANCH   6  10
ATOM     10  C   UNL     1       4.490   5.093  17.777  0.00  0.00    +0.000 A 
ATOM     11  C   UNL     1       5.649   5.888  17.794  0.00  0.00    +0.000 A 
ATOM     12  C   UNL     1       6.551   5.830  16.732  0.00  0.00    +0.000 A 
ATOM     13  F   UNL     1       7.647   6.596  16.749  0.00  0.00    +0.000 F 
ATOM     14  C   UNL     1       6.330   4.986  15.649  0.00  0.00    +0.000 A 
ATOM     15  C   UNL     1       5.192   4.183  15.629  0.00  0.00    +0.000 A 
ATOM     16  C   UNL     1       4.287   4.241  16.688  0.00  0.00    +0.000 A 
ATOM     17  F   UNL     1       3.219   3.429  16.637  0.00  0.00    +0.000 F 
ENDBRANCH   6  10
BRANCH   2  18
ATOM     18  C   UNL     1       0.565   9.344  21.275  0.00  0.00    +0.000 A 
ATOM     19  C   UNL     1       0.503   9.343  22.663  0.00  0.00    +0.000 A 
ATOM     20  N   UNL     1      -0.278  10.188  23.378  0.00  0.00    +0.000 NA
ATOM     21  C   UNL     1      -1.004  11.091  22.670  0.00  0.00    +0.000 A 
ATOM     22  C   UNL     1      -0.991  11.174  21.286  0.00  0.00    +0.000 A 
ATOM     23 BR   UNL     1      -2.029  12.461  20.383  0.00  0.00    +0.000 Br
ATOM     24  C   UNL     1      -0.195  10.287  20.577  0.00  0.00    +0.000 A 
ENDBRANCH   2  18
TORSDOF 2
ENDMDL
MODEL 3
REMARK VINA RESULT:      -8.1      2.042      2.151
REMARK  Name = 
REMARK  2 active torsions:
REMARK  status: ('A' for Active; 'I' for Inactive)
REMARK    1  A    between atoms: C_2  and  C_17
REMARK    2  A    between atoms: C_6  and  C_7
REMARK                            x       y       z     vdW  Elec       q    Type
REMARK                         _______ _______ _______ _____ _____    ______ ____
ROOT
ATOM      1  O   UNL     1       2.183   9.157  17.348  0.00  0.00    +0.000 OA
ATOM      2  C   UNL     1       1.539   9.179  18.392  0.00  0.00    +0.000 C 
ATOM      3  N   UNL     1       1.573   8.253  19.410  0.00  0.00    +0.000 N 
ATOM      4  C   UNL     1       2.398   7.165  19.318  0.00  0.00    +0.000 A 
ATOM      5  N   UNL     1       3.389   6.966  18.493  0.00  0.00    +0.000 NA
ATOM      6  C   UNL     1       3.899   5.694  18.666  0.00  0.00    +0.000 A 
ATOM      7  C   UNL     1       3.249   4.945  19.630  0.00  0.00    +0.000 A 
ATOM      8  S   UNL     1       2.046   5.901  20.402  0.00  0.00    +0.000 S 
ATOM      9  H   UNL     1       0.879   8.228  20.141  0.00  0.00    +0.000 HD
ENDROOT
BRANCH   6  10
ATOM     10  C   UNL     1       5.002   5.225  17.837  0.00  0.00    +0.000 A 
ATOM     11  C   UNL     1       4.752   4.877  16.497  0.00  0.00    +0.000 A 
ATOM     12  C   UNL     1       5.795   4.434  15.686  0.00  0.00    +0.000 A 
ATOM     13  F   UNL     1       5.549   4.095  14.415  0.00  0.00    +0.000 F 
ATOM     14  C   UNL     1       7.093   4.335  16.176  0.00  0.00    +0.000 A 
ATOM     15  C   UNL     1       7.354   4.690  17.496  0.00  0.00    +0.000 A 
ATOM     16  C   UNL     1       6.312   5.132  18.312  0.00  0.00    +0.000 A 
ATOM     17  F   UNL     1       6.617   5.489  19.569  0.00  0.00    +0.000 F 
ENDBRANCH   6  10
BRANCH   2  18
ATOM     18  C   UNL     1       0.555  10.268  18.543  0.00  0.00    +0.000 A 
ATOM     19  C   UNL     1       0.856  11.467  19.176  0.00  0.00    +0.000 A 
ATOM     20  N   UNL     1      -0.028  12.485  19.310  0.00  0.00    +0.000 NA
ATOM     21  C   UNL     1      -1.255  12.302  18.760  0.00  0.00    +0.000 A 
ATOM     22  C   UNL     1      -1.637  11.146  18.096  0.00  0.00    +0.000 A 
ATOM     23 BR   UNL     1      -3.362  10.976  17.358  0.00  0.00    +0.000 Br
ATOM     24  C   UNL     1      -0.718  10.112  17.986  0.00  0.00    +0.000 A 
ENDBRANCH   2  18
TORSDOF 2
ENDMDL
MODEL 4
REMARK VINA RESULT:      -8.1      1.779      2.107
REMARK  Name = 
REMARK  2 active torsions:
REMARK  status: ('A' for Active; 'I' for Inactive)
REMARK    1  A    between atoms: C_2  and  C_17
REMARK    2  A    between atoms: C_6  and  C_7
REMARK                            x       y       z     vdW  Elec       q    Type
REMARK                         _______ _______ _______ _____ _____    ______ ____
ROOT
ATOM      1  O   UNL     1       2.377   8.662  17.491  0.00  0.00    +0.000 OA
ATOM      2  C   UNL     1       2.006   8.436  18.639  0.00  0.00    +0.000 C 
ATOM      3  N   UNL     1       2.316   7.341  19.412  0.00  0.00    +0.000 N 
ATOM      4  C   UNL     1       3.126   6.358  18.912  0.00  0.00    +0.000 A 
ATOM      5  N   UNL     1       3.892   6.396  17.857  0.00  0.00    +0.000 NA
ATOM      6  C   UNL     1       4.468   5.159  17.646  0.00  0.00    +0.000 A 
ATOM      7  C   UNL     1       4.096   4.192  18.563  0.00  0.00    +0.000 A 
ATOM      8  S   UNL     1       3.088   4.888  19.771  0.00  0.00    +0.000 S 
ATOM      9  H   UNL     1       1.821   7.124  20.264  0.00  0.00    +0.000 HD
ENDROOT
BRANCH   6  10
ATOM     10  C   UNL     1       5.349   4.942  16.506  0.00  0.00    +0.000 A 
ATOM     11  C   UNL     1       4.804   4.465  15.301  0.00  0.00    +0.000 A 
ATOM     12  C   UNL     1       5.630   4.258  14.196  0.00  0.00    +0.000 A 
ATOM     13  F   UNL     1       5.107   3.795  13.055  0.00  0.00    +0.000 F 
ATOM     14  C   UNL     1       6.993   4.525  14.259  0.00  0.00    +0.000 A 
ATOM     15  C   UNL     1       7.540   5.012  15.443  0.00  0.00    +0.000 A 
ATOM     16  C   UNL     1       6.718   5.217  16.552  0.00  0.00    +0.000 A 
ATOM     17  F   UNL     1       7.286   5.712  17.662  0.00  0.00    +0.000 F 
ENDBRANCH   6  10
BRANCH   2  18
ATOM     18  C   UNL     1       1.055   9.397  19.231  0.00  0.00    +0.000 A 
ATOM     19  C   UNL     1       0.399  10.362  18.477  0.00  0.00    +0.000 A 
ATOM     20  N   UNL     1      -0.490  11.242  18.999  0.00  0.00    +0.000 NA
ATOM     21  C   UNL     1      -0.752  11.128  20.325  0.00  0.00    +0.000 A 
ATOM     22  C   UNL     1      -0.157  10.184  21.150  0.00  0.00    +0.000 A 
ATOM     23 BR   UNL     1      -0.582  10.093  22.983  0.00  0.00    +0.000 Br
ATOM     24  C   UNL     1       0.761   9.305  20.595  0.00  0.00    +0.000 A 
ENDBRANCH   2  18
TORSDOF 2
ENDMDL
MODEL 5
REMARK VINA RESULT:      -8.0      1.418      1.688
REMARK  Name = 
REMARK  2 active torsions:
REMARK  status: ('A' for Active; 'I' for Inactive)
REMARK    1  A    between atoms: C_2  and  C_17
REMARK    2  A    between atoms: C_6  and  C_7
REMARK                            x       y       z     vdW  Elec       q    Type
REMARK                         _______ _______ _______ _____ _____    ______ ____
ROOT
ATOM      1  O   UNL     1       2.315   8.893  18.103  0.00  0.00    +0.000 OA
ATOM      2  C   UNL     1       1.686   8.731  19.145  0.00  0.00    +0.000 C 
ATOM      3  N   UNL     1       1.715   7.630  19.970  0.00  0.00    +0.000 N 
ATOM      4  C   UNL     1       2.513   6.563  19.660  0.00  0.00    +0.000 A 
ATOM      5  N   UNL     1       3.487   6.503  18.794  0.00  0.00    +0.000 NA
ATOM      6  C   UNL     1       3.971   5.212  18.716  0.00  0.00    +0.000 A 
ATOM      7  C   UNL     1       3.319   4.307  19.535  0.00  0.00    +0.000 A 
ATOM      8  S   UNL     1       2.148   5.124  20.495  0.00  0.00    +0.000 S 
ATOM      9  H   UNL     1       1.031   7.482  20.697  0.00  0.00    +0.000 HD
ENDROOT
BRANCH   6  10
ATOM     10  C   UNL     1       5.051   4.884  17.794  0.00  0.00    +0.000 A 
ATOM     11  C   UNL     1       4.737   4.541  16.467  0.00  0.00    +0.000 A 
ATOM     12  C   UNL     1       5.756   4.233  15.567  0.00  0.00    +0.000 A 
ATOM     13  F   UNL     1       5.450   3.897  14.308  0.00  0.00    +0.000 F 
ATOM     14  C   UNL     1       7.091   4.267  15.955  0.00  0.00    +0.000 A 
ATOM     15  C   UNL     1       7.413   4.620  17.263  0.00  0.00    +0.000 A 
ATOM     16  C   UNL     1       6.397   4.927  18.167  0.00  0.00    +0.000 A 
ATOM     17  F   UNL     1       6.757   5.287  19.408  0.00  0.00    +0.000 F 
ENDBRANCH   6  10
BRANCH   2  18
ATOM     18  C   UNL     1       0.729   9.791  19.515  0.00  0.00    +0.000 A 
ATOM     19  C   UNL     1       0.181  10.663  18.583  0.00  0.00    +0.000 A 
ATOM     20  N   UNL     1      -0.712  11.632  18.900  0.00  0.00    +0.000 NA
ATOM     21  C   UNL     1      -1.091  11.709  20.201  0.00  0.00    +0.000 A 
ATOM     22  C   UNL     1      -0.608  10.870  21.195  0.00  0.00    +0.000 A 
ATOM     23 BR   UNL     1      -1.191  11.044  22.977  0.00  0.00    +0.000 Br
ATOM     24  C   UNL     1       0.317   9.896  20.847  0.00  0.00    +0.000 A 
ENDBRANCH   2  18
TORSDOF 2
ENDMDL
MODEL 6
REMARK VINA RESULT:      -8.0      1.366      1.511
REMARK  Name = 
REMARK  2 active torsions:
REMARK  status: ('A' for Active; 'I' for Inactive)
REMARK    1  A    between atoms: C_2  and  C_17
REMARK    2  A    between atoms: C_6  and  C_7
REMARK                            x       y       z     vdW  Elec       q    Type
REMARK                         _______ _______ _______ _____ _____    ______ ____
ROOT
ATOM      1  O   UNL     1       1.630   9.026  19.418  0.00  0.00    +0.000 OA
ATOM      2  C   UNL     1       1.278   8.583  20.506  0.00  0.00    +0.000 C 
ATOM      3  N   UNL     1       1.506   7.320  21.002  0.00  0.00    +0.000 N 
ATOM      4  C   UNL     1       2.199   6.406  20.256  0.00  0.00    +0.000 A 
ATOM      5  N   UNL     1       2.929   6.613  19.194  0.00  0.00    +0.000 NA
ATOM      6  C   UNL     1       3.374   5.408  18.685  0.00  0.00    +0.000 A 
ATOM      7  C   UNL     1       2.941   4.297  19.387  0.00  0.00    +0.000 A 
ATOM      8  S   UNL     1       2.047   4.791  20.772  0.00  0.00    +0.000 S 
ATOM      9  H   UNL     1       1.022   6.962  21.812  0.00  0.00    +0.000 HD
ENDROOT
BRANCH   6  10
ATOM     10  C   UNL     1       4.191   5.375  17.479  0.00  0.00    +0.000 A 
ATOM     11  C   UNL     1       4.703   4.143  17.033  0.00  0.00    +0.000 A 
ATOM     12  C   UNL     1       5.479   4.089  15.877  0.00  0.00    +0.000 A 
ATOM     13  F   UNL     1       5.972   2.916  15.462  0.00  0.00    +0.000 F 
ATOM     14  C   UNL     1       5.754   5.238  15.142  0.00  0.00    +0.000 A 
ATOM     15  C   UNL     1       5.240   6.460  15.567  0.00  0.00    +0.000 A 
ATOM     16  C   UNL     1       4.465   6.519  16.725  0.00  0.00    +0.000 A 
ATOM     17  F   UNL     1       3.969   7.714  17.081  0.00  0.00    +0.000 F 
ENDBRANCH   6  10
BRANCH   2  18
ATOM     18  C   UNL     1       0.446   9.466  21.346  0.00  0.00    +0.000 A 
ATOM     19  C   UNL     1       0.419   9.375  22.731  0.00  0.00    +0.000 A 
ATOM     20  N   UNL     1      -0.325  10.186  23.521  0.00  0.00    +0.000 NA
ATOM     21  C   UNL     1      -1.050  11.147  22.894  0.00  0.00    +0.000 A 
ATOM     22  C   UNL     1      -1.070  11.322  21.518  0.00  0.00    +0.000 A 
ATOM     23 BR   UNL     1      -2.103  12.686  20.730  0.00  0.00    +0.000 Br
ATOM     24  C   UNL     1      -0.312  10.468  20.731  0.00  0.00    +0.000 A 
ENDBRANCH   2  18
TORSDOF 2
ENDMDL
MODEL 7
REMARK VINA RESULT:      -7.7      2.115      2.292
REMARK  Name = 
REMARK  2 active torsions:
REMARK  status: ('A' for Active; 'I' for Inactive)
REMARK    1  A    between atoms: C_2  and  C_17
REMARK    2  A    between atoms: C_6  and  C_7
REMARK                            x       y       z     vdW  Elec       q    Type
REMARK                         _______ _______ _______ _____ _____    ______ ____
ROOT
ATOM      1  O   UNL     1       2.229   9.172  17.309  0.00  0.00    +0.000 OA
ATOM      2  C   UNL     1       1.575   9.221  18.347  0.00  0.00    +0.000 C 
ATOM      3  N   UNL     1       1.593   8.316  19.383  0.00  0.00    +0.000 N 
ATOM      4  C   UNL     1       2.409   7.220  19.321  0.00  0.00    +0.000 A 
ATOM      5  N   UNL     1       3.406   6.995  18.510  0.00  0.00    +0.000 NA
ATOM      6  C   UNL     1       3.904   5.723  18.714  0.00  0.00    +0.000 A 
ATOM      7  C   UNL     1       3.239   4.999  19.687  0.00  0.00    +0.000 A 
ATOM      8  S   UNL     1       2.036   5.981  20.429  0.00  0.00    +0.000 S 
ATOM      9  H   UNL     1       0.891   8.312  20.109  0.00  0.00    +0.000 HD
ENDROOT
BRANCH   6  10
ATOM     10  C   UNL     1       5.010   5.227  17.905  0.00  0.00    +0.000 A 
ATOM     11  C   UNL     1       4.764   4.830  16.579  0.00  0.00    +0.000 A 
ATOM     12  C   UNL     1       5.810   4.361  15.786  0.00  0.00    +0.000 A 
ATOM     13  F   UNL     1       5.568   3.974  14.529  0.00  0.00    +0.000 F 
ATOM     14  C   UNL     1       7.108   4.285  16.282  0.00  0.00    +0.000 A 
ATOM     15  C   UNL     1       7.365   4.689  17.589  0.00  0.00    +0.000 A 
ATOM     16  C   UNL     1       6.320   5.158  18.386  0.00  0.00    +0.000 A 
ATOM     17  F   UNL     1       6.621   5.561  19.629  0.00  0.00    +0.000 F 
ENDBRANCH   6  10
BRANCH   2  18
ATOM     18  C   UNL     1       0.599  10.321  18.465  0.00  0.00    +0.000 A 
ATOM     19  C   UNL     1      -0.757  10.148  18.217  0.00  0.00    +0.000 A 
ATOM     20  N   UNL     1      -1.672  11.140  18.336  0.00  0.00    +0.000 NA
ATOM     21  C   UNL     1      -1.210  12.347  18.750  0.00  0.00    +0.000 A 
ATOM     22  C   UNL     1       0.123  12.605  19.037  0.00  0.00    +0.000 A 
ATOM     23 BR   UNL     1       0.678  14.311  19.611  0.00  0.00    +0.000 Br
ATOM     24  C   UNL     1       1.042  11.577  18.892  0.00  0.00    +0.000 A 
ENDBRANCH   2  18
TORSDOF 2
ENDMDL
MODEL 8
REMARK VINA RESULT:      -7.7      1.387      1.633
REMARK  Name = 
REMARK  2 active torsions:
REMARK  status: ('A' for Active; 'I' for Inactive)
REMARK    1  A    between atoms: C_2  and  C_17
REMARK    2  A    between atoms: C_6  and  C_7
REMARK                            x       y       z     vdW  Elec       q    Type
REMARK                         _______ _______ _______ _____ _____    ______ ____
ROOT
ATOM      1  O   UNL     1       2.397   8.515  17.653  0.00  0.00    +0.000 OA
ATOM      2  C   UNL     1       2.054   8.246  18.800  0.00  0.00    +0.000 C 
ATOM      3  N   UNL     1       2.393   7.130  19.530  0.00  0.00    +0.000 N 
ATOM      4  C   UNL     1       3.205   6.174  18.982  0.00  0.00    +0.000 A 
ATOM      5  N   UNL     1       3.948   6.258  17.912  0.00  0.00    +0.000 NA
ATOM      6  C   UNL     1       4.534   5.035  17.649  0.00  0.00    +0.000 A 
ATOM      7  C   UNL     1       4.193   4.034  18.541  0.00  0.00    +0.000 A 
ATOM      8  S   UNL     1       3.202   4.677  19.792  0.00  0.00    +0.000 S 
ATOM      9  H   UNL     1       1.919   6.879  20.385  0.00  0.00    +0.000 HD
ENDROOT
BRANCH   6  10
ATOM     10  C   UNL     1       5.394   4.867  16.485  0.00  0.00    +0.000 A 
ATOM     11  C   UNL     1       4.835   4.397  15.283  0.00  0.00    +0.000 A 
ATOM     12  C   UNL     1       5.639   4.238  14.155  0.00  0.00    +0.000 A 
ATOM     13  F   UNL     1       5.104   3.781  13.018  0.00  0.00    +0.000 F 
ATOM     14  C   UNL     1       6.995   4.545  14.192  0.00  0.00    +0.000 A 
ATOM     15  C   UNL     1       7.556   5.025  15.372  0.00  0.00    +0.000 A 
ATOM     16  C   UNL     1       6.755   5.184  16.503  0.00  0.00    +0.000 A 
ATOM     17  F   UNL     1       7.333   5.674  17.610  0.00  0.00    +0.000 F 
ENDBRANCH   6  10
BRANCH   2  18
ATOM     18  C   UNL     1       1.103   9.174  19.443  0.00  0.00    +0.000 A 
ATOM     19  C   UNL     1       0.943   9.245  20.821  0.00  0.00    +0.000 A 
ATOM     20  N   UNL     1       0.088  10.101  21.432  0.00  0.00    +0.000 NA
ATOM     21  C   UNL     1      -0.612  10.940  20.627  0.00  0.00    +0.000 A 
ATOM     22  C   UNL     1      -0.503  10.950  19.244  0.00  0.00    +0.000 A 
ATOM     23 BR   UNL     1      -1.510  12.152  18.201  0.00  0.00    +0.000 Br
ATOM     24  C   UNL     1       0.368  10.054  18.642  0.00  0.00    +0.000 A 
ENDBRANCH   2  18
TORSDOF 2
ENDMDL
MODEL 9
REMARK VINA RESULT:      -7.5      1.643      2.548
REMARK  Name = 
REMARK  2 active torsions:
REMARK  status: ('A' for Active; 'I' for Inactive)
REMARK    1  A    between atoms: C_2  and  C_17
REMARK    2  A    between atoms: C_6  and  C_7
REMARK                            x       y       z     vdW  Elec       q    Type
REMARK                         _______ _______ _______ _____ _____    ______ ____
ROOT
ATOM      1  O   UNL     1       2.183   9.078  18.389  0.00  0.00    +0.000 OA
ATOM      2  C   UNL     1       1.414   8.898  19.328  0.00  0.00    +0.000 C 
ATOM      3  N   UNL     1       1.342   7.792  20.144  0.00  0.00    +0.000 N 
ATOM      4  C   UNL     1       2.195   6.740  19.947  0.00  0.00    +0.000 A 
ATOM      5  N   UNL     1       3.284   6.702  19.229  0.00  0.00    +0.000 NA
ATOM      6  C   UNL     1       3.796   5.419  19.216  0.00  0.00    +0.000 A 
ATOM      7  C   UNL     1       3.048   4.499  19.928  0.00  0.00    +0.000 A 
ATOM      8  S   UNL     1       1.738   5.290  20.713  0.00  0.00    +0.000 S 
ATOM      9  H   UNL     1       0.563   7.627  20.763  0.00  0.00    +0.000 HD
ENDROOT
BRANCH   6  10
ATOM     10  C   UNL     1       5.003   5.116  18.457  0.00  0.00    +0.000 A 
ATOM     11  C   UNL     1       6.258   5.362  19.040  0.00  0.00    +0.000 A 
ATOM     12  C   UNL     1       7.424   5.071  18.334  0.00  0.00    +0.000 A 
ATOM     13  F   UNL     1       8.616   5.317  18.890  0.00  0.00    +0.000 F 
ATOM     14  C   UNL     1       7.372   4.529  17.054  0.00  0.00    +0.000 A 
ATOM     15  C   UNL     1       6.134   4.268  16.473  0.00  0.00    +0.000 A 
ATOM     16  C   UNL     1       4.965   4.560  17.176  0.00  0.00    +0.000 A 
ATOM     17  F   UNL     1       3.796   4.266  16.586  0.00  0.00    +0.000 F 
ENDBRANCH   6  10
BRANCH   2  18
ATOM     18  C   UNL     1       0.396   9.940  19.562  0.00  0.00    +0.000 A 
ATOM     19  C   UNL     1      -0.270  10.582  18.526  0.00  0.00    +0.000 A 
ATOM     20  N   UNL     1      -1.219  11.529  18.719  0.00  0.00    +0.000 NA
ATOM     21  C   UNL     1      -1.533  11.822  20.007  0.00  0.00    +0.000 A 
ATOM     22  C   UNL     1      -0.933  11.219  21.102  0.00  0.00    +0.000 A 
ATOM     23 BR   UNL     1      -1.432  11.683  22.858  0.00  0.00    +0.000 Br
ATOM     24  C   UNL     1       0.047  10.264  20.877  0.00  0.00    +0.000 A 
ENDBRANCH   2  18
TORSDOF 2
ENDMDL
