MODEL 1
REMARK VINA RESULT:      -8.9      0.000      0.000
REMARK  Name = 
REMARK  5 active torsions:
REMARK  status: ('A' for Active; 'I' for Inactive)
REMARK    1  A    between atoms: C_1  and  C_2
REMARK    2  A    between atoms: C_6  and  C_7
REMARK    3  A    between atoms: N_9  and  C_10
REMARK    4  A    between atoms: C_14  and  N_15
REMARK    5  A    between atoms: C_16  and  C_18
REMARK                            x       y       z     vdW  Elec       q    Type
REMARK                         _______ _______ _______ _____ _____    ______ ____
ROOT
ATOM      1  C   UNL     1       3.978   3.908  18.040  0.00  0.00    +0.000 A 
ATOM      2  C   UNL     1       3.962   2.708  18.758  0.00  0.00    +0.000 A 
ATOM      3  C   UNL     1       3.404   2.644  20.030  0.00  0.00    +0.000 A 
ATOM      4  C   UNL     1       2.833   3.778  20.597  0.00  0.00    +0.000 A 
ATOM      5  C   UNL     1       2.819   4.991  19.906  0.00  0.00    +0.000 A 
ATOM      6  C   UNL     1       3.448   5.063  18.647  0.00  0.00    +0.000 A 
ENDROOT
BRANCH   1   9
ATOM      7  C   UNL     1       5.797   4.272  16.383  0.00  0.00    +0.000 C 
ATOM      8  O   UNL     1       6.705   4.493  17.180  0.00  0.00    +0.000 OA
ATOM      9  N   UNL     1       4.477   3.981  16.710  0.00  0.00    +0.000 N 
ATOM     10  H   UNL     1       3.886   3.611  15.976  0.00  0.00    +0.000 HD
BRANCH   7  16
ATOM     11  C   UNL     1       4.964   2.966  11.562  0.00  0.00    +0.000 C 
ATOM     12  C   UNL     1       5.790   3.644  12.617  0.00  0.00    +0.000 A 
ATOM     13  C   UNL     1       6.935   4.368  12.253  0.00  0.00    +0.000 A 
ATOM     14  C   UNL     1       7.692   5.025  13.220  0.00  0.00    +0.000 A 
ATOM     15  C   UNL     1       7.310   4.960  14.558  0.00  0.00    +0.000 A 
ATOM     16  C   UNL     1       6.174   4.231  14.943  0.00  0.00    +0.000 A 
ATOM     17  C   UNL     1       5.410   3.576  13.970  0.00  0.00    +0.000 A 
ENDBRANCH   7  16
ENDBRANCH   1   9
BRANCH   5  18
ATOM     18  N   UNL     1       2.154   6.144  20.412  0.00  0.00    +0.000 N 
ATOM     19  C   UNL     1       2.079   7.370  19.758  0.00  0.00    +0.000 C 
ATOM     20  O   UNL     1       2.563   7.639  18.663  0.00  0.00    +0.000 OA
ATOM     21  H   UNL     1       1.887   6.115  21.386  0.00  0.00    +0.000 HD
BRANCH  19  22
ATOM     22  C   UNL     1       1.410   8.487  20.485  0.00  0.00    +0.000 A 
ATOM     23  C   UNL     1       0.916   9.560  19.721  0.00  0.00    +0.000 A 
ATOM     24  C   UNL     1       0.230  10.614  20.327  0.00  0.00    +0.000 A 
ATOM     25  C   UNL     1       0.026  10.595  21.704  0.00  0.00    +0.000 A 
ATOM     26 CL   UNL     1      -0.838  11.879  22.455  0.00  0.00    +0.000 Cl
ATOM     27  C   UNL     1       0.506   9.536  22.474  0.00  0.00    +0.000 A 
ATOM     28  C   UNL     1       1.198   8.477  21.869  0.00  0.00    +0.000 A 
ENDBRANCH  19  22
ENDBRANCH   5  18
TORSDOF 4
ENDMDL
MODEL 2
REMARK VINA RESULT:      -8.6      3.155      8.896
REMARK  Name = 
REMARK  5 active torsions:
REMARK  status: ('A' for Active; 'I' for Inactive)
REMARK    1  A    between atoms: C_1  and  C_2
REMARK    2  A    between atoms: C_6  and  C_7
REMARK    3  A    between atoms: N_9  and  C_10
REMARK    4  A    between atoms: C_14  and  N_15
REMARK    5  A    between atoms: C_16  and  C_18
REMARK                            x       y       z     vdW  Elec       q    Type
REMARK                         _______ _______ _______ _____ _____    ______ ____
ROOT
ATOM      1  C   UNL     1       2.060   5.146  20.613  0.00  0.00    +0.000 A 
ATOM      2  C   UNL     1       2.083   4.014  21.435  0.00  0.00    +0.000 A 
ATOM      3  C   UNL     1       2.713   2.845  21.022  0.00  0.00    +0.000 A 
ATOM      4  C   UNL     1       3.347   2.795  19.786  0.00  0.00    +0.000 A 
ATOM      5  C   UNL     1       3.355   3.908  18.942  0.00  0.00    +0.000 A 
ATOM      6  C   UNL     1       2.656   5.066  19.340  0.00  0.00    +0.000 A 
ENDROOT
BRANCH   1   9
ATOM      7  C   UNL     1       1.645   7.587  20.380  0.00  0.00    +0.000 C 
ATOM      8  O   UNL     1       2.281   7.765  19.344  0.00  0.00    +0.000 OA
ATOM      9  N   UNL     1       1.487   6.375  21.043  0.00  0.00    +0.000 N 
ATOM     10  H   UNL     1       0.770   6.324  21.756  0.00  0.00    +0.000 HD
BRANCH   7  16
ATOM     11  C   UNL     1      -1.015  11.859  19.816  0.00  0.00    +0.000 C 
ATOM     12  C   UNL     1      -0.389  10.804  20.682  0.00  0.00    +0.000 A 
ATOM     13  C   UNL     1      -0.561  10.846  22.074  0.00  0.00    +0.000 A 
ATOM     14  C   UNL     1      -0.010   9.857  22.884  0.00  0.00    +0.000 A 
ATOM     15  C   UNL     1       0.720   8.820  22.308  0.00  0.00    +0.000 A 
ATOM     16  C   UNL     1       0.913   8.767  20.919  0.00  0.00    +0.000 A 
ATOM     17  C   UNL     1       0.353   9.757  20.104  0.00  0.00    +0.000 A 
ENDBRANCH   7  16
ENDBRANCH   1   9
BRANCH   5  18
ATOM     18  N   UNL     1       4.079   3.925  17.717  0.00  0.00    +0.000 N 
ATOM     19  C   UNL     1       5.363   4.439  17.560  0.00  0.00    +0.000 C 
ATOM     20  O   UNL     1       6.056   4.942  18.438  0.00  0.00    +0.000 OA
ATOM     21  H   UNL     1       3.549   3.724  16.881  0.00  0.00    +0.000 HD
BRANCH  19  22
ATOM     22  C   UNL     1       5.926   4.444  16.179  0.00  0.00    +0.000 A 
ATOM     23  C   UNL     1       5.148   3.872  15.154  0.00  0.00    +0.000 A 
ATOM     24  C   UNL     1       5.588   3.889  13.829  0.00  0.00    +0.000 A 
ATOM     25  C   UNL     1       6.806   4.487  13.520  0.00  0.00    +0.000 A 
ATOM     26 CL   UNL     1       7.342   4.533  11.886  0.00  0.00    +0.000 Cl
ATOM     27  C   UNL     1       7.585   5.061  14.524  0.00  0.00    +0.000 A 
ATOM     28  C   UNL     1       7.149   5.044  15.856  0.00  0.00    +0.000 A 
ENDBRANCH  19  22
ENDBRANCH   5  18
TORSDOF 4
ENDMDL
MODEL 3
REMARK VINA RESULT:      -8.6      1.165      1.648
REMARK  Name = 
REMARK  5 active torsions:
REMARK  status: ('A' for Active; 'I' for Inactive)
REMARK    1  A    between atoms: C_1  and  C_2
REMARK    2  A    between atoms: C_6  and  C_7
REMARK    3  A    between atoms: N_9  and  C_10
REMARK    4  A    between atoms: C_14  and  N_15
REMARK    5  A    between atoms: C_16  and  C_18
REMARK                            x       y       z     vdW  Elec       q    Type
REMARK                         _______ _______ _______ _____ _____    ______ ____
ROOT
ATOM      1  C   UNL     1       3.885   4.087  19.335  0.00  0.00    +0.000 A 
ATOM      2  C   UNL     1       3.604   2.887  19.996  0.00  0.00    +0.000 A 
ATOM      3  C   UNL     1       2.707   2.850  21.058  0.00  0.00    +0.000 A 
ATOM      4  C   UNL     1       2.061   4.012  21.465  0.00  0.00    +0.000 A 
ATOM      5  C   UNL     1       2.307   5.227  20.822  0.00  0.00    +0.000 A 
ATOM      6  C   UNL     1       3.268   5.269  19.791  0.00  0.00    +0.000 A 
ENDROOT
BRANCH   1   9
ATOM      7  C   UNL     1       4.301   4.057  16.883  0.00  0.00    +0.000 C 
ATOM      8  O   UNL     1       3.134   3.941  16.518  0.00  0.00    +0.000 OA
ATOM      9  N   UNL     1       4.741   4.138  18.200  0.00  0.00    +0.000 N 
ATOM     10  H   UNL     1       5.693   4.445  18.355  0.00  0.00    +0.000 HD
BRANCH   7  16
ATOM     11  C   UNL     1       5.998   3.298  12.173  0.00  0.00    +0.000 C 
ATOM     12  C   UNL     1       6.150   3.883  13.547  0.00  0.00    +0.000 A 
ATOM     13  C   UNL     1       7.252   4.699  13.844  0.00  0.00    +0.000 A 
ATOM     14  C   UNL     1       7.388   5.271  15.106  0.00  0.00    +0.000 A 
ATOM     15  C   UNL     1       6.424   5.029  16.082  0.00  0.00    +0.000 A 
ATOM     16  C   UNL     1       5.320   4.206  15.807  0.00  0.00    +0.000 A 
ATOM     17  C   UNL     1       5.181   3.637  14.536  0.00  0.00    +0.000 A 
ENDBRANCH   7  16
ENDBRANCH   1   9
BRANCH   5  18
ATOM     18  N   UNL     1       1.589   6.413  21.144  0.00  0.00    +0.000 N 
ATOM     19  C   UNL     1       1.622   7.589  20.401  0.00  0.00    +0.000 C 
ATOM     20  O   UNL     1       2.261   7.779  19.370  0.00  0.00    +0.000 OA
ATOM     21  H   UNL     1       1.185   6.455  22.069  0.00  0.00    +0.000 HD
BRANCH  19  22
ATOM     22  C   UNL     1       0.867   8.756  20.943  0.00  0.00    +0.000 A 
ATOM     23  C   UNL     1       0.548   8.747  22.313  0.00  0.00    +0.000 A 
ATOM     24  C   UNL     1      -0.110   9.829  22.902  0.00  0.00    +0.000 A 
ATOM     25  C   UNL     1      -0.444  10.932  22.122  0.00  0.00    +0.000 A 
ATOM     26 CL   UNL     1      -1.233  12.279  22.845  0.00  0.00    +0.000 Cl
ATOM     27  C   UNL     1      -0.130  10.957  20.763  0.00  0.00    +0.000 A 
ATOM     28  C   UNL     1       0.528   9.871  20.168  0.00  0.00    +0.000 A 
ENDBRANCH  19  22
ENDBRANCH   5  18
TORSDOF 4
ENDMDL
MODEL 4
REMARK VINA RESULT:      -8.4      1.243      1.736
REMARK  Name = 
REMARK  5 active torsions:
REMARK  status: ('A' for Active; 'I' for Inactive)
REMARK    1  A    between atoms: C_1  and  C_2
REMARK    2  A    between atoms: C_6  and  C_7
REMARK    3  A    between atoms: N_9  and  C_10
REMARK    4  A    between atoms: C_14  and  N_15
REMARK    5  A    between atoms: C_16  and  C_18
REMARK                            x       y       z     vdW  Elec       q    Type
REMARK                         _______ _______ _______ _____ _____    ______ ____
ROOT
ATOM      1  C   UNL     1       4.105   4.978  17.576  0.00  0.00    +0.000 A 
ATOM      2  C   UNL     1       4.079   3.934  18.506  0.00  0.00    +0.000 A 
ATOM      3  C   UNL     1       3.477   4.101  19.748  0.00  0.00    +0.000 A 
ATOM      4  C   UNL     1       2.873   5.310  20.073  0.00  0.00    +0.000 A 
ATOM      5  C   UNL     1       2.868   6.372  19.166  0.00  0.00    +0.000 A 
ATOM      6  C   UNL     1       3.540   6.217  17.936  0.00  0.00    +0.000 A 
ENDROOT
BRANCH   1   9
ATOM      7  C   UNL     1       6.011   4.789  15.988  0.00  0.00    +0.000 C 
ATOM      8  O   UNL     1       6.920   4.901  16.807  0.00  0.00    +0.000 OA
ATOM      9  N   UNL     1       4.649   4.810  16.272  0.00  0.00    +0.000 N 
ATOM     10  H   UNL     1       4.017   4.494  15.547  0.00  0.00    +0.000 HD
BRANCH   7  16
ATOM     11  C   UNL     1       5.443   2.483  11.516  0.00  0.00    +0.000 C 
ATOM     12  C   UNL     1       6.154   3.453  12.414  0.00  0.00    +0.000 A 
ATOM     13  C   UNL     1       7.200   4.240  11.909  0.00  0.00    +0.000 A 
ATOM     14  C   UNL     1       7.847   5.164  12.725  0.00  0.00    +0.000 A 
ATOM     15  C   UNL     1       7.453   5.307  14.053  0.00  0.00    +0.000 A 
ATOM     16  C   UNL     1       6.415   4.522  14.580  0.00  0.00    +0.000 A 
ATOM     17  C   UNL     1       5.761   3.598  13.757  0.00  0.00    +0.000 A 
ENDBRANCH   7  16
ENDBRANCH   1   9
BRANCH   5  18
ATOM     18  N   UNL     1       2.173   7.586  19.424  0.00  0.00    +0.000 N 
ATOM     19  C   UNL     1       1.983   8.606  18.497  0.00  0.00    +0.000 C 
ATOM     20  O   UNL     1       2.376   8.613  17.334  0.00  0.00    +0.000 OA
ATOM     21  H   UNL     1       1.973   7.791  20.392  0.00  0.00    +0.000 HD
BRANCH  19  22
ATOM     22  C   UNL     1       1.298   9.841  18.978  0.00  0.00    +0.000 A 
ATOM     23  C   UNL     1       0.393   9.711  20.047  0.00  0.00    +0.000 A 
ATOM     24  C   UNL     1      -0.244  10.831  20.585  0.00  0.00    +0.000 A 
ATOM     25  C   UNL     1       0.030  12.091  20.061  0.00  0.00    +0.000 A 
ATOM     26 CL   UNL     1      -0.733  13.478  20.735  0.00  0.00    +0.000 Cl
ATOM     27  C   UNL     1       0.928  12.236  19.004  0.00  0.00    +0.000 A 
ATOM     28  C   UNL     1       1.567  11.113  18.459  0.00  0.00    +0.000 A 
ENDBRANCH  19  22
ENDBRANCH   5  18
TORSDOF 4
ENDMDL
MODEL 5
REMARK VINA RESULT:      -8.3      0.489      1.678
REMARK  Name = 
REMARK  5 active torsions:
REMARK  status: ('A' for Active; 'I' for Inactive)
REMARK    1  A    between atoms: C_1  and  C_2
REMARK    2  A    between atoms: C_6  and  C_7
REMARK    3  A    between atoms: N_9  and  C_10
REMARK    4  A    between atoms: C_14  and  N_15
REMARK    5  A    between atoms: C_16  and  C_18
REMARK                            x       y       z     vdW  Elec       q    Type
REMARK                         _______ _______ _______ _____ _____    ______ ____
ROOT
ATOM      1  C   UNL     1       3.918   4.263  18.159  0.00  0.00    +0.000 A 
ATOM      2  C   UNL     1       3.967   3.070  18.888  0.00  0.00    +0.000 A 
ATOM      3  C   UNL     1       3.396   2.983  20.152  0.00  0.00    +0.000 A 
ATOM      4  C   UNL     1       2.748   4.083  20.702  0.00  0.00    +0.000 A 
ATOM      5  C   UNL     1       2.668   5.288  19.999  0.00  0.00    +0.000 A 
ATOM      6  C   UNL     1       3.309   5.388  18.747  0.00  0.00    +0.000 A 
ENDROOT
BRANCH   1   9
ATOM      7  C   UNL     1       5.781   4.455  16.521  0.00  0.00    +0.000 C 
ATOM      8  O   UNL     1       6.709   4.467  17.327  0.00  0.00    +0.000 OA
ATOM      9  N   UNL     1       4.429   4.356  16.834  0.00  0.00    +0.000 N 
ATOM     10  H   UNL     1       3.791   4.141  16.079  0.00  0.00    +0.000 HD
BRANCH   7  16
ATOM     11  C   UNL     1       8.720   5.891  12.656  0.00  0.00    +0.000 C 
ATOM     12  C   UNL     1       7.562   5.112  13.208  0.00  0.00    +0.000 A 
ATOM     13  C   UNL     1       6.825   4.261  12.371  0.00  0.00    +0.000 A 
ATOM     14  C   UNL     1       5.768   3.511  12.879  0.00  0.00    +0.000 A 
ATOM     15  C   UNL     1       5.437   3.609  14.228  0.00  0.00    +0.000 A 
ATOM     16  C   UNL     1       6.155   4.463  15.080  0.00  0.00    +0.000 A 
ATOM     17  C   UNL     1       7.222   5.212  14.571  0.00  0.00    +0.000 A 
ENDBRANCH   7  16
ENDBRANCH   1   9
BRANCH   5  18
ATOM     18  N   UNL     1       1.926   6.401  20.485  0.00  0.00    +0.000 N 
ATOM     19  C   UNL     1       1.857   7.644  19.863  0.00  0.00    +0.000 C 
ATOM     20  O   UNL     1       2.413   7.963  18.817  0.00  0.00    +0.000 OA
ATOM     21  H   UNL     1       1.588   6.333  21.434  0.00  0.00    +0.000 HD
BRANCH  19  22
ATOM     22  C   UNL     1       1.095   8.714  20.568  0.00  0.00    +0.000 A 
ATOM     23  C   UNL     1       0.684   8.460  21.890  0.00  0.00    +0.000 A 
ATOM     24  C   UNL     1       0.013   9.435  22.630  0.00  0.00    +0.000 A 
ATOM     25  C   UNL     1      -0.242  10.676  22.054  0.00  0.00    +0.000 A 
ATOM     26 CL   UNL     1      -1.048  11.890  22.969  0.00  0.00    +0.000 Cl
ATOM     27  C   UNL     1       0.163  10.943  20.747  0.00  0.00    +0.000 A 
ATOM     28  C   UNL     1       0.834   9.966  19.999  0.00  0.00    +0.000 A 
ENDBRANCH  19  22
ENDBRANCH   5  18
TORSDOF 4
ENDMDL
MODEL 6
REMARK VINA RESULT:      -8.3      1.095      1.509
REMARK  Name = 
REMARK  5 active torsions:
REMARK  status: ('A' for Active; 'I' for Inactive)
REMARK    1  A    between atoms: C_1  and  C_2
REMARK    2  A    between atoms: C_6  and  C_7
REMARK    3  A    between atoms: N_9  and  C_10
REMARK    4  A    between atoms: C_14  and  N_15
REMARK    5  A    between atoms: C_16  and  C_18
REMARK                            x       y       z     vdW  Elec       q    Type
REMARK                         _______ _______ _______ _____ _____    ______ ____
ROOT
ATOM      1  C   UNL     1       4.155   4.736  17.578  0.00  0.00    +0.000 A 
ATOM      2  C   UNL     1       4.073   3.686  18.499  0.00  0.00    +0.000 A 
ATOM      3  C   UNL     1       3.492   3.876  19.748  0.00  0.00    +0.000 A 
ATOM      4  C   UNL     1       2.966   5.117  20.090  0.00  0.00    +0.000 A 
ATOM      5  C   UNL     1       3.019   6.186  19.193  0.00  0.00    +0.000 A 
ATOM      6  C   UNL     1       3.670   6.003  17.956  0.00  0.00    +0.000 A 
ENDROOT
BRANCH   1   9
ATOM      7  C   UNL     1       5.959   4.916  15.875  0.00  0.00    +0.000 C 
ATOM      8  O   UNL     1       6.810   5.440  16.591  0.00  0.00    +0.000 OA
ATOM      9  N   UNL     1       4.677   4.547  16.268  0.00  0.00    +0.000 N 
ATOM     10  H   UNL     1       4.158   3.937  15.650  0.00  0.00    +0.000 HD
BRANCH   7  16
ATOM     11  C   UNL     1       5.398   2.425  11.503  0.00  0.00    +0.000 C 
ATOM     12  C   UNL     1       6.121   3.417  12.367  0.00  0.00    +0.000 A 
ATOM     13  C   UNL     1       7.195   4.152  11.845  0.00  0.00    +0.000 A 
ATOM     14  C   UNL     1       7.854   5.096  12.629  0.00  0.00    +0.000 A 
ATOM     15  C   UNL     1       7.444   5.309  13.942  0.00  0.00    +0.000 A 
ATOM     16  C   UNL     1       6.378   4.576  14.487  0.00  0.00    +0.000 A 
ATOM     17  C   UNL     1       5.712   3.632  13.697  0.00  0.00    +0.000 A 
ENDBRANCH   7  16
ENDBRANCH   1   9
BRANCH   5  18
ATOM     18  N   UNL     1       2.402   7.438  19.469  0.00  0.00    +0.000 N 
ATOM     19  C   UNL     1       1.506   7.671  20.508  0.00  0.00    +0.000 C 
ATOM     20  O   UNL     1       1.121   6.848  21.332  0.00  0.00    +0.000 OA
ATOM     21  H   UNL     1       2.479   8.143  18.750  0.00  0.00    +0.000 HD
BRANCH  19  22
ATOM     22  C   UNL     1       0.899   9.031  20.588  0.00  0.00    +0.000 A 
ATOM     23  C   UNL     1       0.377   9.441  21.829  0.00  0.00    +0.000 A 
ATOM     24  C   UNL     1      -0.158  10.721  21.992  0.00  0.00    +0.000 A 
ATOM     25  C   UNL     1      -0.165  11.601  20.914  0.00  0.00    +0.000 A 
ATOM     26 CL   UNL     1      -0.801  13.187  21.115  0.00  0.00    +0.000 Cl
ATOM     27  C   UNL     1       0.352  11.210  19.680  0.00  0.00    +0.000 A 
ATOM     28  C   UNL     1       0.887   9.925  19.511  0.00  0.00    +0.000 A 
ENDBRANCH  19  22
ENDBRANCH   5  18
TORSDOF 4
ENDMDL
MODEL 7
REMARK VINA RESULT:      -8.3      1.284      1.562
REMARK  Name = 
REMARK  5 active torsions:
REMARK  status: ('A' for Active; 'I' for Inactive)
REMARK    1  A    between atoms: C_1  and  C_2
REMARK    2  A    between atoms: C_6  and  C_7
REMARK    3  A    between atoms: N_9  and  C_10
REMARK    4  A    between atoms: C_14  and  N_15
REMARK    5  A    between atoms: C_16  and  C_18
REMARK                            x       y       z     vdW  Elec       q    Type
REMARK                         _______ _______ _______ _____ _____    ______ ____
ROOT
ATOM      1  C   UNL     1       4.032   5.107  17.509  0.00  0.00    +0.000 A 
ATOM      2  C   UNL     1       4.002   4.120  18.499  0.00  0.00    +0.000 A 
ATOM      3  C   UNL     1       3.386   4.355  19.724  0.00  0.00    +0.000 A 
ATOM      4  C   UNL     1       2.771   5.577  19.970  0.00  0.00    +0.000 A 
ATOM      5  C   UNL     1       2.768   6.583  19.002  0.00  0.00    +0.000 A 
ATOM      6  C   UNL     1       3.454   6.361  17.790  0.00  0.00    +0.000 A 
ENDROOT
BRANCH   1   9
ATOM      7  C   UNL     1       5.941   5.002  15.918  0.00  0.00    +0.000 C 
ATOM      8  O   UNL     1       6.827   5.335  16.701  0.00  0.00    +0.000 OA
ATOM      9  N   UNL     1       4.591   4.866  16.224  0.00  0.00    +0.000 N 
ATOM     10  H   UNL     1       4.008   4.382  15.552  0.00  0.00    +0.000 HD
BRANCH   7  16
ATOM     11  C   UNL     1       5.436   2.413  11.596  0.00  0.00    +0.000 C 
ATOM     12  C   UNL     1       6.145   3.427  12.446  0.00  0.00    +0.000 A 
ATOM     13  C   UNL     1       7.222   4.155  11.919  0.00  0.00    +0.000 A 
ATOM     14  C   UNL     1       7.868   5.118  12.688  0.00  0.00    +0.000 A 
ATOM     15  C   UNL     1       7.444   5.359  13.993  0.00  0.00    +0.000 A 
ATOM     16  C   UNL     1       6.375   4.633  14.543  0.00  0.00    +0.000 A 
ATOM     17  C   UNL     1       5.722   3.669  13.766  0.00  0.00    +0.000 A 
ENDBRANCH   7  16
ENDBRANCH   1   9
BRANCH   5  18
ATOM     18  N   UNL     1       2.062   7.805  19.180  0.00  0.00    +0.000 N 
ATOM     19  C   UNL     1       1.493   8.227  20.378  0.00  0.00    +0.000 C 
ATOM     20  O   UNL     1       1.516   7.622  21.445  0.00  0.00    +0.000 OA
ATOM     21  H   UNL     1       1.802   8.299  18.339  0.00  0.00    +0.000 HD
BRANCH  19  22
ATOM     22  C   UNL     1       0.719   9.502  20.350  0.00  0.00    +0.000 A 
ATOM     23  C   UNL     1       0.527  10.121  19.100  0.00  0.00    +0.000 A 
ATOM     24  C   UNL     1      -0.232  11.287  18.989  0.00  0.00    +0.000 A 
ATOM     25  C   UNL     1      -0.812  11.837  20.129  0.00  0.00    +0.000 A 
ATOM     26 CL   UNL     1      -1.768  13.262  19.996  0.00  0.00    +0.000 Cl
ATOM     27  C   UNL     1      -0.633  11.233  21.373  0.00  0.00    +0.000 A 
ATOM     28  C   UNL     1       0.131  10.063  21.489  0.00  0.00    +0.000 A 
ENDBRANCH  19  22
ENDBRANCH   5  18
TORSDOF 4
ENDMDL
MODEL 8
REMARK VINA RESULT:      -8.2      4.294      7.555
REMARK  Name = 
REMARK  5 active torsions:
REMARK  status: ('A' for Active; 'I' for Inactive)
REMARK    1  A    between atoms: C_1  and  C_2
REMARK    2  A    between atoms: C_6  and  C_7
REMARK    3  A    between atoms: N_9  and  C_10
REMARK    4  A    between atoms: C_14  and  N_15
REMARK    5  A    between atoms: C_16  and  C_18
REMARK                            x       y       z     vdW  Elec       q    Type
REMARK                         _______ _______ _______ _____ _____    ______ ____
ROOT
ATOM      1  C   UNL     1       1.013  10.250  18.990  0.00  0.00    +0.000 A 
ATOM      2  C   UNL     1       1.818  11.306  18.553  0.00  0.00    +0.000 A 
ATOM      3  C   UNL     1       1.400  12.625  18.687  0.00  0.00    +0.000 A 
ATOM      4  C   UNL     1       0.175  12.911  19.280  0.00  0.00    +0.000 A 
ATOM      5  C   UNL     1      -0.651  11.884  19.740  0.00  0.00    +0.000 A 
ATOM      6  C   UNL     1      -0.250  10.547  19.538  0.00  0.00    +0.000 A 
ENDROOT
BRANCH   1   9
ATOM      7  C   UNL     1       1.717   8.110  20.047  0.00  0.00    +0.000 C 
ATOM      8  O   UNL     1       1.607   8.461  21.220  0.00  0.00    +0.000 OA
ATOM      9  N   UNL     1       1.450   8.897  18.932  0.00  0.00    +0.000 N 
ATOM     10  H   UNL     1       1.373   8.428  18.038  0.00  0.00    +0.000 HD
BRANCH   7  16
ATOM     11  C   UNL     1       1.684   3.201  21.286  0.00  0.00    +0.000 C 
ATOM     12  C   UNL     1       2.069   4.322  20.365  0.00  0.00    +0.000 A 
ATOM     13  C   UNL     1       2.733   4.044  19.161  0.00  0.00    +0.000 A 
ATOM     14  C   UNL     1       3.069   5.073  18.285  0.00  0.00    +0.000 A 
ATOM     15  C   UNL     1       2.745   6.388  18.608  0.00  0.00    +0.000 A 
ATOM     16  C   UNL     1       2.089   6.688  19.813  0.00  0.00    +0.000 A 
ATOM     17  C   UNL     1       1.746   5.652  20.690  0.00  0.00    +0.000 A 
ENDBRANCH   7  16
ENDBRANCH   1   9
BRANCH   5  18
ATOM     18  N   UNL     1      -1.862  12.142  20.442  0.00  0.00    +0.000 N 
ATOM     19  C   UNL     1      -1.956  12.353  21.814  0.00  0.00    +0.000 C 
ATOM     20  O   UNL     1      -1.025  12.352  22.614  0.00  0.00    +0.000 OA
ATOM     21  H   UNL     1      -2.718  11.973  19.935  0.00  0.00    +0.000 HD
BRANCH  19  22
ATOM     22  C   UNL     1      -3.324  12.527  22.382  0.00  0.00    +0.000 A 
ATOM     23  C   UNL     1      -3.466  12.445  23.780  0.00  0.00    +0.000 A 
ATOM     24  C   UNL     1      -4.707  12.651  24.385  0.00  0.00    +0.000 A 
ATOM     25  C   UNL     1      -5.813  12.949  23.595  0.00  0.00    +0.000 A 
ATOM     26 CL   UNL     1      -7.341  13.227  24.336  0.00  0.00    +0.000 Cl
ATOM     27  C   UNL     1      -5.686  13.037  22.209  0.00  0.00    +0.000 A 
ATOM     28  C   UNL     1      -4.443  12.828  21.596  0.00  0.00    +0.000 A 
ENDBRANCH  19  22
ENDBRANCH   5  18
TORSDOF 4
ENDMDL
MODEL 9
REMARK VINA RESULT:      -8.2      1.023      1.194
REMARK  Name = 
REMARK  5 active torsions:
REMARK  status: ('A' for Active; 'I' for Inactive)
REMARK    1  A    between atoms: C_1  and  C_2
REMARK    2  A    between atoms: C_6  and  C_7
REMARK    3  A    between atoms: N_9  and  C_10
REMARK    4  A    between atoms: C_14  and  N_15
REMARK    5  A    between atoms: C_16  and  C_18
REMARK                            x       y       z     vdW  Elec       q    Type
REMARK                         _______ _______ _______ _____ _____    ______ ____
ROOT
ATOM      1  C   UNL     1       3.846   3.756  19.213  0.00  0.00    +0.000 A 
ATOM      2  C   UNL     1       3.552   2.582  19.913  0.00  0.00    +0.000 A 
ATOM      3  C   UNL     1       2.730   2.607  21.034  0.00  0.00    +0.000 A 
ATOM      4  C   UNL     1       2.171   3.806  21.462  0.00  0.00    +0.000 A 
ATOM      5  C   UNL     1       2.432   4.998  20.782  0.00  0.00    +0.000 A 
ATOM      6  C   UNL     1       3.322   4.974  19.688  0.00  0.00    +0.000 A 
ENDROOT
BRANCH   1   9
ATOM      7  C   UNL     1       4.550   4.717  17.029  0.00  0.00    +0.000 C 
ATOM      8  O   UNL     1       3.823   5.708  17.042  0.00  0.00    +0.000 OA
ATOM      9  N   UNL     1       4.624   3.746  18.022  0.00  0.00    +0.000 N 
ATOM     10  H   UNL     1       5.408   3.107  17.991  0.00  0.00    +0.000 HD
BRANCH   7  16
ATOM     11  C   UNL     1       5.719   3.301  12.310  0.00  0.00    +0.000 C 
ATOM     12  C   UNL     1       6.075   3.959  13.612  0.00  0.00    +0.000 A 
ATOM     13  C   UNL     1       7.318   4.592  13.761  0.00  0.00    +0.000 A 
ATOM     14  C   UNL     1       7.647   5.230  14.954  0.00  0.00    +0.000 A 
ATOM     15  C   UNL     1       6.736   5.238  16.007  0.00  0.00    +0.000 A 
ATOM     16  C   UNL     1       5.492   4.601  15.881  0.00  0.00    +0.000 A 
ATOM     17  C   UNL     1       5.159   3.965  14.680  0.00  0.00    +0.000 A 
ENDBRANCH   7  16
ENDBRANCH   1   9
BRANCH   5  18
ATOM     18  N   UNL     1       1.799   6.224  21.130  0.00  0.00    +0.000 N 
ATOM     19  C   UNL     1       1.774   7.361  20.328  0.00  0.00    +0.000 C 
ATOM     20  O   UNL     1       2.284   7.478  19.218  0.00  0.00    +0.000 OA
ATOM     21  H   UNL     1       1.516   6.324  22.094  0.00  0.00    +0.000 HD
BRANCH  19  22
ATOM     22  C   UNL     1       1.130   8.579  20.900  0.00  0.00    +0.000 A 
ATOM     23  C   UNL     1       0.908   9.667  20.034  0.00  0.00    +0.000 A 
ATOM     24  C   UNL     1       0.261  10.819  20.486  0.00  0.00    +0.000 A 
ATOM     25  C   UNL     1      -0.175  10.886  21.806  0.00  0.00    +0.000 A 
ATOM     26 CL   UNL     1      -0.993  12.293  22.362  0.00  0.00    +0.000 Cl
ATOM     27  C   UNL     1       0.035   9.814  22.673  0.00  0.00    +0.000 A 
ATOM     28  C   UNL     1       0.686   8.657  22.225  0.00  0.00    +0.000 A 
ENDBRANCH  19  22
ENDBRANCH   5  18
TORSDOF 4
ENDMDL
