MODEL 1
REMARK VINA RESULT:      -8.0      0.000      0.000
REMARK  Name = 
REMARK  4 active torsions:
REMARK  status: ('A' for Active; 'I' for Inactive)
REMARK    1  A    between atoms: C_1  and  C_2
REMARK    2  A    between atoms: C_2  and  N_3
REMARK    3  A    between atoms: C_4  and  C_5
REMARK    4  A    between atoms: C_6  and  C_7
REMARK                            x       y       z     vdW  Elec       q    Type
REMARK                         _______ _______ _______ _____ _____    ______ ____
ROOT
ATOM      1  N   UNL     1       2.925   4.918  19.985  0.00  0.00    +0.000 N 
ATOM      2  C   UNL     1       2.626   6.225  19.616  0.00  0.00    +0.000 A 
ATOM      3  N   UNL     1       3.136   6.801  18.571  0.00  0.00    +0.000 NA
ATOM      4  C   UNL     1       4.021   6.089  17.760  0.00  0.00    +0.000 A 
ATOM      5  C   UNL     1       4.530   6.703  16.610  0.00  0.00    +0.000 A 
ATOM      6  C   UNL     1       5.432   6.031  15.780  0.00  0.00    +0.000 A 
ATOM      7  C   UNL     1       5.841   4.736  16.099  0.00  0.00    +0.000 A 
ATOM      8  C   UNL     1       5.340   4.113  17.242  0.00  0.00    +0.000 A 
ATOM      9  C   UNL     1       4.432   4.797  18.062  0.00  0.00    +0.000 A 
ATOM     10  C   UNL     1       3.863   4.169  19.264  0.00  0.00    +0.000 A 
ATOM     11  O   UNL     1       4.227   3.037  19.576  0.00  0.00    +0.000 OA
ENDROOT
BRANCH   1  13
ATOM     12  C   UNL     1       1.060   3.420  20.695  0.00  0.00    +0.000 C 
ATOM     13  C   UNL     1       2.294   4.215  21.108  0.00  0.00    +0.000 C 
ENDBRANCH   1  13
BRANCH   2  14
ATOM     14  C   UNL     1       1.708   7.018  20.492  0.00  0.00    +0.000 C 
ATOM     15  C   UNL     1       1.457   8.310  20.213  0.00  0.00    +0.000 C 
BRANCH  15  16
ATOM     16  C   UNL     1       0.660   9.215  21.062  0.00  0.00    +0.000 A 
ATOM     17  C   UNL     1       0.379   8.915  22.403  0.00  0.00    +0.000 A 
ATOM     18  C   UNL     1      -0.340   9.810  23.203  0.00  0.00    +0.000 A 
ATOM     19  C   UNL     1      -0.778  11.025  22.681  0.00  0.00    +0.000 A 
ATOM     20  C   UNL     1      -0.485  11.352  21.358  0.00  0.00    +0.000 A 
ATOM     21  C   UNL     1       0.235  10.456  20.567  0.00  0.00    +0.000 A 
ATOM     22  F   UNL     1       0.515  10.812  19.303  0.00  0.00    +0.000 F 
ENDBRANCH  15  16
ENDBRANCH   2  14
TORSDOF 3
ENDMDL
MODEL 2
REMARK VINA RESULT:      -7.8      4.861      6.033
REMARK  Name = 
REMARK  4 active torsions:
REMARK  status: ('A' for Active; 'I' for Inactive)
REMARK    1  A    between atoms: C_1  and  C_2
REMARK    2  A    between atoms: C_2  and  N_3
REMARK    3  A    between atoms: C_4  and  C_5
REMARK    4  A    between atoms: C_6  and  C_7
REMARK                            x       y       z     vdW  Elec       q    Type
REMARK                         _______ _______ _______ _____ _____    ______ ____
ROOT
ATOM      1  N   UNL     1       6.324   5.518  16.694  0.00  0.00    +0.000 N 
ATOM      2  C   UNL     1       5.227   4.667  16.610  0.00  0.00    +0.000 A 
ATOM      3  N   UNL     1       4.932   3.995  15.539  0.00  0.00    +0.000 NA
ATOM      4  C   UNL     1       5.746   4.111  14.411  0.00  0.00    +0.000 A 
ATOM      5  C   UNL     1       5.445   3.348  13.278  0.00  0.00    +0.000 A 
ATOM      6  C   UNL     1       6.224   3.448  12.121  0.00  0.00    +0.000 A 
ATOM      7  C   UNL     1       7.311   4.321  12.087  0.00  0.00    +0.000 A 
ATOM      8  C   UNL     1       7.621   5.086  13.210  0.00  0.00    +0.000 A 
ATOM      9  C   UNL     1       6.834   4.972  14.364  0.00  0.00    +0.000 A 
ATOM     10  C   UNL     1       7.140   5.745  15.579  0.00  0.00    +0.000 A 
ATOM     11  O   UNL     1       8.079   6.537  15.563  0.00  0.00    +0.000 OA
ENDROOT
BRANCH   1  13
ATOM     12  C   UNL     1       7.710   5.413  18.766  0.00  0.00    +0.000 C 
ATOM     13  C   UNL     1       6.731   6.217  17.918  0.00  0.00    +0.000 C 
ENDBRANCH   1  13
BRANCH   2  14
ATOM     14  C   UNL     1       4.321   4.556  17.795  0.00  0.00    +0.000 C 
ATOM     15  C   UNL     1       3.951   3.346  18.252  0.00  0.00    +0.000 C 
BRANCH  15  16
ATOM     16  C   UNL     1       2.980   3.117  19.338  0.00  0.00    +0.000 A 
ATOM     17  C   UNL     1       3.386   2.732  20.624  0.00  0.00    +0.000 A 
ATOM     18  C   UNL     1       2.450   2.565  21.651  0.00  0.00    +0.000 A 
ATOM     19  C   UNL     1       1.096   2.794  21.414  0.00  0.00    +0.000 A 
ATOM     20  C   UNL     1       0.678   3.203  20.149  0.00  0.00    +0.000 A 
ATOM     21  C   UNL     1       1.617   3.370  19.131  0.00  0.00    +0.000 A 
ATOM     22  F   UNL     1       1.180   3.783  17.930  0.00  0.00    +0.000 F 
ENDBRANCH  15  16
ENDBRANCH   2  14
TORSDOF 3
ENDMDL
MODEL 3
REMARK VINA RESULT:      -7.7      4.909      6.226
REMARK  Name = 
REMARK  4 active torsions:
REMARK  status: ('A' for Active; 'I' for Inactive)
REMARK    1  A    between atoms: C_1  and  C_2
REMARK    2  A    between atoms: C_2  and  N_3
REMARK    3  A    between atoms: C_4  and  C_5
REMARK    4  A    between atoms: C_6  and  C_7
REMARK                            x       y       z     vdW  Elec       q    Type
REMARK                         _______ _______ _______ _____ _____    ______ ____
ROOT
ATOM      1  N   UNL     1       6.236   5.484  16.595  0.00  0.00    +0.000 N 
ATOM      2  C   UNL     1       5.094   4.696  16.483  0.00  0.00    +0.000 A 
ATOM      3  N   UNL     1       4.789   4.040  15.406  0.00  0.00    +0.000 NA
ATOM      4  C   UNL     1       5.638   4.106  14.299  0.00  0.00    +0.000 A 
ATOM      5  C   UNL     1       5.324   3.358  13.159  0.00  0.00    +0.000 A 
ATOM      6  C   UNL     1       6.137   3.410  12.024  0.00  0.00    +0.000 A 
ATOM      7  C   UNL     1       7.273   4.220  12.017  0.00  0.00    +0.000 A 
ATOM      8  C   UNL     1       7.597   4.969  13.148  0.00  0.00    +0.000 A 
ATOM      9  C   UNL     1       6.774   4.903  14.281  0.00  0.00    +0.000 A 
ATOM     10  C   UNL     1       7.092   5.660  15.502  0.00  0.00    +0.000 A 
ATOM     11  O   UNL     1       8.075   6.397  15.509  0.00  0.00    +0.000 OA
ENDROOT
BRANCH   1  13
ATOM     12  C   UNL     1       7.632   5.342  18.658  0.00  0.00    +0.000 C 
ATOM     13  C   UNL     1       6.650   6.162  17.829  0.00  0.00    +0.000 C 
ENDBRANCH   1  13
BRANCH   2  14
ATOM     14  C   UNL     1       4.153   4.640  17.644  0.00  0.00    +0.000 C 
ATOM     15  C   UNL     1       4.029   3.509  18.361  0.00  0.00    +0.000 C 
BRANCH  15  16
ATOM     16  C   UNL     1       3.058   3.305  19.451  0.00  0.00    +0.000 A 
ATOM     17  C   UNL     1       1.715   3.689  19.327  0.00  0.00    +0.000 A 
ATOM     18  C   UNL     1       0.801   3.444  20.358  0.00  0.00    +0.000 A 
ATOM     19  C   UNL     1       1.211   2.799  21.524  0.00  0.00    +0.000 A 
ATOM     20  C   UNL     1       2.536   2.387  21.654  0.00  0.00    +0.000 A 
ATOM     21  C   UNL     1       3.441   2.632  20.621  0.00  0.00    +0.000 A 
ATOM     22  F   UNL     1       4.704   2.204  20.773  0.00  0.00    +0.000 F 
ENDBRANCH  15  16
ENDBRANCH   2  14
TORSDOF 3
ENDMDL
MODEL 4
REMARK VINA RESULT:      -7.6      2.988      7.734
REMARK  Name = 
REMARK  4 active torsions:
REMARK  status: ('A' for Active; 'I' for Inactive)
REMARK    1  A    between atoms: C_1  and  C_2
REMARK    2  A    between atoms: C_2  and  N_3
REMARK    3  A    between atoms: C_4  and  C_5
REMARK    4  A    between atoms: C_6  and  C_7
REMARK                            x       y       z     vdW  Elec       q    Type
REMARK                         _______ _______ _______ _____ _____    ______ ____
ROOT
ATOM      1  N   UNL     1       3.702   3.990  18.830  0.00  0.00    +0.000 N 
ATOM      2  C   UNL     1       3.946   4.797  17.723  0.00  0.00    +0.000 A 
ATOM      3  N   UNL     1       3.530   6.023  17.635  0.00  0.00    +0.000 NA
ATOM      4  C   UNL     1       2.810   6.580  18.693  0.00  0.00    +0.000 A 
ATOM      5  C   UNL     1       2.406   7.917  18.606  0.00  0.00    +0.000 A 
ATOM      6  C   UNL     1       1.668   8.508  19.636  0.00  0.00    +0.000 A 
ATOM      7  C   UNL     1       1.320   7.762  20.762  0.00  0.00    +0.000 A 
ATOM      8  C   UNL     1       1.718   6.429  20.859  0.00  0.00    +0.000 A 
ATOM      9  C   UNL     1       2.462   5.851  19.821  0.00  0.00    +0.000 A 
ATOM     10  C   UNL     1       2.920   4.455  19.895  0.00  0.00    +0.000 A 
ATOM     11  O   UNL     1       2.606   3.772  20.867  0.00  0.00    +0.000 OA
ENDROOT
BRANCH   1  13
ATOM     12  C   UNL     1       3.318   1.557  18.426  0.00  0.00    +0.000 C 
ATOM     13  C   UNL     1       4.237   2.633  18.994  0.00  0.00    +0.000 C 
ENDBRANCH   1  13
BRANCH   2  14
ATOM     14  C   UNL     1       4.685   4.207  16.563  0.00  0.00    +0.000 C 
ATOM     15  C   UNL     1       5.135   5.001  15.575  0.00  0.00    +0.000 C 
BRANCH  15  16
ATOM     16  C   UNL     1       5.776   4.522  14.336  0.00  0.00    +0.000 A 
ATOM     17  C   UNL     1       5.096   3.707  13.420  0.00  0.00    +0.000 A 
ATOM     18  C   UNL     1       5.709   3.301  12.229  0.00  0.00    +0.000 A 
ATOM     19  C   UNL     1       7.006   3.714  11.928  0.00  0.00    +0.000 A 
ATOM     20  C   UNL     1       7.686   4.546  12.815  0.00  0.00    +0.000 A 
ATOM     21  C   UNL     1       7.068   4.948  14.000  0.00  0.00    +0.000 A 
ATOM     22  F   UNL     1       7.747   5.764  14.821  0.00  0.00    +0.000 F 
ENDBRANCH  15  16
ENDBRANCH   2  14
TORSDOF 3
ENDMDL
MODEL 5
REMARK VINA RESULT:      -7.6      3.711      8.005
REMARK  Name = 
REMARK  4 active torsions:
REMARK  status: ('A' for Active; 'I' for Inactive)
REMARK    1  A    between atoms: C_1  and  C_2
REMARK    2  A    between atoms: C_2  and  N_3
REMARK    3  A    between atoms: C_4  and  C_5
REMARK    4  A    between atoms: C_6  and  C_7
REMARK                            x       y       z     vdW  Elec       q    Type
REMARK                         _______ _______ _______ _____ _____    ______ ____
ROOT
ATOM      1  N   UNL     1       3.385   6.170  18.204  0.00  0.00    +0.000 N 
ATOM      2  C   UNL     1       3.760   5.027  17.504  0.00  0.00    +0.000 A 
ATOM      3  N   UNL     1       3.538   3.825  17.940  0.00  0.00    +0.000 NA
ATOM      4  C   UNL     1       2.884   3.648  19.161  0.00  0.00    +0.000 A 
ATOM      5  C   UNL     1       2.609   2.348  19.599  0.00  0.00    +0.000 A 
ATOM      6  C   UNL     1       1.972   2.127  20.824  0.00  0.00    +0.000 A 
ATOM      7  C   UNL     1       1.610   3.208  21.626  0.00  0.00    +0.000 A 
ATOM      8  C   UNL     1       1.879   4.509  21.199  0.00  0.00    +0.000 A 
ATOM      9  C   UNL     1       2.514   4.716  19.967  0.00  0.00    +0.000 A 
ATOM     10  C   UNL     1       2.796   6.071  19.470  0.00  0.00    +0.000 A 
ATOM     11  O   UNL     1       2.506   7.038  20.171  0.00  0.00    +0.000 OA
ENDROOT
BRANCH   1  13
ATOM     12  C   UNL     1       2.221   8.290  17.589  0.00  0.00    +0.000 C 
ATOM     13  C   UNL     1       3.543   7.536  17.692  0.00  0.00    +0.000 C 
ENDBRANCH   1  13
BRANCH   2  14
ATOM     14  C   UNL     1       4.495   5.194  16.212  0.00  0.00    +0.000 C 
ATOM     15  C   UNL     1       5.083   4.135  15.627  0.00  0.00    +0.000 C 
BRANCH  15  16
ATOM     16  C   UNL     1       5.922   4.201  14.416  0.00  0.00    +0.000 A 
ATOM     17  C   UNL     1       5.558   3.553  13.228  0.00  0.00    +0.000 A 
ATOM     18  C   UNL     1       6.347   3.667  12.077  0.00  0.00    +0.000 A 
ATOM     19  C   UNL     1       7.505   4.442  12.092  0.00  0.00    +0.000 A 
ATOM     20  C   UNL     1       7.868   5.115  13.257  0.00  0.00    +0.000 A 
ATOM     21  C   UNL     1       7.075   4.999  14.399  0.00  0.00    +0.000 A 
ATOM     22  F   UNL     1       7.446   5.676  15.497  0.00  0.00    +0.000 F 
ENDBRANCH  15  16
ENDBRANCH   2  14
TORSDOF 3
ENDMDL
MODEL 6
REMARK VINA RESULT:      -7.5      1.105      1.307
REMARK  Name = 
REMARK  4 active torsions:
REMARK  status: ('A' for Active; 'I' for Inactive)
REMARK    1  A    between atoms: C_1  and  C_2
REMARK    2  A    between atoms: C_2  and  N_3
REMARK    3  A    between atoms: C_4  and  C_5
REMARK    4  A    between atoms: C_6  and  C_7
REMARK                            x       y       z     vdW  Elec       q    Type
REMARK                         _______ _______ _______ _____ _____    ______ ____
ROOT
ATOM      1  N   UNL     1       3.112   5.338  19.524  0.00  0.00    +0.000 N 
ATOM      2  C   UNL     1       2.941   6.597  18.957  0.00  0.00    +0.000 A 
ATOM      3  N   UNL     1       3.536   6.969  17.865  0.00  0.00    +0.000 NA
ATOM      4  C   UNL     1       4.384   6.076  17.208  0.00  0.00    +0.000 A 
ATOM      5  C   UNL     1       4.984   6.471  16.007  0.00  0.00    +0.000 A 
ATOM      6  C   UNL     1       5.853   5.613  15.327  0.00  0.00    +0.000 A 
ATOM      7  C   UNL     1       6.135   4.351  15.847  0.00  0.00    +0.000 A 
ATOM      8  C   UNL     1       5.543   3.946  17.043  0.00  0.00    +0.000 A 
ATOM      9  C   UNL     1       4.670   4.814  17.712  0.00  0.00    +0.000 A 
ATOM     10  C   UNL     1       4.006   4.418  18.964  0.00  0.00    +0.000 A 
ATOM     11  O   UNL     1       4.258   3.319  19.452  0.00  0.00    +0.000 OA
ENDROOT
BRANCH   1  13
ATOM     12  C   UNL     1       1.071   4.167  20.355  0.00  0.00    +0.000 C 
ATOM     13  C   UNL     1       2.383   4.862  20.705  0.00  0.00    +0.000 C 
ENDBRANCH   1  13
BRANCH   2  14
ATOM     14  C   UNL     1       2.066   7.583  19.665  0.00  0.00    +0.000 C 
ATOM     15  C   UNL     1       1.451   8.559  18.974  0.00  0.00    +0.000 C 
BRANCH  15  16
ATOM     16  C   UNL     1       0.658   9.646  19.577  0.00  0.00    +0.000 A 
ATOM     17  C   UNL     1       0.915  10.119  20.872  0.00  0.00    +0.000 A 
ATOM     18  C   UNL     1       0.179  11.182  21.407  0.00  0.00    +0.000 A 
ATOM     19  C   UNL     1      -0.818  11.798  20.652  0.00  0.00    +0.000 A 
ATOM     20  C   UNL     1      -1.069  11.359  19.354  0.00  0.00    +0.000 A 
ATOM     21  C   UNL     1      -0.329  10.300  18.826  0.00  0.00    +0.000 A 
ATOM     22  F   UNL     1      -0.586   9.916  17.566  0.00  0.00    +0.000 F 
ENDBRANCH  15  16
ENDBRANCH   2  14
TORSDOF 3
ENDMDL
MODEL 7
REMARK VINA RESULT:      -7.5      1.058      1.417
REMARK  Name = 
REMARK  4 active torsions:
REMARK  status: ('A' for Active; 'I' for Inactive)
REMARK    1  A    between atoms: C_1  and  C_2
REMARK    2  A    between atoms: C_2  and  N_3
REMARK    3  A    between atoms: C_4  and  C_5
REMARK    4  A    between atoms: C_6  and  C_7
REMARK                            x       y       z     vdW  Elec       q    Type
REMARK                         _______ _______ _______ _____ _____    ______ ____
ROOT
ATOM      1  N   UNL     1       2.928   5.081  19.581  0.00  0.00    +0.000 N 
ATOM      2  C   UNL     1       2.866   6.429  19.243  0.00  0.00    +0.000 A 
ATOM      3  N   UNL     1       3.443   6.922  18.190  0.00  0.00    +0.000 NA
ATOM      4  C   UNL     1       4.155   6.076  17.338  0.00  0.00    +0.000 A 
ATOM      5  C   UNL     1       4.734   6.610  16.182  0.00  0.00    +0.000 A 
ATOM      6  C   UNL     1       5.471   5.801  15.312  0.00  0.00    +0.000 A 
ATOM      7  C   UNL     1       5.641   4.446  15.597  0.00  0.00    +0.000 A 
ATOM      8  C   UNL     1       5.068   3.902  16.746  0.00  0.00    +0.000 A 
ATOM      9  C   UNL     1       4.328   4.725  17.607  0.00  0.00    +0.000 A 
ATOM     10  C   UNL     1       3.689   4.187  18.817  0.00  0.00    +0.000 A 
ATOM     11  O   UNL     1       3.845   3.001  19.100  0.00  0.00    +0.000 OA
ENDROOT
BRANCH   1  13
ATOM     12  C   UNL     1       0.828   3.966  20.337  0.00  0.00    +0.000 C 
ATOM     13  C   UNL     1       2.212   4.483  20.713  0.00  0.00    +0.000 C 
ENDBRANCH   1  13
BRANCH   2  14
ATOM     14  C   UNL     1       2.139   7.359  20.161  0.00  0.00    +0.000 C 
ATOM     15  C   UNL     1       1.516   8.445  19.668  0.00  0.00    +0.000 C 
BRANCH  15  16
ATOM     16  C   UNL     1       0.864   9.485  20.486  0.00  0.00    +0.000 A 
ATOM     17  C   UNL     1       1.086  10.851  20.260  0.00  0.00    +0.000 A 
ATOM     18  C   UNL     1       0.422  11.821  21.019  0.00  0.00    +0.000 A 
ATOM     19  C   UNL     1      -0.485  11.442  22.007  0.00  0.00    +0.000 A 
ATOM     20  C   UNL     1      -0.738  10.089  22.228  0.00  0.00    +0.000 A 
ATOM     21  C   UNL     1      -0.074   9.128  21.465  0.00  0.00    +0.000 A 
ATOM     22  F   UNL     1      -0.356   7.835  21.692  0.00  0.00    +0.000 F 
ENDBRANCH  15  16
ENDBRANCH   2  14
TORSDOF 3
ENDMDL
MODEL 8
REMARK VINA RESULT:      -7.4      4.433      6.002
REMARK  Name = 
REMARK  4 active torsions:
REMARK  status: ('A' for Active; 'I' for Inactive)
REMARK    1  A    between atoms: C_1  and  C_2
REMARK    2  A    between atoms: C_2  and  N_3
REMARK    3  A    between atoms: C_4  and  C_5
REMARK    4  A    between atoms: C_6  and  C_7
REMARK                            x       y       z     vdW  Elec       q    Type
REMARK                         _______ _______ _______ _____ _____    ______ ____
ROOT
ATOM      1  N   UNL     1       6.332   5.011  16.597  0.00  0.00    +0.000 N 
ATOM      2  C   UNL     1       5.446   3.986  16.282  0.00  0.00    +0.000 A 
ATOM      3  N   UNL     1       5.347   3.477  15.092  0.00  0.00    +0.000 NA
ATOM      4  C   UNL     1       6.165   3.959  14.069  0.00  0.00    +0.000 A 
ATOM      5  C   UNL     1       6.082   3.371  12.802  0.00  0.00    +0.000 A 
ATOM      6  C   UNL     1       6.871   3.836  11.746  0.00  0.00    +0.000 A 
ATOM      7  C   UNL     1       7.749   4.901  11.948  0.00  0.00    +0.000 A 
ATOM      8  C   UNL     1       7.840   5.494  13.207  0.00  0.00    +0.000 A 
ATOM      9  C   UNL     1       7.046   5.015  14.258  0.00  0.00    +0.000 A 
ATOM     10  C   UNL     1       7.128   5.597  15.606  0.00  0.00    +0.000 A 
ATOM     11  O   UNL     1       7.877   6.552  15.800  0.00  0.00    +0.000 OA
ENDROOT
BRANCH   1  13
ATOM     12  C   UNL     1       7.786   5.005  18.625  0.00  0.00    +0.000 C 
ATOM     13  C   UNL     1       6.528   5.542  17.951  0.00  0.00    +0.000 C 
ENDBRANCH   1  13
BRANCH   2  14
ATOM     14  C   UNL     1       4.534   3.480  17.354  0.00  0.00    +0.000 C 
ATOM     15  C   UNL     1       3.394   4.136  17.637  0.00  0.00    +0.000 C 
BRANCH  15  16
ATOM     16  C   UNL     1       2.478   3.793  18.741  0.00  0.00    +0.000 A 
ATOM     17  C   UNL     1       1.454   2.848  18.586  0.00  0.00    +0.000 A 
ATOM     18  C   UNL     1       0.626   2.506  19.661  0.00  0.00    +0.000 A 
ATOM     19  C   UNL     1       0.815   3.092  20.911  0.00  0.00    +0.000 A 
ATOM     20  C   UNL     1       1.845   4.014  21.090  0.00  0.00    +0.000 A 
ATOM     21  C   UNL     1       2.669   4.349  20.014  0.00  0.00    +0.000 A 
ATOM     22  F   UNL     1       3.661   5.227  20.227  0.00  0.00    +0.000 F 
ENDBRANCH  15  16
ENDBRANCH   2  14
TORSDOF 3
ENDMDL
MODEL 9
REMARK VINA RESULT:      -7.4      1.523      1.813
REMARK  Name = 
REMARK  4 active torsions:
REMARK  status: ('A' for Active; 'I' for Inactive)
REMARK    1  A    between atoms: C_1  and  C_2
REMARK    2  A    between atoms: C_2  and  N_3
REMARK    3  A    between atoms: C_4  and  C_5
REMARK    4  A    between atoms: C_6  and  C_7
REMARK                            x       y       z     vdW  Elec       q    Type
REMARK                         _______ _______ _______ _____ _____    ______ ____
ROOT
ATOM      1  N   UNL     1       3.098   5.546  19.262  0.00  0.00    +0.000 N 
ATOM      2  C   UNL     1       3.021   6.763  18.592  0.00  0.00    +0.000 A 
ATOM      3  N   UNL     1       3.670   7.009  17.495  0.00  0.00    +0.000 NA
ATOM      4  C   UNL     1       4.481   6.018  16.941  0.00  0.00    +0.000 A 
ATOM      5  C   UNL     1       5.140   6.278  15.734  0.00  0.00    +0.000 A 
ATOM      6  C   UNL     1       5.975   5.319  15.154  0.00  0.00    +0.000 A 
ATOM      7  C   UNL     1       6.164   4.088  15.783  0.00  0.00    +0.000 A 
ATOM      8  C   UNL     1       5.512   3.817  16.985  0.00  0.00    +0.000 A 
ATOM      9  C   UNL     1       4.674   4.787  17.553  0.00  0.00    +0.000 A 
ATOM     10  C   UNL     1       3.950   4.533  18.808  0.00  0.00    +0.000 A 
ATOM     11  O   UNL     1       4.120   3.464  19.391  0.00  0.00    +0.000 OA
ENDROOT
BRANCH   1  13
ATOM     12  C   UNL     1       1.075   4.370  20.130  0.00  0.00    +0.000 C 
ATOM     13  C   UNL     1       2.306   5.211  20.451  0.00  0.00    +0.000 C 
ENDBRANCH   1  13
BRANCH   2  14
ATOM     14  C   UNL     1       2.187   7.852  19.188  0.00  0.00    +0.000 C 
ATOM     15  C   UNL     1       1.757   8.871  18.422  0.00  0.00    +0.000 C 
BRANCH  15  16
ATOM     16  C   UNL     1       1.025  10.049  18.923  0.00  0.00    +0.000 A 
ATOM     17  C   UNL     1      -0.100   9.925  19.750  0.00  0.00    +0.000 A 
ATOM     18  C   UNL     1      -0.751  11.058  20.250  0.00  0.00    +0.000 A 
ATOM     19  C   UNL     1      -0.281  12.334  19.943  0.00  0.00    +0.000 A 
ATOM     20  C   UNL     1       0.852  12.476  19.143  0.00  0.00    +0.000 A 
ATOM     21  C   UNL     1       1.498  11.341  18.651  0.00  0.00    +0.000 A 
ATOM     22  F   UNL     1       2.597  11.516  17.899  0.00  0.00    +0.000 F 
ENDBRANCH  15  16
ENDBRANCH   2  14
TORSDOF 3
ENDMDL
