MODEL 1
REMARK VINA RESULT:      -7.6      0.000      0.000
REMARK  Name = 
REMARK  9 active torsions:
REMARK  status: ('A' for Active; 'I' for Inactive)
REMARK    1  A    between atoms: C_1  and  C_2
REMARK    2  A    between atoms: C_2  and  C_3
REMARK    3  A    between atoms: C_3  and  C_4
REMARK    4  A    between atoms: C_4  and  C_5
REMARK    5  A    between atoms: C_5  and  C_6
REMARK    6  A    between atoms: C_6  and  C_7
REMARK    7  A    between atoms: N_9  and  C_10
REMARK    8  A    between atoms: C_14  and  S_15
REMARK    9  A    between atoms: S_15  and  C_16
REMARK                            x       y       z     vdW  Elec       q    Type
REMARK                         _______ _______ _______ _____ _____    ______ ____
ROOT
ATOM      1  C   UNL     1       7.123   4.467  14.941  0.00  0.00    +0.000 C 
ATOM      2  C   UNL     1       6.071   3.982  15.920  0.00  0.00    +0.000 C 
ATOM      3  N   UNL     1       5.678   5.192  16.573  0.00  0.00    +0.000 N 
ATOM      4  C   UNL     1       6.664   6.153  16.388  0.00  0.00    +0.000 C 
ATOM      5  O   UNL     1       6.747   7.264  16.888  0.00  0.00    +0.000 OA
ATOM      6  O   UNL     1       7.632   5.657  15.554  0.00  0.00    +0.000 OA
ENDROOT
BRANCH   3   7
ATOM      7  C   UNL     1       4.547   5.304  17.408  0.00  0.00    +0.000 A 
ATOM      8  C   UNL     1       3.916   6.541  17.597  0.00  0.00    +0.000 A 
ATOM      9  C   UNL     1       2.791   6.663  18.418  0.00  0.00    +0.000 A 
ATOM     10  C   UNL     1       2.299   5.553  19.094  0.00  0.00    +0.000 A 
ATOM     11  C   UNL     1       2.936   4.323  18.933  0.00  0.00    +0.000 A 
ATOM     12  C   UNL     1       4.027   4.184  18.064  0.00  0.00    +0.000 A 
BRANCH  11  13
ATOM     13  S   UNL     1       2.350   2.908  19.835  0.00  0.00    +0.000 S 
ATOM     14  C   UNL     1       0.656   3.310  20.181  0.00  0.00    +0.000 C 
ATOM     15  O   UNL     1       2.372   1.773  18.933  0.00  0.00    +0.000 OA
ATOM     16  O   UNL     1       3.069   2.872  21.095  0.00  0.00    +0.000 OA
ENDBRANCH  11  13
ENDBRANCH   3   7
BRANCH   1  17
ATOM     17  C   UNL     1       6.560   4.823  13.558  0.00  0.00    +0.000 C 
BRANCH  17  18
ATOM     18  C   UNL     1       5.402   3.893  13.180  0.00  0.00    +0.000 C 
BRANCH  18  19
ATOM     19  C   UNL     1       5.770   2.958  12.027  0.00  0.00    +0.000 C 
BRANCH  19  20
ATOM     20  C   UNL     1       4.541   2.661  11.169  0.00  0.00    +0.000 C 
BRANCH  20  22
ATOM     21  C   UNL     1       3.137   3.990   9.568  0.00  0.00    +0.000 C 
ATOM     22  C   UNL     1       3.656   3.892  10.994  0.00  0.00    +0.000 C 
ENDBRANCH  20  22
ENDBRANCH  19  20
ENDBRANCH  18  19
ENDBRANCH  17  18
ENDBRANCH   1  17
TORSDOF 7
ENDMDL
MODEL 2
REMARK VINA RESULT:      -7.5      0.996      1.098
REMARK  Name = 
REMARK  9 active torsions:
REMARK  status: ('A' for Active; 'I' for Inactive)
REMARK    1  A    between atoms: C_1  and  C_2
REMARK    2  A    between atoms: C_2  and  C_3
REMARK    3  A    between atoms: C_3  and  C_4
REMARK    4  A    between atoms: C_4  and  C_5
REMARK    5  A    between atoms: C_5  and  C_6
REMARK    6  A    between atoms: C_6  and  C_7
REMARK    7  A    between atoms: N_9  and  C_10
REMARK    8  A    between atoms: C_14  and  S_15
REMARK    9  A    between atoms: S_15  and  C_16
REMARK                            x       y       z     vdW  Elec       q    Type
REMARK                         _______ _______ _______ _____ _____    ______ ____
ROOT
ATOM      1  C   UNL     1       6.226   4.248  14.694  0.00  0.00    +0.000 C 
ATOM      2  C   UNL     1       5.661   3.900  16.057  0.00  0.00    +0.000 C 
ATOM      3  N   UNL     1       4.954   5.092  16.410  0.00  0.00    +0.000 N 
ATOM      4  C   UNL     1       5.423   6.147  15.638  0.00  0.00    +0.000 C 
ATOM      5  O   UNL     1       5.152   7.335  15.729  0.00  0.00    +0.000 OA
ATOM      6  O   UNL     1       6.329   5.676  14.724  0.00  0.00    +0.000 OA
ENDROOT
BRANCH   3   7
ATOM      7  C   UNL     1       4.053   5.182  17.491  0.00  0.00    +0.000 A 
ATOM      8  C   UNL     1       3.759   6.421  18.078  0.00  0.00    +0.000 A 
ATOM      9  C   UNL     1       2.863   6.523  19.146  0.00  0.00    +0.000 A 
ATOM     10  C   UNL     1       2.273   5.379  19.672  0.00  0.00    +0.000 A 
ATOM     11  C   UNL     1       2.581   4.139  19.112  0.00  0.00    +0.000 A 
ATOM     12  C   UNL     1       3.430   4.039  18.002  0.00  0.00    +0.000 A 
BRANCH  11  13
ATOM     13  S   UNL     1       1.876   2.665  19.811  0.00  0.00    +0.000 S 
ATOM     14  C   UNL     1       0.422   2.396  18.828  0.00  0.00    +0.000 C 
ATOM     15  O   UNL     1       2.800   1.576  19.560  0.00  0.00    +0.000 OA
ATOM     16  O   UNL     1       1.452   2.987  21.161  0.00  0.00    +0.000 OA
ENDBRANCH  11  13
ENDBRANCH   3   7
BRANCH   1  17
ATOM     17  C   UNL     1       5.315   3.841  13.527  0.00  0.00    +0.000 C 
BRANCH  17  18
ATOM     18  C   UNL     1       6.122   3.183  12.403  0.00  0.00    +0.000 C 
BRANCH  18  19
ATOM     19  C   UNL     1       5.222   2.662  11.281  0.00  0.00    +0.000 C 
BRANCH  19  20
ATOM     20  C   UNL     1       3.842   3.316  11.358  0.00  0.00    +0.000 C 
BRANCH  20  22
ATOM     21  C   UNL     1       2.841   4.467   9.365  0.00  0.00    +0.000 C 
ATOM     22  C   UNL     1       3.052   3.134  10.066  0.00  0.00    +0.000 C 
ENDBRANCH  20  22
ENDBRANCH  19  20
ENDBRANCH  18  19
ENDBRANCH  17  18
ENDBRANCH   1  17
TORSDOF 7
ENDMDL
MODEL 3
REMARK VINA RESULT:      -7.4      1.204      1.601
REMARK  Name = 
REMARK  9 active torsions:
REMARK  status: ('A' for Active; 'I' for Inactive)
REMARK    1  A    between atoms: C_1  and  C_2
REMARK    2  A    between atoms: C_2  and  C_3
REMARK    3  A    between atoms: C_3  and  C_4
REMARK    4  A    between atoms: C_4  and  C_5
REMARK    5  A    between atoms: C_5  and  C_6
REMARK    6  A    between atoms: C_6  and  C_7
REMARK    7  A    between atoms: N_9  and  C_10
REMARK    8  A    between atoms: C_14  and  S_15
REMARK    9  A    between atoms: S_15  and  C_16
REMARK                            x       y       z     vdW  Elec       q    Type
REMARK                         _______ _______ _______ _____ _____    ______ ____
ROOT
ATOM      1  C   UNL     1       7.131   4.720  15.555  0.00  0.00    +0.000 C 
ATOM      2  C   UNL     1       6.138   4.196  16.574  0.00  0.00    +0.000 C 
ATOM      3  N   UNL     1       5.671   5.396  17.195  0.00  0.00    +0.000 N 
ATOM      4  C   UNL     1       6.581   6.418  16.956  0.00  0.00    +0.000 C 
ATOM      5  O   UNL     1       6.594   7.549  17.417  0.00  0.00    +0.000 OA
ATOM      6  O   UNL     1       7.566   5.964  16.117  0.00  0.00    +0.000 OA
ENDROOT
BRANCH   3   7
ATOM      7  C   UNL     1       4.553   5.456  18.052  0.00  0.00    +0.000 A 
ATOM      8  C   UNL     1       3.775   6.619  18.135  0.00  0.00    +0.000 A 
ATOM      9  C   UNL     1       2.660   6.688  18.976  0.00  0.00    +0.000 A 
ATOM     10  C   UNL     1       2.327   5.603  19.779  0.00  0.00    +0.000 A 
ATOM     11  C   UNL     1       3.111   4.452  19.724  0.00  0.00    +0.000 A 
ATOM     12  C   UNL     1       4.192   4.356  18.838  0.00  0.00    +0.000 A 
BRANCH  11  13
ATOM     13  S   UNL     1       2.726   3.079  20.786  0.00  0.00    +0.000 S 
ATOM     14  C   UNL     1       1.411   2.250  19.930  0.00  0.00    +0.000 C 
ATOM     15  O   UNL     1       3.881   2.202  20.803  0.00  0.00    +0.000 OA
ATOM     16  O   UNL     1       2.187   3.625  22.018  0.00  0.00    +0.000 OA
ENDBRANCH  11  13
ENDBRANCH   3   7
BRANCH   1  17
ATOM     17  C   UNL     1       6.515   4.988  14.175  0.00  0.00    +0.000 C 
BRANCH  17  18
ATOM     18  C   UNL     1       5.862   3.722  13.610  0.00  0.00    +0.000 C 
BRANCH  18  19
ATOM     19  C   UNL     1       5.978   3.648  12.087  0.00  0.00    +0.000 C 
BRANCH  19  20
ATOM     20  C   UNL     1       5.137   2.492  11.544  0.00  0.00    +0.000 C 
BRANCH  20  22
ATOM     21  C   UNL     1       7.433   1.677  10.941  0.00  0.00    +0.000 C 
ATOM     22  C   UNL     1       5.992   1.273  11.209  0.00  0.00    +0.000 C 
ENDBRANCH  20  22
ENDBRANCH  19  20
ENDBRANCH  18  19
ENDBRANCH  17  18
ENDBRANCH   1  17
TORSDOF 7
ENDMDL
MODEL 4
REMARK VINA RESULT:      -7.4      1.022      1.185
REMARK  Name = 
REMARK  9 active torsions:
REMARK  status: ('A' for Active; 'I' for Inactive)
REMARK    1  A    between atoms: C_1  and  C_2
REMARK    2  A    between atoms: C_2  and  C_3
REMARK    3  A    between atoms: C_3  and  C_4
REMARK    4  A    between atoms: C_4  and  C_5
REMARK    5  A    between atoms: C_5  and  C_6
REMARK    6  A    between atoms: C_6  and  C_7
REMARK    7  A    between atoms: N_9  and  C_10
REMARK    8  A    between atoms: C_14  and  S_15
REMARK    9  A    between atoms: S_15  and  C_16
REMARK                            x       y       z     vdW  Elec       q    Type
REMARK                         _______ _______ _______ _____ _____    ______ ____
ROOT
ATOM      1  C   UNL     1       6.346   4.126  14.713  0.00  0.00    +0.000 C 
ATOM      2  C   UNL     1       5.666   3.768  16.020  0.00  0.00    +0.000 C 
ATOM      3  N   UNL     1       5.078   5.011  16.412  0.00  0.00    +0.000 N 
ATOM      4  C   UNL     1       5.709   6.048  15.736  0.00  0.00    +0.000 C 
ATOM      5  O   UNL     1       5.571   7.251  15.889  0.00  0.00    +0.000 OA
ATOM      6  O   UNL     1       6.609   5.528  14.842  0.00  0.00    +0.000 OA
ENDROOT
BRANCH   3   7
ATOM      7  C   UNL     1       4.131   5.143  17.449  0.00  0.00    +0.000 A 
ATOM      8  C   UNL     1       3.805   6.405  17.965  0.00  0.00    +0.000 A 
ATOM      9  C   UNL     1       2.864   6.548  18.988  0.00  0.00    +0.000 A 
ATOM     10  C   UNL     1       2.259   5.424  19.540  0.00  0.00    +0.000 A 
ATOM     11  C   UNL     1       2.598   4.163  19.052  0.00  0.00    +0.000 A 
ATOM     12  C   UNL     1       3.494   4.019  17.985  0.00  0.00    +0.000 A 
BRANCH  11  13
ATOM     13  S   UNL     1       1.873   2.716  19.786  0.00  0.00    +0.000 S 
ATOM     14  C   UNL     1       2.397   2.804  21.479  0.00  0.00    +0.000 C 
ATOM     15  O   UNL     1       0.433   2.879  19.748  0.00  0.00    +0.000 OA
ATOM     16  O   UNL     1       2.507   1.560  19.179  0.00  0.00    +0.000 OA
ENDBRANCH  11  13
ENDBRANCH   3   7
BRANCH   1  17
ATOM     17  C   UNL     1       5.464   3.897  13.477  0.00  0.00    +0.000 C 
BRANCH  17  18
ATOM     18  C   UNL     1       6.265   3.249  12.343  0.00  0.00    +0.000 C 
BRANCH  18  19
ATOM     19  C   UNL     1       5.377   2.418  11.416  0.00  0.00    +0.000 C 
BRANCH  19  20
ATOM     20  C   UNL     1       3.980   3.033  11.326  0.00  0.00    +0.000 C 
BRANCH  20  22
ATOM     21  C   UNL     1       2.613   4.013   9.463  0.00  0.00    +0.000 C 
ATOM     22  C   UNL     1       3.903   4.122  10.260  0.00  0.00    +0.000 C 
ENDBRANCH  20  22
ENDBRANCH  19  20
ENDBRANCH  18  19
ENDBRANCH  17  18
ENDBRANCH   1  17
TORSDOF 7
ENDMDL
MODEL 5
REMARK VINA RESULT:      -7.1      1.356      2.074
REMARK  Name = 
REMARK  9 active torsions:
REMARK  status: ('A' for Active; 'I' for Inactive)
REMARK    1  A    between atoms: C_1  and  C_2
REMARK    2  A    between atoms: C_2  and  C_3
REMARK    3  A    between atoms: C_3  and  C_4
REMARK    4  A    between atoms: C_4  and  C_5
REMARK    5  A    between atoms: C_5  and  C_6
REMARK    6  A    between atoms: C_6  and  C_7
REMARK    7  A    between atoms: N_9  and  C_10
REMARK    8  A    between atoms: C_14  and  S_15
REMARK    9  A    between atoms: S_15  and  C_16
REMARK                            x       y       z     vdW  Elec       q    Type
REMARK                         _______ _______ _______ _____ _____    ______ ____
ROOT
ATOM      1  C   UNL     1       7.122   5.897  17.047  0.00  0.00    +0.000 C 
ATOM      2  C   UNL     1       6.308   5.736  18.316  0.00  0.00    +0.000 C 
ATOM      3  N   UNL     1       4.987   6.067  17.877  0.00  0.00    +0.000 N 
ATOM      4  C   UNL     1       5.066   6.787  16.692  0.00  0.00    +0.000 C 
ATOM      5  O   UNL     1       4.169   7.343  16.079  0.00  0.00    +0.000 OA
ATOM      6  O   UNL     1       6.373   6.848  16.283  0.00  0.00    +0.000 OA
ENDROOT
BRANCH   3   7
ATOM      7  C   UNL     1       3.823   5.835  18.639  0.00  0.00    +0.000 A 
ATOM      8  C   UNL     1       3.180   6.889  19.304  0.00  0.00    +0.000 A 
ATOM      9  C   UNL     1       2.022   6.672  20.056  0.00  0.00    +0.000 A 
ATOM     10  C   UNL     1       1.508   5.387  20.187  0.00  0.00    +0.000 A 
ATOM     11  C   UNL     1       2.156   4.329  19.552  0.00  0.00    +0.000 A 
ATOM     12  C   UNL     1       3.281   4.550  18.747  0.00  0.00    +0.000 A 
BRANCH  11  13
ATOM     13  S   UNL     1       1.539   2.674  19.757  0.00  0.00    +0.000 S 
ATOM     14  C   UNL     1       1.445   2.483  21.519  0.00  0.00    +0.000 C 
ATOM     15  O   UNL     1       0.192   2.640  19.224  0.00  0.00    +0.000 OA
ATOM     16  O   UNL     1       2.560   1.769  19.261  0.00  0.00    +0.000 OA
ENDBRANCH  11  13
ENDBRANCH   3   7
BRANCH   1  17
ATOM     17  C   UNL     1       7.258   4.602  16.233  0.00  0.00    +0.000 C 
BRANCH  17  18
ATOM     18  C   UNL     1       6.976   4.854  14.749  0.00  0.00    +0.000 C 
BRANCH  18  19
ATOM     19  C   UNL     1       6.193   3.706  14.111  0.00  0.00    +0.000 C 
BRANCH  19  20
ATOM     20  C   UNL     1       6.252   3.804  12.586  0.00  0.00    +0.000 C 
BRANCH  20  22
ATOM     21  C   UNL     1       4.203   3.231  11.254  0.00  0.00    +0.000 C 
ATOM     22  C   UNL     1       5.461   2.686  11.912  0.00  0.00    +0.000 C 
ENDBRANCH  20  22
ENDBRANCH  19  20
ENDBRANCH  18  19
ENDBRANCH  17  18
ENDBRANCH   1  17
TORSDOF 7
ENDMDL
MODEL 6
REMARK VINA RESULT:      -7.0      4.353      6.212
REMARK  Name = 
REMARK  9 active torsions:
REMARK  status: ('A' for Active; 'I' for Inactive)
REMARK    1  A    between atoms: C_1  and  C_2
REMARK    2  A    between atoms: C_2  and  C_3
REMARK    3  A    between atoms: C_3  and  C_4
REMARK    4  A    between atoms: C_4  and  C_5
REMARK    5  A    between atoms: C_5  and  C_6
REMARK    6  A    between atoms: C_6  and  C_7
REMARK    7  A    between atoms: N_9  and  C_10
REMARK    8  A    between atoms: C_14  and  S_15
REMARK    9  A    between atoms: S_15  and  C_16
REMARK                            x       y       z     vdW  Elec       q    Type
REMARK                         _______ _______ _______ _____ _____    ______ ____
ROOT
ATOM      1  C   UNL     1       4.450   4.503  18.676  0.00  0.00    +0.000 C 
ATOM      2  C   UNL     1       3.696   5.536  19.490  0.00  0.00    +0.000 C 
ATOM      3  N   UNL     1       3.436   6.559  18.525  0.00  0.00    +0.000 N 
ATOM      4  C   UNL     1       4.310   6.410  17.455  0.00  0.00    +0.000 C 
ATOM      5  O   UNL     1       4.476   7.153  16.500  0.00  0.00    +0.000 OA
ATOM      6  O   UNL     1       5.054   5.273  17.631  0.00  0.00    +0.000 OA
ENDROOT
BRANCH   3   7
ATOM      7  C   UNL     1       2.548   7.634  18.736  0.00  0.00    +0.000 A 
ATOM      8  C   UNL     1       2.274   8.549  17.711  0.00  0.00    +0.000 A 
ATOM      9  C   UNL     1       1.391   9.615  17.907  0.00  0.00    +0.000 A 
ATOM     10  C   UNL     1       0.794   9.805  19.148  0.00  0.00    +0.000 A 
ATOM     11  C   UNL     1       1.082   8.915  20.182  0.00  0.00    +0.000 A 
ATOM     12  C   UNL     1       1.918   7.811  19.973  0.00  0.00    +0.000 A 
BRANCH  11  13
ATOM     13  S   UNL     1       0.368   9.179  21.788  0.00  0.00    +0.000 S 
ATOM     14  C   UNL     1      -0.453  10.745  21.624  0.00  0.00    +0.000 C 
ATOM     15  O   UNL     1      -0.640   8.158  21.993  0.00  0.00    +0.000 OA
ATOM     16  O   UNL     1       1.464   9.343  22.726  0.00  0.00    +0.000 OA
ENDBRANCH  11  13
ENDBRANCH   3   7
BRANCH   1  17
ATOM     17  C   UNL     1       3.545   3.435  18.046  0.00  0.00    +0.000 C 
BRANCH  17  18
ATOM     18  C   UNL     1       3.355   2.247  18.995  0.00  0.00    +0.000 C 
BRANCH  18  19
ATOM     19  C   UNL     1       1.888   1.824  19.097  0.00  0.00    +0.000 C 
BRANCH  19  20
ATOM     20  C   UNL     1       0.984   3.054  19.185  0.00  0.00    +0.000 C 
BRANCH  20  22
ATOM     21  C   UNL     1       1.343   2.659  21.637  0.00  0.00    +0.000 C 
ATOM     22  C   UNL     1       1.024   3.694  20.570  0.00  0.00    +0.000 C 
ENDBRANCH  20  22
ENDBRANCH  19  20
ENDBRANCH  18  19
ENDBRANCH  17  18
ENDBRANCH   1  17
TORSDOF 7
ENDMDL
MODEL 7
REMARK VINA RESULT:      -7.0      3.699      6.155
REMARK  Name = 
REMARK  9 active torsions:
REMARK  status: ('A' for Active; 'I' for Inactive)
REMARK    1  A    between atoms: C_1  and  C_2
REMARK    2  A    between atoms: C_2  and  C_3
REMARK    3  A    between atoms: C_3  and  C_4
REMARK    4  A    between atoms: C_4  and  C_5
REMARK    5  A    between atoms: C_5  and  C_6
REMARK    6  A    between atoms: C_6  and  C_7
REMARK    7  A    between atoms: N_9  and  C_10
REMARK    8  A    between atoms: C_14  and  S_15
REMARK    9  A    between atoms: S_15  and  C_16
REMARK                            x       y       z     vdW  Elec       q    Type
REMARK                         _______ _______ _______ _____ _____    ______ ____
ROOT
ATOM      1  C   UNL     1       7.738   7.361  17.316  0.00  0.00    +0.000 C 
ATOM      2  C   UNL     1       6.391   6.787  16.923  0.00  0.00    +0.000 C 
ATOM      3  N   UNL     1       5.945   6.187  18.142  0.00  0.00    +0.000 N 
ATOM      4  C   UNL     1       7.035   5.987  18.979  0.00  0.00    +0.000 C 
ATOM      5  O   UNL     1       7.076   5.397  20.047  0.00  0.00    +0.000 OA
ATOM      6  O   UNL     1       8.156   6.528  18.403  0.00  0.00    +0.000 OA
ENDROOT
BRANCH   3   7
ATOM      7  C   UNL     1       4.629   5.725  18.357  0.00  0.00    +0.000 A 
ATOM      8  C   UNL     1       3.526   6.496  17.966  0.00  0.00    +0.000 A 
ATOM      9  C   UNL     1       2.219   6.046  18.169  0.00  0.00    +0.000 A 
ATOM     10  C   UNL     1       1.992   4.829  18.803  0.00  0.00    +0.000 A 
ATOM     11  C   UNL     1       3.083   4.068  19.220  0.00  0.00    +0.000 A 
ATOM     12  C   UNL     1       4.395   4.487  18.964  0.00  0.00    +0.000 A 
BRANCH  11  13
ATOM     13  S   UNL     1       2.805   2.538  20.080  0.00  0.00    +0.000 S 
ATOM     14  C   UNL     1       1.748   3.006  21.427  0.00  0.00    +0.000 C 
ATOM     15  O   UNL     1       2.056   1.668  19.196  0.00  0.00    +0.000 OA
ATOM     16  O   UNL     1       4.079   2.117  20.635  0.00  0.00    +0.000 OA
ENDBRANCH  11  13
ENDBRANCH   3   7
BRANCH   1  17
ATOM     17  C   UNL     1       7.671   8.816  17.802  0.00  0.00    +0.000 C 
BRANCH  17  18
ATOM     18  C   UNL     1       8.926   9.187  18.598  0.00  0.00    +0.000 C 
BRANCH  18  19
ATOM     19  C   UNL     1       9.075  10.701  18.758  0.00  0.00    +0.000 C 
BRANCH  19  20
ATOM     20  C   UNL     1      10.257  11.210  17.932  0.00  0.00    +0.000 C 
BRANCH  20  22
ATOM     21  C   UNL     1      10.888  13.554  18.568  0.00  0.00    +0.000 C 
ATOM     22  C   UNL     1      10.115  12.689  17.585  0.00  0.00    +0.000 C 
ENDBRANCH  20  22
ENDBRANCH  19  20
ENDBRANCH  18  19
ENDBRANCH  17  18
ENDBRANCH   1  17
TORSDOF 7
ENDMDL
MODEL 8
REMARK VINA RESULT:      -6.9      1.199      1.733
REMARK  Name = 
REMARK  9 active torsions:
REMARK  status: ('A' for Active; 'I' for Inactive)
REMARK    1  A    between atoms: C_1  and  C_2
REMARK    2  A    between atoms: C_2  and  C_3
REMARK    3  A    between atoms: C_3  and  C_4
REMARK    4  A    between atoms: C_4  and  C_5
REMARK    5  A    between atoms: C_5  and  C_6
REMARK    6  A    between atoms: C_6  and  C_7
REMARK    7  A    between atoms: N_9  and  C_10
REMARK    8  A    between atoms: C_14  and  S_15
REMARK    9  A    between atoms: S_15  and  C_16
REMARK                            x       y       z     vdW  Elec       q    Type
REMARK                         _______ _______ _______ _____ _____    ______ ____
ROOT
ATOM      1  C   UNL     1       7.149   4.381  15.424  0.00  0.00    +0.000 C 
ATOM      2  C   UNL     1       5.987   4.069  16.348  0.00  0.00    +0.000 C 
ATOM      3  N   UNL     1       5.585   5.370  16.785  0.00  0.00    +0.000 N 
ATOM      4  C   UNL     1       6.624   6.266  16.572  0.00  0.00    +0.000 C 
ATOM      5  O   UNL     1       6.706   7.433  16.921  0.00  0.00    +0.000 OA
ATOM      6  O   UNL     1       7.647   5.630  15.917  0.00  0.00    +0.000 OA
ENDROOT
BRANCH   3   7
ATOM      7  C   UNL     1       4.384   5.631  17.477  0.00  0.00    +0.000 A 
ATOM      8  C   UNL     1       3.899   6.941  17.602  0.00  0.00    +0.000 A 
ATOM      9  C   UNL     1       2.707   7.211  18.280  0.00  0.00    +0.000 A 
ATOM     10  C   UNL     1       1.997   6.176  18.879  0.00  0.00    +0.000 A 
ATOM     11  C   UNL     1       2.485   4.874  18.783  0.00  0.00    +0.000 A 
ATOM     12  C   UNL     1       3.647   4.591  18.052  0.00  0.00    +0.000 A 
BRANCH  11  13
ATOM     13  S   UNL     1       1.616   3.551  19.591  0.00  0.00    +0.000 S 
ATOM     14  C   UNL     1       2.885   2.726  20.518  0.00  0.00    +0.000 C 
ATOM     15  O   UNL     1       0.684   4.147  20.528  0.00  0.00    +0.000 OA
ATOM     16  O   UNL     1       1.154   2.644  18.556  0.00  0.00    +0.000 OA
ENDBRANCH  11  13
ENDBRANCH   3   7
BRANCH   1  17
ATOM     17  C   UNL     1       6.738   4.556  13.955  0.00  0.00    +0.000 C 
BRANCH  17  18
ATOM     18  C   UNL     1       5.594   3.606  13.588  0.00  0.00    +0.000 C 
BRANCH  18  19
ATOM     19  C   UNL     1       4.924   3.998  12.270  0.00  0.00    +0.000 C 
BRANCH  19  20
ATOM     20  C   UNL     1       4.923   2.816  11.300  0.00  0.00    +0.000 C 
BRANCH  20  22
ATOM     21  C   UNL     1       7.139   1.723  10.860  0.00  0.00    +0.000 C 
ATOM     22  C   UNL     1       5.894   1.722  11.733  0.00  0.00    +0.000 C 
ENDBRANCH  20  22
ENDBRANCH  19  20
ENDBRANCH  18  19
ENDBRANCH  17  18
ENDBRANCH   1  17
TORSDOF 7
ENDMDL
MODEL 9
REMARK VINA RESULT:      -6.9      1.407      1.778
REMARK  Name = 
REMARK  9 active torsions:
REMARK  status: ('A' for Active; 'I' for Inactive)
REMARK    1  A    between atoms: C_1  and  C_2
REMARK    2  A    between atoms: C_2  and  C_3
REMARK    3  A    between atoms: C_3  and  C_4
REMARK    4  A    between atoms: C_4  and  C_5
REMARK    5  A    between atoms: C_5  and  C_6
REMARK    6  A    between atoms: C_6  and  C_7
REMARK    7  A    between atoms: N_9  and  C_10
REMARK    8  A    between atoms: C_14  and  S_15
REMARK    9  A    between atoms: S_15  and  C_16
REMARK                            x       y       z     vdW  Elec       q    Type
REMARK                         _______ _______ _______ _____ _____    ______ ____
ROOT
ATOM      1  C   UNL     1       7.178   4.114  15.926  0.00  0.00    +0.000 C 
ATOM      2  C   UNL     1       5.762   3.858  16.403  0.00  0.00    +0.000 C 
ATOM      3  N   UNL     1       5.708   4.603  17.622  0.00  0.00    +0.000 N 
ATOM      4  C   UNL     1       7.001   4.849  18.065  0.00  0.00    +0.000 C 
ATOM      5  O   UNL     1       7.362   5.348  19.120  0.00  0.00    +0.000 OA
ATOM      6  O   UNL     1       7.897   4.390  17.134  0.00  0.00    +0.000 OA
ENDROOT
BRANCH   3   7
ATOM      7  C   UNL     1       4.517   4.878  18.326  0.00  0.00    +0.000 A 
ATOM      8  C   UNL     1       4.147   6.197  18.622  0.00  0.00    +0.000 A 
ATOM      9  C   UNL     1       2.966   6.481  19.313  0.00  0.00    +0.000 A 
ATOM     10  C   UNL     1       2.151   5.444  19.754  0.00  0.00    +0.000 A 
ATOM     11  C   UNL     1       2.524   4.128  19.487  0.00  0.00    +0.000 A 
ATOM     12  C   UNL     1       3.675   3.841  18.741  0.00  0.00    +0.000 A 
BRANCH  11  13
ATOM     13  S   UNL     1       1.519   2.793  20.092  0.00  0.00    +0.000 S 
ATOM     14  C   UNL     1       2.013   2.639  21.790  0.00  0.00    +0.000 C 
ATOM     15  O   UNL     1       0.138   3.234  20.060  0.00  0.00    +0.000 OA
ATOM     16  O   UNL     1       1.933   1.590  19.393  0.00  0.00    +0.000 OA
ENDBRANCH  11  13
ENDBRANCH   3   7
BRANCH   1  17
ATOM     17  C   UNL     1       7.303   5.323  14.987  0.00  0.00    +0.000 C 
BRANCH  17  18
ATOM     18  C   UNL     1       7.320   4.880  13.521  0.00  0.00    +0.000 C 
BRANCH  18  19
ATOM     19  C   UNL     1       6.217   3.865  13.216  0.00  0.00    +0.000 C 
BRANCH  19  20
ATOM     20  C   UNL     1       6.458   3.208  11.857  0.00  0.00    +0.000 C 
BRANCH  20  22
ATOM     21  C   UNL     1       4.049   3.095  11.162  0.00  0.00    +0.000 C 
ATOM     22  C   UNL     1       5.306   2.292  11.454  0.00  0.00    +0.000 C 
ENDBRANCH  20  22
ENDBRANCH  19  20
ENDBRANCH  18  19
ENDBRANCH  17  18
ENDBRANCH   1  17
TORSDOF 7
ENDMDL
