MODEL 1
REMARK VINA RESULT:      -7.5      0.000      0.000
REMARK  Name = 
REMARK  6 active torsions:
REMARK  status: ('A' for Active; 'I' for Inactive)
REMARK    1  A    between atoms: C_1  and  O_2
REMARK    2  A    between atoms: O_2  and  C_3
REMARK    3  A    between atoms: C_9  and  C_10
REMARK    4  A    between atoms: C_19  and  C_20
REMARK    5  A    between atoms: C_20  and  O_22
REMARK    6  A    between atoms: N_23  and  C_24
REMARK                            x       y       z     vdW  Elec       q    Type
REMARK                         _______ _______ _______ _____ _____    ______ ____
ROOT
ATOM      1  C   UNL     1      -3.978  11.076  17.199  0.00  0.00    +0.000 A 
ATOM      2  C   UNL     1      -3.163  10.040  16.775  0.00  0.00    +0.000 A 
ATOM      3  C   UNL     1      -1.926   9.798  17.392  0.00  0.00    +0.000 A 
ATOM      4  C   UNL     1      -1.501  10.612  18.466  0.00  0.00    +0.000 A 
ATOM      5  C   UNL     1      -2.336  11.620  18.933  0.00  0.00    +0.000 A 
ATOM      6  C   UNL     1      -3.553  11.883  18.254  0.00  0.00    +0.000 A 
ATOM      7  C   UNL     1      -1.775  12.109  20.154  0.00  0.00    +0.000 A 
ATOM      8  C   UNL     1      -0.561  11.465  20.376  0.00  0.00    +0.000 A 
ATOM      9  N   UNL     1      -0.375  10.563  19.308  0.00  0.00    +0.000 N 
ENDROOT
BRANCH   7  10
ATOM     10  C   UNL     1      -2.466  12.973  21.101  0.00  0.00    +0.000 A 
ATOM     11  C   UNL     1      -2.335  14.380  21.130  0.00  0.00    +0.000 A 
ATOM     12  C   UNL     1      -3.102  15.142  22.024  0.00  0.00    +0.000 A 
ATOM     13  C   UNL     1      -4.033  14.477  22.795  0.00  0.00    +0.000 A 
ATOM     14  C   UNL     1      -4.126  13.107  22.791  0.00  0.00    +0.000 A 
ATOM     15  C   UNL     1      -3.322  12.332  22.007  0.00  0.00    +0.000 A 
ATOM     16  O   UNL     1      -5.143  12.645  23.564  0.00  0.00    +0.000 OA
ATOM     17  C   UNL     1      -5.849  13.882  23.766  0.00  0.00    +0.000 C 
ATOM     18  O   UNL     1      -4.996  15.035  23.579  0.00  0.00    +0.000 OA
ENDBRANCH   7  10
BRANCH   9  19
ATOM     19  C   UNL     1       0.686   9.607  19.159  0.00  0.00    +0.000 A 
ATOM     20  C   UNL     1       0.963   8.672  20.164  0.00  0.00    +0.000 A 
ATOM     21  C   UNL     1       1.950   7.700  19.976  0.00  0.00    +0.000 A 
ATOM     22  C   UNL     1       2.648   7.631  18.776  0.00  0.00    +0.000 A 
ATOM     23  C   UNL     1       2.386   8.556  17.768  0.00  0.00    +0.000 A 
ATOM     24  C   UNL     1       1.430   9.554  17.968  0.00  0.00    +0.000 A 
ENDBRANCH   9  19
BRANCH   1  26
ATOM     25  C   UNL     1      -5.885  12.492  17.296  0.00  0.00    +0.000 C 
ATOM     26  O   UNL     1      -5.222  11.376  16.715  0.00  0.00    +0.000 OA
ENDBRANCH   1  26
BRANCH   8  27
ATOM     27  C   UNL     1       0.401  11.692  21.434  0.00  0.00    +0.000 C 
ATOM     28  O   UNL     1       1.426  12.339  21.334  0.00  0.00    +0.000 OA
BRANCH  27  29
ATOM     29  O   UNL     1       0.043  11.091  22.600  0.00  0.00    +0.000 OA
ATOM     30  H   UNL     1       0.764  11.046  23.255  0.00  0.00    +0.000 HD
ENDBRANCH  27  29
ENDBRANCH   8  27
TORSDOF 5
ENDMDL
MODEL 2
REMARK VINA RESULT:      -7.2      0.856      1.568
REMARK  Name = 
REMARK  6 active torsions:
REMARK  status: ('A' for Active; 'I' for Inactive)
REMARK    1  A    between atoms: C_1  and  O_2
REMARK    2  A    between atoms: O_2  and  C_3
REMARK    3  A    between atoms: C_9  and  C_10
REMARK    4  A    between atoms: C_19  and  C_20
REMARK    5  A    between atoms: C_20  and  O_22
REMARK    6  A    between atoms: N_23  and  C_24
REMARK                            x       y       z     vdW  Elec       q    Type
REMARK                         _______ _______ _______ _____ _____    ______ ____
ROOT
ATOM      1  C   UNL     1      -4.000  11.089  17.279  0.00  0.00    +0.000 A 
ATOM      2  C   UNL     1      -3.201  10.042  16.852  0.00  0.00    +0.000 A 
ATOM      3  C   UNL     1      -1.955   9.797  17.449  0.00  0.00    +0.000 A 
ATOM      4  C   UNL     1      -1.504  10.619  18.506  0.00  0.00    +0.000 A 
ATOM      5  C   UNL     1      -2.323  11.639  18.977  0.00  0.00    +0.000 A 
ATOM      6  C   UNL     1      -3.550  11.904  18.316  0.00  0.00    +0.000 A 
ATOM      7  C   UNL     1      -1.736  12.137  20.181  0.00  0.00    +0.000 A 
ATOM      8  C   UNL     1      -0.523  11.486  20.389  0.00  0.00    +0.000 A 
ATOM      9  N   UNL     1      -0.363  10.570  19.329  0.00  0.00    +0.000 N 
ENDROOT
BRANCH   7  10
ATOM     10  C   UNL     1      -2.403  13.017  21.132  0.00  0.00    +0.000 A 
ATOM     11  C   UNL     1      -3.226  12.564  22.187  0.00  0.00    +0.000 A 
ATOM     12  C   UNL     1      -3.762  13.477  23.107  0.00  0.00    +0.000 A 
ATOM     13  C   UNL     1      -3.385  14.799  22.988  0.00  0.00    +0.000 A 
ATOM     14  C   UNL     1      -2.618  15.239  21.938  0.00  0.00    +0.000 A 
ATOM     15  C   UNL     1      -2.167  14.389  20.970  0.00  0.00    +0.000 A 
ATOM     16  O   UNL     1      -2.299  16.556  22.032  0.00  0.00    +0.000 OA
ATOM     17  C   UNL     1      -2.673  16.778  23.402  0.00  0.00    +0.000 C 
ATOM     18  O   UNL     1      -3.634  15.804  23.872  0.00  0.00    +0.000 OA
ENDBRANCH   7  10
BRANCH   9  19
ATOM     19  C   UNL     1       0.687   9.604  19.171  0.00  0.00    +0.000 A 
ATOM     20  C   UNL     1       0.967   8.672  20.176  0.00  0.00    +0.000 A 
ATOM     21  C   UNL     1       1.943   7.690  19.981  0.00  0.00    +0.000 A 
ATOM     22  C   UNL     1       2.627   7.610  18.773  0.00  0.00    +0.000 A 
ATOM     23  C   UNL     1       2.361   8.533  17.765  0.00  0.00    +0.000 A 
ATOM     24  C   UNL     1       1.416   9.540  17.972  0.00  0.00    +0.000 A 
ENDBRANCH   9  19
BRANCH   1  26
ATOM     25  C   UNL     1      -5.940  12.449  17.471  0.00  0.00    +0.000 C 
ATOM     26  O   UNL     1      -5.250  11.394  16.814  0.00  0.00    +0.000 OA
ENDBRANCH   1  26
BRANCH   8  27
ATOM     27  C   UNL     1       0.459  11.717  21.427  0.00  0.00    +0.000 C 
ATOM     28  O   UNL     1       1.478  12.370  21.307  0.00  0.00    +0.000 OA
BRANCH  27  29
ATOM     29  O   UNL     1       0.129  11.112  22.599  0.00  0.00    +0.000 OA
ATOM     30  H   UNL     1      -0.378  11.683  23.205  0.00  0.00    +0.000 HD
ENDBRANCH  27  29
ENDBRANCH   8  27
TORSDOF 5
ENDMDL
MODEL 3
REMARK VINA RESULT:      -7.0      0.864      1.084
REMARK  Name = 
REMARK  6 active torsions:
REMARK  status: ('A' for Active; 'I' for Inactive)
REMARK    1  A    between atoms: C_1  and  O_2
REMARK    2  A    between atoms: O_2  and  C_3
REMARK    3  A    between atoms: C_9  and  C_10
REMARK    4  A    between atoms: C_19  and  C_20
REMARK    5  A    between atoms: C_20  and  O_22
REMARK    6  A    between atoms: N_23  and  C_24
REMARK                            x       y       z     vdW  Elec       q    Type
REMARK                         _______ _______ _______ _____ _____    ______ ____
ROOT
ATOM      1  C   UNL     1      -4.580  11.460  17.592  0.00  0.00    +0.000 A 
ATOM      2  C   UNL     1      -3.724  10.466  17.148  0.00  0.00    +0.000 A 
ATOM      3  C   UNL     1      -2.488  10.247  17.774  0.00  0.00    +0.000 A 
ATOM      4  C   UNL     1      -2.105  11.040  18.879  0.00  0.00    +0.000 A 
ATOM      5  C   UNL     1      -2.981  12.004  19.366  0.00  0.00    +0.000 A 
ATOM      6  C   UNL     1      -4.197  12.247  18.677  0.00  0.00    +0.000 A 
ATOM      7  C   UNL     1      -2.453  12.474  20.609  0.00  0.00    +0.000 A 
ATOM      8  C   UNL     1      -1.220  11.865  20.828  0.00  0.00    +0.000 A 
ATOM      9  N   UNL     1      -0.989  11.003  19.736  0.00  0.00    +0.000 N 
ENDROOT
BRANCH   7  10
ATOM     10  C   UNL     1      -3.185  13.283  21.573  0.00  0.00    +0.000 A 
ATOM     11  C   UNL     1      -2.924  14.650  21.819  0.00  0.00    +0.000 A 
ATOM     12  C   UNL     1      -3.735  15.375  22.705  0.00  0.00    +0.000 A 
ATOM     13  C   UNL     1      -4.826  14.729  23.247  0.00  0.00    +0.000 A 
ATOM     14  C   UNL     1      -5.051  13.391  23.036  0.00  0.00    +0.000 A 
ATOM     15  C   UNL     1      -4.221  12.635  22.259  0.00  0.00    +0.000 A 
ATOM     16  O   UNL     1      -6.208  12.955  23.597  0.00  0.00    +0.000 OA
ATOM     17  C   UNL     1      -6.812  14.228  23.881  0.00  0.00    +0.000 C 
ATOM     18  O   UNL     1      -5.833  15.290  23.972  0.00  0.00    +0.000 OA
ENDBRANCH   7  10
BRANCH   9  19
ATOM     19  C   UNL     1       0.106  10.089  19.572  0.00  0.00    +0.000 A 
ATOM     20  C   UNL     1       0.416   9.150  20.562  0.00  0.00    +0.000 A 
ATOM     21  C   UNL     1       1.438   8.217  20.359  0.00  0.00    +0.000 A 
ATOM     22  C   UNL     1       2.139   8.193  19.158  0.00  0.00    +0.000 A 
ATOM     23  C   UNL     1       1.843   9.124  18.165  0.00  0.00    +0.000 A 
ATOM     24  C   UNL     1       0.851  10.082  18.381  0.00  0.00    +0.000 A 
ENDBRANCH   9  19
BRANCH   1  26
ATOM     25  C   UNL     1      -6.811  12.149  18.038  0.00  0.00    +0.000 C 
ATOM     26  O   UNL     1      -5.827  11.733  17.100  0.00  0.00    +0.000 OA
ENDBRANCH   1  26
BRANCH   8  27
ATOM     27  C   UNL     1      -0.281  12.091  21.906  0.00  0.00    +0.000 C 
ATOM     28  O   UNL     1      -0.349  11.606  23.019  0.00  0.00    +0.000 OA
BRANCH  27  29
ATOM     29  O   UNL     1       0.727  12.931  21.550  0.00  0.00    +0.000 OA
ATOM     30  H   UNL     1       1.475  12.482  21.113  0.00  0.00    +0.000 HD
ENDBRANCH  27  29
ENDBRANCH   8  27
TORSDOF 5
ENDMDL
MODEL 4
REMARK VINA RESULT:      -6.9      1.971      6.746
REMARK  Name = 
REMARK  6 active torsions:
REMARK  status: ('A' for Active; 'I' for Inactive)
REMARK    1  A    between atoms: C_1  and  O_2
REMARK    2  A    between atoms: O_2  and  C_3
REMARK    3  A    between atoms: C_9  and  C_10
REMARK    4  A    between atoms: C_19  and  C_20
REMARK    5  A    between atoms: C_20  and  O_22
REMARK    6  A    between atoms: N_23  and  C_24
REMARK                            x       y       z     vdW  Elec       q    Type
REMARK                         _______ _______ _______ _____ _____    ______ ____
ROOT
ATOM      1  C   UNL     1      -2.933  10.207  16.634  0.00  0.00    +0.000 A 
ATOM      2  C   UNL     1      -3.609  11.392  16.873  0.00  0.00    +0.000 A 
ATOM      3  C   UNL     1      -3.396  12.116  18.056  0.00  0.00    +0.000 A 
ATOM      4  C   UNL     1      -2.476  11.642  19.019  0.00  0.00    +0.000 A 
ATOM      5  C   UNL     1      -1.755  10.482  18.763  0.00  0.00    +0.000 A 
ATOM      6  C   UNL     1      -2.033   9.736  17.589  0.00  0.00    +0.000 A 
ATOM      7  C   UNL     1      -0.745  10.375  19.770  0.00  0.00    +0.000 A 
ATOM      8  C   UNL     1      -0.912  11.415  20.681  0.00  0.00    +0.000 A 
ATOM      9  N   UNL     1      -2.010  12.179  20.233  0.00  0.00    +0.000 N 
ENDROOT
BRANCH   7  10
ATOM     10  C   UNL     1       0.388   9.461  19.721  0.00  0.00    +0.000 A 
ATOM     11  C   UNL     1       0.704   8.538  20.743  0.00  0.00    +0.000 A 
ATOM     12  C   UNL     1       1.766   7.636  20.575  0.00  0.00    +0.000 A 
ATOM     13  C   UNL     1       2.417   7.634  19.359  0.00  0.00    +0.000 A 
ATOM     14  C   UNL     1       2.132   8.560  18.387  0.00  0.00    +0.000 A 
ATOM     15  C   UNL     1       1.172   9.516  18.561  0.00  0.00    +0.000 A 
ATOM     16  O   UNL     1       2.830   8.355  17.240  0.00  0.00    +0.000 OA
ATOM     17  C   UNL     1       3.313   7.027  17.508  0.00  0.00    +0.000 C 
ATOM     18  O   UNL     1       3.337   6.730  18.924  0.00  0.00    +0.000 OA
ENDBRANCH   7  10
BRANCH   9  19
ATOM     19  C   UNL     1      -2.494  13.409  20.794  0.00  0.00    +0.000 A 
ATOM     20  C   UNL     1      -1.860  14.626  20.521  0.00  0.00    +0.000 A 
ATOM     21  C   UNL     1      -2.383  15.825  21.014  0.00  0.00    +0.000 A 
ATOM     22  C   UNL     1      -3.559  15.825  21.757  0.00  0.00    +0.000 A 
ATOM     23  C   UNL     1      -4.199  14.621  22.039  0.00  0.00    +0.000 A 
ATOM     24  C   UNL     1      -3.656  13.418  21.584  0.00  0.00    +0.000 A 
ENDBRANCH   9  19
BRANCH   1  26
ATOM     25  C   UNL     1      -3.410  10.107  14.307  0.00  0.00    +0.000 C 
ATOM     26  O   UNL     1      -3.017   9.443  15.502  0.00  0.00    +0.000 OA
ENDBRANCH   1  26
BRANCH   8  27
ATOM     27  C   UNL     1      -0.184  11.667  21.906  0.00  0.00    +0.000 C 
ATOM     28  O   UNL     1      -0.495  11.266  23.011  0.00  0.00    +0.000 OA
BRANCH  27  29
ATOM     29  O   UNL     1       0.926  12.426  21.704  0.00  0.00    +0.000 OA
ATOM     30  H   UNL     1       0.919  13.268  22.196  0.00  0.00    +0.000 HD
ENDBRANCH  27  29
ENDBRANCH   8  27
TORSDOF 5
ENDMDL
MODEL 5
REMARK VINA RESULT:      -6.8      2.530      7.057
REMARK  Name = 
REMARK  6 active torsions:
REMARK  status: ('A' for Active; 'I' for Inactive)
REMARK    1  A    between atoms: C_1  and  O_2
REMARK    2  A    between atoms: O_2  and  C_3
REMARK    3  A    between atoms: C_9  and  C_10
REMARK    4  A    between atoms: C_19  and  C_20
REMARK    5  A    between atoms: C_20  and  O_22
REMARK    6  A    between atoms: N_23  and  C_24
REMARK                            x       y       z     vdW  Elec       q    Type
REMARK                         _______ _______ _______ _____ _____    ______ ____
ROOT
ATOM      1  C   UNL     1      -1.857  10.544  17.292  0.00  0.00    +0.000 A 
ATOM      2  C   UNL     1      -2.362  11.689  17.886  0.00  0.00    +0.000 A 
ATOM      3  C   UNL     1      -2.141  11.953  19.245  0.00  0.00    +0.000 A 
ATOM      4  C   UNL     1      -1.387  11.048  20.027  0.00  0.00    +0.000 A 
ATOM      5  C   UNL     1      -0.832   9.923  19.428  0.00  0.00    +0.000 A 
ATOM      6  C   UNL     1      -1.122   9.648  18.067  0.00  0.00    +0.000 A 
ATOM      7  C   UNL     1       0.062   9.332  20.374  0.00  0.00    +0.000 A 
ATOM      8  C   UNL     1      -0.020  10.041  21.569  0.00  0.00    +0.000 A 
ATOM      9  N   UNL     1      -0.948  11.083  21.364  0.00  0.00    +0.000 N 
ENDROOT
BRANCH   7  10
ATOM     10  C   UNL     1       1.043   8.301  20.062  0.00  0.00    +0.000 A 
ATOM     11  C   UNL     1       1.110   7.050  20.715  0.00  0.00    +0.000 A 
ATOM     12  C   UNL     1       2.035   6.082  20.293  0.00  0.00    +0.000 A 
ATOM     13  C   UNL     1       2.799   6.371  19.182  0.00  0.00    +0.000 A 
ATOM     14  C   UNL     1       2.758   7.603  18.578  0.00  0.00    +0.000 A 
ATOM     15  C   UNL     1       1.941   8.600  19.029  0.00  0.00    +0.000 A 
ATOM     16  O   UNL     1       3.531   7.671  17.463  0.00  0.00    +0.000 OA
ATOM     17  C   UNL     1       3.778   6.267  17.277  0.00  0.00    +0.000 C 
ATOM     18  O   UNL     1       3.611   5.515  18.502  0.00  0.00    +0.000 OA
ENDBRANCH   7  10
BRANCH   9  19
ATOM     19  C   UNL     1      -1.284  12.135  22.281  0.00  0.00    +0.000 A 
ATOM     20  C   UNL     1      -0.489  13.282  22.388  0.00  0.00    +0.000 A 
ATOM     21  C   UNL     1      -0.866  14.331  23.232  0.00  0.00    +0.000 A 
ATOM     22  C   UNL     1      -2.053  14.260  23.953  0.00  0.00    +0.000 A 
ATOM     23  C   UNL     1      -2.853  13.124  23.859  0.00  0.00    +0.000 A 
ATOM     24  C   UNL     1      -2.458  12.057  23.049  0.00  0.00    +0.000 A 
ENDBRANCH   9  19
BRANCH   1  26
ATOM     25  C   UNL     1      -3.161  10.580  15.304  0.00  0.00    +0.000 C 
ATOM     26  O   UNL     1      -1.961  10.205  15.971  0.00  0.00    +0.000 OA
ENDBRANCH   1  26
BRANCH   8  27
ATOM     27  C   UNL     1       0.633   9.763  22.831  0.00  0.00    +0.000 C 
ATOM     28  O   UNL     1       1.834   9.685  23.005  0.00  0.00    +0.000 OA
BRANCH  27  29
ATOM     29  O   UNL     1      -0.252   9.589  23.848  0.00  0.00    +0.000 OA
ATOM     30  H   UNL     1      -0.031   8.844  24.436  0.00  0.00    +0.000 HD
ENDBRANCH  27  29
ENDBRANCH   8  27
TORSDOF 5
ENDMDL
MODEL 6
REMARK VINA RESULT:      -6.7      1.170      1.964
REMARK  Name = 
REMARK  6 active torsions:
REMARK  status: ('A' for Active; 'I' for Inactive)
REMARK    1  A    between atoms: C_1  and  O_2
REMARK    2  A    between atoms: O_2  and  C_3
REMARK    3  A    between atoms: C_9  and  C_10
REMARK    4  A    between atoms: C_19  and  C_20
REMARK    5  A    between atoms: C_20  and  O_22
REMARK    6  A    between atoms: N_23  and  C_24
REMARK                            x       y       z     vdW  Elec       q    Type
REMARK                         _______ _______ _______ _____ _____    ______ ____
ROOT
ATOM      1  C   UNL     1      -4.860  11.488  18.043  0.00  0.00    +0.000 A 
ATOM      2  C   UNL     1      -4.084  10.499  17.463  0.00  0.00    +0.000 A 
ATOM      3  C   UNL     1      -2.777  10.253  17.910  0.00  0.00    +0.000 A 
ATOM      4  C   UNL     1      -2.238  11.016  18.971  0.00  0.00    +0.000 A 
ATOM      5  C   UNL     1      -3.029  11.975  19.594  0.00  0.00    +0.000 A 
ATOM      6  C   UNL     1      -4.324  12.246  19.084  0.00  0.00    +0.000 A 
ATOM      7  C   UNL     1      -2.331  12.410  20.764  0.00  0.00    +0.000 A 
ATOM      8  C   UNL     1      -1.087  11.785  20.800  0.00  0.00    +0.000 A 
ATOM      9  N   UNL     1      -1.017  10.949  19.667  0.00  0.00    +0.000 N 
ENDROOT
BRANCH   7  10
ATOM     10  C   UNL     1      -2.916  13.202  21.838  0.00  0.00    +0.000 A 
ATOM     11  C   UNL     1      -3.625  12.653  22.930  0.00  0.00    +0.000 A 
ATOM     12  C   UNL     1      -4.083  13.483  23.964  0.00  0.00    +0.000 A 
ATOM     13  C   UNL     1      -3.742  14.818  23.909  0.00  0.00    +0.000 A 
ATOM     14  C   UNL     1      -3.088  15.353  22.826  0.00  0.00    +0.000 A 
ATOM     15  C   UNL     1      -2.719  14.587  21.758  0.00  0.00    +0.000 A 
ATOM     16  O   UNL     1      -2.783  16.666  22.988  0.00  0.00    +0.000 OA
ATOM     17  C   UNL     1      -3.025  16.779  24.401  0.00  0.00    +0.000 C 
ATOM     18  O   UNL     1      -3.920  15.750  24.886  0.00  0.00    +0.000 OA
ENDBRANCH   7  10
BRANCH   9  19
ATOM     19  C   UNL     1       0.035  10.030  19.334  0.00  0.00    +0.000 A 
ATOM     20  C   UNL     1       0.704  10.111  18.107  0.00  0.00    +0.000 A 
ATOM     21  C   UNL     1       1.774   9.257  17.824  0.00  0.00    +0.000 A 
ATOM     22  C   UNL     1       2.207   8.336  18.772  0.00  0.00    +0.000 A 
ATOM     23  C   UNL     1       1.549   8.242  19.997  0.00  0.00    +0.000 A 
ATOM     24  C   UNL     1       0.454   9.065  20.265  0.00  0.00    +0.000 A 
ENDBRANCH   9  19
BRANCH   1  26
ATOM     25  C   UNL     1      -6.398  13.035  17.099  0.00  0.00    +0.000 C 
ATOM     26  O   UNL     1      -6.159  11.784  17.731  0.00  0.00    +0.000 OA
ENDBRANCH   1  26
BRANCH   8  27
ATOM     27  C   UNL     1      -0.007  11.977  21.745  0.00  0.00    +0.000 C 
ATOM     28  O   UNL     1       0.968  12.683  21.574  0.00  0.00    +0.000 OA
BRANCH  27  29
ATOM     29  O   UNL     1      -0.187  11.266  22.890  0.00  0.00    +0.000 OA
ATOM     30  H   UNL     1      -1.123  11.148  23.136  0.00  0.00    +0.000 HD
ENDBRANCH  27  29
ENDBRANCH   8  27
TORSDOF 5
ENDMDL
MODEL 7
REMARK VINA RESULT:      -6.7      0.960      1.154
REMARK  Name = 
REMARK  6 active torsions:
REMARK  status: ('A' for Active; 'I' for Inactive)
REMARK    1  A    between atoms: C_1  and  O_2
REMARK    2  A    between atoms: O_2  and  C_3
REMARK    3  A    between atoms: C_9  and  C_10
REMARK    4  A    between atoms: C_19  and  C_20
REMARK    5  A    between atoms: C_20  and  O_22
REMARK    6  A    between atoms: N_23  and  C_24
REMARK                            x       y       z     vdW  Elec       q    Type
REMARK                         _______ _______ _______ _____ _____    ______ ____
ROOT
ATOM      1  C   UNL     1      -4.232  10.949  17.778  0.00  0.00    +0.000 A 
ATOM      2  C   UNL     1      -3.533   9.808  17.422  0.00  0.00    +0.000 A 
ATOM      3  C   UNL     1      -2.198   9.630  17.814  0.00  0.00    +0.000 A 
ATOM      4  C   UNL     1      -1.551  10.618  18.589  0.00  0.00    +0.000 A 
ATOM      5  C   UNL     1      -2.261  11.742  18.996  0.00  0.00    +0.000 A 
ATOM      6  C   UNL     1      -3.590  11.928  18.536  0.00  0.00    +0.000 A 
ATOM      7  C   UNL     1      -1.454  12.436  19.951  0.00  0.00    +0.000 A 
ATOM      8  C   UNL     1      -0.226  11.786  20.053  0.00  0.00    +0.000 A 
ATOM      9  N   UNL     1      -0.275  10.680  19.180  0.00  0.00    +0.000 N 
ENDROOT
BRANCH   7  10
ATOM     10  C   UNL     1      -1.924  13.507  20.819  0.00  0.00    +0.000 A 
ATOM     11  C   UNL     1      -1.884  14.877  20.476  0.00  0.00    +0.000 A 
ATOM     12  C   UNL     1      -2.436  15.837  21.339  0.00  0.00    +0.000 A 
ATOM     13  C   UNL     1      -3.082  15.383  22.470  0.00  0.00    +0.000 A 
ATOM     14  C   UNL     1      -3.082  14.054  22.817  0.00  0.00    +0.000 A 
ATOM     15  C   UNL     1      -2.465  13.109  22.049  0.00  0.00    +0.000 A 
ATOM     16  O   UNL     1      -3.824  13.797  23.925  0.00  0.00    +0.000 OA
ATOM     17  C   UNL     1      -4.532  15.046  24.014  0.00  0.00    +0.000 C 
ATOM     18  O   UNL     1      -3.838  16.117  23.332  0.00  0.00    +0.000 OA
ENDBRANCH   7  10
BRANCH   9  19
ATOM     19  C   UNL     1       0.722   9.659  19.021  0.00  0.00    +0.000 A 
ATOM     20  C   UNL     1       0.943   8.705  20.021  0.00  0.00    +0.000 A 
ATOM     21  C   UNL     1       1.866   7.672  19.824  0.00  0.00    +0.000 A 
ATOM     22  C   UNL     1       2.552   7.564  18.620  0.00  0.00    +0.000 A 
ATOM     23  C   UNL     1       2.344   8.508  17.617  0.00  0.00    +0.000 A 
ATOM     24  C   UNL     1       1.455   9.564  17.826  0.00  0.00    +0.000 A 
ENDBRANCH   9  19
BRANCH   1  26
ATOM     25  C   UNL     1      -6.500  10.816  18.480  0.00  0.00    +0.000 C 
ATOM     26  O   UNL     1      -5.546  11.212  17.502  0.00  0.00    +0.000 OA
ENDBRANCH   1  26
BRANCH   8  27
ATOM     27  C   UNL     1       0.936  12.169  20.826  0.00  0.00    +0.000 C 
ATOM     28  O   UNL     1       1.291  11.661  21.872  0.00  0.00    +0.000 OA
BRANCH  27  29
ATOM     29  O   UNL     1       1.625  13.193  20.255  0.00  0.00    +0.000 OA
ATOM     30  H   UNL     1       2.424  13.452  20.751  0.00  0.00    +0.000 HD
ENDBRANCH  27  29
ENDBRANCH   8  27
TORSDOF 5
ENDMDL
MODEL 8
REMARK VINA RESULT:      -6.6      1.231      1.852
REMARK  Name = 
REMARK  6 active torsions:
REMARK  status: ('A' for Active; 'I' for Inactive)
REMARK    1  A    between atoms: C_1  and  O_2
REMARK    2  A    between atoms: O_2  and  C_3
REMARK    3  A    between atoms: C_9  and  C_10
REMARK    4  A    between atoms: C_19  and  C_20
REMARK    5  A    between atoms: C_20  and  O_22
REMARK    6  A    between atoms: N_23  and  C_24
REMARK                            x       y       z     vdW  Elec       q    Type
REMARK                         _______ _______ _______ _____ _____    ______ ____
ROOT
ATOM      1  C   UNL     1      -4.284  11.097  17.831  0.00  0.00    +0.000 A 
ATOM      2  C   UNL     1      -3.678   9.875  17.591  0.00  0.00    +0.000 A 
ATOM      3  C   UNL     1      -2.330   9.662  17.918  0.00  0.00    +0.000 A 
ATOM      4  C   UNL     1      -1.574  10.700  18.508  0.00  0.00    +0.000 A 
ATOM      5  C   UNL     1      -2.188  11.912  18.802  0.00  0.00    +0.000 A 
ATOM      6  C   UNL     1      -3.534  12.123  18.405  0.00  0.00    +0.000 A 
ATOM      7  C   UNL     1      -1.276  12.671  19.599  0.00  0.00    +0.000 A 
ATOM      8  C   UNL     1      -0.083  11.961  19.711  0.00  0.00    +0.000 A 
ATOM      9  N   UNL     1      -0.257  10.755  19.002  0.00  0.00    +0.000 N 
ENDROOT
BRANCH   7  10
ATOM     10  C   UNL     1      -1.621  13.877  20.340  0.00  0.00    +0.000 A 
ATOM     11  C   UNL     1      -1.220  15.179  19.964  0.00  0.00    +0.000 A 
ATOM     12  C   UNL     1      -1.668  16.293  20.690  0.00  0.00    +0.000 A 
ATOM     13  C   UNL     1      -2.567  16.069  21.712  0.00  0.00    +0.000 A 
ATOM     14  C   UNL     1      -2.920  14.800  22.099  0.00  0.00    +0.000 A 
ATOM     15  C   UNL     1      -2.421  13.692  21.476  0.00  0.00    +0.000 A 
ATOM     16  O   UNL     1      -3.863  14.788  23.076  0.00  0.00    +0.000 OA
ATOM     17  C   UNL     1      -4.276  16.164  23.004  0.00  0.00    +0.000 C 
ATOM     18  O   UNL     1      -3.261  17.009  22.412  0.00  0.00    +0.000 OA
ENDBRANCH   7  10
BRANCH   9  19
ATOM     19  C   UNL     1       0.666   9.658  18.921  0.00  0.00    +0.000 A 
ATOM     20  C   UNL     1       1.399   9.416  17.754  0.00  0.00    +0.000 A 
ATOM     21  C   UNL     1       2.348   8.390  17.712  0.00  0.00    +0.000 A 
ATOM     22  C   UNL     1       2.596   7.616  18.841  0.00  0.00    +0.000 A 
ATOM     23  C   UNL     1       1.871   7.843  20.009  0.00  0.00    +0.000 A 
ATOM     24  C   UNL     1       0.894   8.840  20.040  0.00  0.00    +0.000 A 
ENDBRANCH   9  19
BRANCH   1  26
ATOM     25  C   UNL     1      -6.558  10.777  18.444  0.00  0.00    +0.000 C 
ATOM     26  O   UNL     1      -5.597  11.407  17.606  0.00  0.00    +0.000 OA
ENDBRANCH   1  26
BRANCH   8  27
ATOM     27  C   UNL     1       1.152  12.366  20.349  0.00  0.00    +0.000 C 
ATOM     28  O   UNL     1       1.522  12.028  21.456  0.00  0.00    +0.000 OA
BRANCH  27  29
ATOM     29  O   UNL     1       1.894  13.194  19.566  0.00  0.00    +0.000 OA
ATOM     30  H   UNL     1       2.816  13.295  19.867  0.00  0.00    +0.000 HD
ENDBRANCH  27  29
ENDBRANCH   8  27
TORSDOF 5
ENDMDL
MODEL 9
REMARK VINA RESULT:      -6.6      2.749      6.481
REMARK  Name = 
REMARK  6 active torsions:
REMARK  status: ('A' for Active; 'I' for Inactive)
REMARK    1  A    between atoms: C_1  and  O_2
REMARK    2  A    between atoms: O_2  and  C_3
REMARK    3  A    between atoms: C_9  and  C_10
REMARK    4  A    between atoms: C_19  and  C_20
REMARK    5  A    between atoms: C_20  and  O_22
REMARK    6  A    between atoms: N_23  and  C_24
REMARK                            x       y       z     vdW  Elec       q    Type
REMARK                         _______ _______ _______ _____ _____    ______ ____
ROOT
ATOM      1  C   UNL     1      -3.112  10.806  16.250  0.00  0.00    +0.000 A 
ATOM      2  C   UNL     1      -4.458  11.032  16.480  0.00  0.00    +0.000 A 
ATOM      3  C   UNL     1      -4.897  11.604  17.684  0.00  0.00    +0.000 A 
ATOM      4  C   UNL     1      -3.960  11.965  18.678  0.00  0.00    +0.000 A 
ATOM      5  C   UNL     1      -2.602  11.791  18.433  0.00  0.00    +0.000 A 
ATOM      6  C   UNL     1      -2.189  11.155  17.235  0.00  0.00    +0.000 A 
ATOM      7  C   UNL     1      -1.891  12.454  19.482  0.00  0.00    +0.000 A 
ATOM      8  C   UNL     1      -2.811  12.948  20.403  0.00  0.00    +0.000 A 
ATOM      9  N   UNL     1      -4.093  12.611  19.921  0.00  0.00    +0.000 N 
ENDROOT
BRANCH   7  10
ATOM     10  C   UNL     1      -0.463  12.744  19.466  0.00  0.00    +0.000 A 
ATOM     11  C   UNL     1       0.541  11.791  19.748  0.00  0.00    +0.000 A 
ATOM     12  C   UNL     1       1.896  12.135  19.628  0.00  0.00    +0.000 A 
ATOM     13  C   UNL     1       2.194  13.394  19.149  0.00  0.00    +0.000 A 
ATOM     14  C   UNL     1       1.216  14.329  18.917  0.00  0.00    +0.000 A 
ATOM     15  C   UNL     1      -0.106  14.055  19.122  0.00  0.00    +0.000 A 
ATOM     16  O   UNL     1       1.701  15.482  18.387  0.00  0.00    +0.000 OA
ATOM     17  C   UNL     1       3.014  15.024  18.023  0.00  0.00    +0.000 C 
ATOM     18  O   UNL     1       3.420  13.862  18.784  0.00  0.00    +0.000 OA
ENDBRANCH   7  10
BRANCH   9  19
ATOM     19  C   UNL     1      -5.356  12.998  20.482  0.00  0.00    +0.000 A 
ATOM     20  C   UNL     1      -5.883  14.276  20.262  0.00  0.00    +0.000 A 
ATOM     21  C   UNL     1      -7.147  14.617  20.752  0.00  0.00    +0.000 A 
ATOM     22  C   UNL     1      -7.910  13.679  21.439  0.00  0.00    +0.000 A 
ATOM     23  C   UNL     1      -7.398  12.404  21.668  0.00  0.00    +0.000 A 
ATOM     24  C   UNL     1      -6.119  12.074  21.216  0.00  0.00    +0.000 A 
ENDBRANCH   9  19
BRANCH   1  26
ATOM     25  C   UNL     1      -3.450  10.050  14.021  0.00  0.00    +0.000 C 
ATOM     26  O   UNL     1      -2.561  10.306  15.102  0.00  0.00    +0.000 OA
ENDBRANCH   1  26
BRANCH   8  27
ATOM     27  C   UNL     1      -2.558  13.613  21.663  0.00  0.00    +0.000 C 
ATOM     28  O   UNL     1      -2.561  14.815  21.843  0.00  0.00    +0.000 OA
BRANCH  27  29
ATOM     29  O   UNL     1      -2.305  12.737  22.672  0.00  0.00    +0.000 OA
ATOM     30  H   UNL     1      -2.629  11.834  22.497  0.00  0.00    +0.000 HD
ENDBRANCH  27  29
ENDBRANCH   8  27
TORSDOF 5
ENDMDL
