MODEL 1
REMARK VINA RESULT:      -7.1      0.000      0.000
REMARK  Name = 
REMARK  2 active torsions:
REMARK  status: ('A' for Active; 'I' for Inactive)
REMARK    1  A    between atoms: C_1  and  N_2
REMARK    2  A    between atoms: N_5  and  C_6
REMARK                            x       y       z     vdW  Elec       q    Type
REMARK                         _______ _______ _______ _____ _____    ______ ____
ROOT
ATOM      1  C   UNL     1       5.512   4.611  18.618  0.00  0.00    +0.000 A 
ATOM      2  N   UNL     1       6.297   5.175  19.549  0.00  0.00    +0.000 NA
ATOM      3  C   UNL     1       7.450   5.701  19.116  0.00  0.00    +0.000 A 
ATOM      4  N   UNL     1       7.897   5.725  17.853  0.00  0.00    +0.000 NA
ATOM      5  C   UNL     1       7.093   5.194  16.927  0.00  0.00    +0.000 A 
ATOM      6  C   UNL     1       7.479   5.225  15.592  0.00  0.00    +0.000 A 
ATOM      7  C   UNL     1       6.675   4.712  14.566  0.00  0.00    +0.000 A 
ATOM      8  C   UNL     1       5.438   4.168  14.871  0.00  0.00    +0.000 A 
ATOM      9  C   UNL     1       5.030   4.139  16.195  0.00  0.00    +0.000 A 
ATOM     10  C   UNL     1       5.856   4.618  17.247  0.00  0.00    +0.000 A 
ENDROOT
BRANCH   1  15
ATOM     11  C   UNL     1       0.484   2.397  19.262  0.00  0.00    +0.000 C 
ATOM     12  N   UNL     1       1.758   2.921  19.752  0.00  0.00    +0.000 NA
ATOM     13  C   UNL     1       1.910   4.350  19.359  0.00  0.00    +0.000 C 
ATOM     14  C   UNL     1       3.312   4.940  19.671  0.00  0.00    +0.000 C 
ATOM     15  N   UNL     1       4.292   4.077  19.008  0.00  0.00    +0.000 N 
ATOM     16  C   UNL     1       4.267   2.710  19.547  0.00  0.00    +0.000 C 
ATOM     17  C   UNL     1       2.880   2.112  19.213  0.00  0.00    +0.000 C 
ENDBRANCH   1  15
TORSDOF 1
ENDMDL
MODEL 2
REMARK VINA RESULT:      -6.9      1.717      5.760
REMARK  Name = 
REMARK  2 active torsions:
REMARK  status: ('A' for Active; 'I' for Inactive)
REMARK    1  A    between atoms: C_1  and  N_2
REMARK    2  A    between atoms: N_5  and  C_6
REMARK                            x       y       z     vdW  Elec       q    Type
REMARK                         _______ _______ _______ _____ _____    ______ ____
ROOT
ATOM      1  C   UNL     1       4.274   3.953  18.084  0.00  0.00    +0.000 A 
ATOM      2  N   UNL     1       4.337   2.756  17.480  0.00  0.00    +0.000 NA
ATOM      3  C   UNL     1       3.380   1.876  17.802  0.00  0.00    +0.000 A 
ATOM      4  N   UNL     1       2.369   2.069  18.659  0.00  0.00    +0.000 NA
ATOM      5  C   UNL     1       2.293   3.275  19.229  0.00  0.00    +0.000 A 
ATOM      6  C   UNL     1       1.242   3.553  20.096  0.00  0.00    +0.000 A 
ATOM      7  C   UNL     1       1.085   4.804  20.708  0.00  0.00    +0.000 A 
ATOM      8  C   UNL     1       1.987   5.819  20.434  0.00  0.00    +0.000 A 
ATOM      9  C   UNL     1       3.033   5.564  19.563  0.00  0.00    +0.000 A 
ATOM     10  C   UNL     1       3.227   4.288  18.971  0.00  0.00    +0.000 A 
ENDROOT
BRANCH   1  15
ATOM     11  C   UNL     1       7.780   8.203  17.584  0.00  0.00    +0.000 C 
ATOM     12  N   UNL     1       7.209   6.920  17.177  0.00  0.00    +0.000 NA
ATOM     13  C   UNL     1       5.768   7.085  16.836  0.00  0.00    +0.000 C 
ATOM     14  C   UNL     1       5.029   5.744  16.574  0.00  0.00    +0.000 C 
ATOM     15  N   UNL     1       5.225   4.913  17.764  0.00  0.00    +0.000 N 
ATOM     16  C   UNL     1       6.642   4.591  17.978  0.00  0.00    +0.000 C 
ATOM     17  C   UNL     1       7.374   5.924  18.266  0.00  0.00    +0.000 C 
ENDBRANCH   1  15
TORSDOF 1
ENDMDL
MODEL 3
REMARK VINA RESULT:      -6.7      1.011      1.052
REMARK  Name = 
REMARK  2 active torsions:
REMARK  status: ('A' for Active; 'I' for Inactive)
REMARK    1  A    between atoms: C_1  and  N_2
REMARK    2  A    between atoms: N_5  and  C_6
REMARK                            x       y       z     vdW  Elec       q    Type
REMARK                         _______ _______ _______ _____ _____    ______ ____
ROOT
ATOM      1  C   UNL     1       5.356   5.057  17.645  0.00  0.00    +0.000 A 
ATOM      2  N   UNL     1       6.035   5.914  18.423  0.00  0.00    +0.000 NA
ATOM      3  C   UNL     1       7.131   6.466  17.885  0.00  0.00    +0.000 A 
ATOM      4  N   UNL     1       7.614   6.253  16.654  0.00  0.00    +0.000 NA
ATOM      5  C   UNL     1       6.912   5.426  15.873  0.00  0.00    +0.000 A 
ATOM      6  C   UNL     1       7.337   5.197  14.570  0.00  0.00    +0.000 A 
ATOM      7  C   UNL     1       6.636   4.365  13.688  0.00  0.00    +0.000 A 
ATOM      8  C   UNL     1       5.464   3.757  14.105  0.00  0.00    +0.000 A 
ATOM      9  C   UNL     1       5.017   3.983  15.396  0.00  0.00    +0.000 A 
ATOM     10  C   UNL     1       5.743   4.791  16.312  0.00  0.00    +0.000 A 
ENDROOT
BRANCH   1  15
ATOM     11  C   UNL     1       0.737   2.257  18.843  0.00  0.00    +0.000 C 
ATOM     12  N   UNL     1       1.805   3.212  19.137  0.00  0.00    +0.000 NA
ATOM     13  C   UNL     1       1.777   4.333  18.156  0.00  0.00    +0.000 C 
ATOM     14  C   UNL     1       2.988   5.298  18.273  0.00  0.00    +0.000 C 
ATOM     15  N   UNL     1       4.195   4.480  18.142  0.00  0.00    +0.000 N 
ATOM     16  C   UNL     1       4.313   3.503  19.234  0.00  0.00    +0.000 C 
ATOM     17  C   UNL     1       3.121   2.526  19.103  0.00  0.00    +0.000 C 
ENDBRANCH   1  15
TORSDOF 1
ENDMDL
MODEL 4
REMARK VINA RESULT:      -6.7      1.699      5.547
REMARK  Name = 
REMARK  2 active torsions:
REMARK  status: ('A' for Active; 'I' for Inactive)
REMARK    1  A    between atoms: C_1  and  N_2
REMARK    2  A    between atoms: N_5  and  C_6
REMARK                            x       y       z     vdW  Elec       q    Type
REMARK                         _______ _______ _______ _____ _____    ______ ____
ROOT
ATOM      1  C   UNL     1       3.487   5.511  18.564  0.00  0.00    +0.000 A 
ATOM      2  N   UNL     1       3.310   6.570  19.370  0.00  0.00    +0.000 NA
ATOM      3  C   UNL     1       2.305   6.486  20.251  0.00  0.00    +0.000 A 
ATOM      4  N   UNL     1       1.464   5.456  20.413  0.00  0.00    +0.000 NA
ATOM      5  C   UNL     1       1.669   4.391  19.631  0.00  0.00    +0.000 A 
ATOM      6  C   UNL     1       0.857   3.272  19.779  0.00  0.00    +0.000 A 
ATOM      7  C   UNL     1       1.032   2.112  19.013  0.00  0.00    +0.000 A 
ATOM      8  C   UNL     1       2.059   2.051  18.086  0.00  0.00    +0.000 A 
ATOM      9  C   UNL     1       2.887   3.151  17.934  0.00  0.00    +0.000 A 
ATOM     10  C   UNL     1       2.692   4.348  18.674  0.00  0.00    +0.000 A 
ENDROOT
BRANCH   1  15
ATOM     11  C   UNL     1       7.182   4.934  14.488  0.00  0.00    +0.000 C 
ATOM     12  N   UNL     1       6.654   5.558  15.700  0.00  0.00    +0.000 NA
ATOM     13  C   UNL     1       6.584   4.559  16.803  0.00  0.00    +0.000 C 
ATOM     14  C   UNL     1       5.861   5.081  18.075  0.00  0.00    +0.000 C 
ATOM     15  N   UNL     1       4.533   5.533  17.652  0.00  0.00    +0.000 N 
ATOM     16  C   UNL     1       4.615   6.657  16.709  0.00  0.00    +0.000 C 
ATOM     17  C   UNL     1       5.311   6.131  15.431  0.00  0.00    +0.000 C 
ENDBRANCH   1  15
TORSDOF 1
ENDMDL
MODEL 5
REMARK VINA RESULT:      -6.7      0.850      1.448
REMARK  Name = 
REMARK  2 active torsions:
REMARK  status: ('A' for Active; 'I' for Inactive)
REMARK    1  A    between atoms: C_1  and  N_2
REMARK    2  A    between atoms: N_5  and  C_6
REMARK                            x       y       z     vdW  Elec       q    Type
REMARK                         _______ _______ _______ _____ _____    ______ ____
ROOT
ATOM      1  C   UNL     1       5.632   4.678  18.815  0.00  0.00    +0.000 A 
ATOM      2  N   UNL     1       6.495   5.298  19.636  0.00  0.00    +0.000 NA
ATOM      3  C   UNL     1       7.579   5.837  19.062  0.00  0.00    +0.000 A 
ATOM      4  N   UNL     1       7.887   5.824  17.759  0.00  0.00    +0.000 NA
ATOM      5  C   UNL     1       7.005   5.236  16.944  0.00  0.00    +0.000 A 
ATOM      6  C   UNL     1       7.246   5.227  15.575  0.00  0.00    +0.000 A 
ATOM      7  C   UNL     1       6.353   4.653  14.661  0.00  0.00    +0.000 A 
ATOM      8  C   UNL     1       5.172   4.090  15.117  0.00  0.00    +0.000 A 
ATOM      9  C   UNL     1       4.909   4.102  16.476  0.00  0.00    +0.000 A 
ATOM     10  C   UNL     1       5.827   4.642  17.416  0.00  0.00    +0.000 A 
ENDROOT
BRANCH   1  15
ATOM     11  C   UNL     1       1.341   2.817  21.769  0.00  0.00    +0.000 C 
ATOM     12  N   UNL     1       2.076   3.045  20.526  0.00  0.00    +0.000 NA
ATOM     13  C   UNL     1       3.386   2.336  20.566  0.00  0.00    +0.000 C 
ATOM     14  C   UNL     1       4.317   2.673  19.370  0.00  0.00    +0.000 C 
ATOM     15  N   UNL     1       4.476   4.128  19.353  0.00  0.00    +0.000 N 
ATOM     16  C   UNL     1       3.199   4.814  19.113  0.00  0.00    +0.000 C 
ATOM     17  C   UNL     1       2.280   4.501  20.318  0.00  0.00    +0.000 C 
ENDBRANCH   1  15
TORSDOF 1
ENDMDL
MODEL 6
REMARK VINA RESULT:      -6.3      1.512      2.983
REMARK  Name = 
REMARK  2 active torsions:
REMARK  status: ('A' for Active; 'I' for Inactive)
REMARK    1  A    between atoms: C_1  and  N_2
REMARK    2  A    between atoms: N_5  and  C_6
REMARK                            x       y       z     vdW  Elec       q    Type
REMARK                         _______ _______ _______ _____ _____    ______ ____
ROOT
ATOM      1  C   UNL     1       4.571   4.533  17.163  0.00  0.00    +0.000 A 
ATOM      2  N   UNL     1       4.404   4.419  15.836  0.00  0.00    +0.000 NA
ATOM      3  C   UNL     1       5.344   4.985  15.067  0.00  0.00    +0.000 A 
ATOM      4  N   UNL     1       6.430   5.648  15.486  0.00  0.00    +0.000 NA
ATOM      5  C   UNL     1       6.607   5.726  16.808  0.00  0.00    +0.000 A 
ATOM      6  C   UNL     1       7.738   6.364  17.307  0.00  0.00    +0.000 A 
ATOM      7  C   UNL     1       8.001   6.459  18.679  0.00  0.00    +0.000 A 
ATOM      8  C   UNL     1       7.127   5.885  19.586  0.00  0.00    +0.000 A 
ATOM      9  C   UNL     1       6.001   5.234  19.108  0.00  0.00    +0.000 A 
ATOM     10  C   UNL     1       5.702   5.168  17.721  0.00  0.00    +0.000 A 
ENDROOT
BRANCH   1  15
ATOM     11  C   UNL     1       1.294   2.639  21.198  0.00  0.00    +0.000 C 
ATOM     12  N   UNL     1       1.715   2.770  19.803  0.00  0.00    +0.000 NA
ATOM     13  C   UNL     1       3.091   2.226  19.629  0.00  0.00    +0.000 C 
ATOM     14  C   UNL     1       3.696   2.492  18.224  0.00  0.00    +0.000 C 
ATOM     15  N   UNL     1       3.641   3.939  18.006  0.00  0.00    +0.000 N 
ATOM     16  C   UNL     1       2.258   4.435  17.982  0.00  0.00    +0.000 C 
ATOM     17  C   UNL     1       1.663   4.195  19.390  0.00  0.00    +0.000 C 
ENDBRANCH   1  15
TORSDOF 1
ENDMDL
MODEL 7
REMARK VINA RESULT:      -6.3      1.953      5.666
REMARK  Name = 
REMARK  2 active torsions:
REMARK  status: ('A' for Active; 'I' for Inactive)
REMARK    1  A    between atoms: C_1  and  N_2
REMARK    2  A    between atoms: N_5  and  C_6
REMARK                            x       y       z     vdW  Elec       q    Type
REMARK                         _______ _______ _______ _____ _____    ______ ____
ROOT
ATOM      1  C   UNL     1       3.638   5.929  18.788  0.00  0.00    +0.000 A 
ATOM      2  N   UNL     1       3.023   7.108  18.972  0.00  0.00    +0.000 NA
ATOM      3  C   UNL     1       2.077   7.144  19.919  0.00  0.00    +0.000 A 
ATOM      4  N   UNL     1       1.685   6.129  20.700  0.00  0.00    +0.000 NA
ATOM      5  C   UNL     1       2.327   4.968  20.535  0.00  0.00    +0.000 A 
ATOM      6  C   UNL     1       1.996   3.887  21.345  0.00  0.00    +0.000 A 
ATOM      7  C   UNL     1       2.645   2.650  21.245  0.00  0.00    +0.000 A 
ATOM      8  C   UNL     1       3.670   2.485  20.329  0.00  0.00    +0.000 A 
ATOM      9  C   UNL     1       4.022   3.555  19.522  0.00  0.00    +0.000 A 
ATOM     10  C   UNL     1       3.342   4.800  19.585  0.00  0.00    +0.000 A 
ENDROOT
BRANCH   1  15
ATOM     11  C   UNL     1       7.249   4.798  14.752  0.00  0.00    +0.000 C 
ATOM     12  N   UNL     1       6.694   5.629  15.820  0.00  0.00    +0.000 NA
ATOM     13  C   UNL     1       6.764   4.906  17.121  0.00  0.00    +0.000 C 
ATOM     14  C   UNL     1       6.028   5.631  18.280  0.00  0.00    +0.000 C 
ATOM     15  N   UNL     1       4.648   5.843  17.839  0.00  0.00    +0.000 N 
ATOM     16  C   UNL     1       4.580   6.725  16.665  0.00  0.00    +0.000 C 
ATOM     17  C   UNL     1       5.290   5.991  15.502  0.00  0.00    +0.000 C 
ENDBRANCH   1  15
TORSDOF 1
ENDMDL
MODEL 8
REMARK VINA RESULT:      -6.3      2.373      5.445
REMARK  Name = 
REMARK  2 active torsions:
REMARK  status: ('A' for Active; 'I' for Inactive)
REMARK    1  A    between atoms: C_1  and  N_2
REMARK    2  A    between atoms: N_5  and  C_6
REMARK                            x       y       z     vdW  Elec       q    Type
REMARK                         _______ _______ _______ _____ _____    ______ ____
ROOT
ATOM      1  C   UNL     1       3.725   5.291  18.866  0.00  0.00    +0.000 A 
ATOM      2  N   UNL     1       3.437   4.377  19.807  0.00  0.00    +0.000 NA
ATOM      3  C   UNL     1       2.522   4.730  20.719  0.00  0.00    +0.000 A 
ATOM      4  N   UNL     1       1.865   5.896  20.786  0.00  0.00    +0.000 NA
ATOM      5  C   UNL     1       2.132   6.786  19.826  0.00  0.00    +0.000 A 
ATOM      6  C   UNL     1       1.452   7.999  19.815  0.00  0.00    +0.000 A 
ATOM      7  C   UNL     1       1.661   8.967  18.824  0.00  0.00    +0.000 A 
ATOM      8  C   UNL     1       2.557   8.716  17.799  0.00  0.00    +0.000 A 
ATOM      9  C   UNL     1       3.235   7.508  17.785  0.00  0.00    +0.000 A 
ATOM     10  C   UNL     1       3.062   6.537  18.808  0.00  0.00    +0.000 A 
ENDROOT
BRANCH   1  15
ATOM     11  C   UNL     1       7.162   4.813  14.558  0.00  0.00    +0.000 C 
ATOM     12  N   UNL     1       6.571   4.368  15.819  0.00  0.00    +0.000 NA
ATOM     13  C   UNL     1       5.109   4.140  15.649  0.00  0.00    +0.000 C 
ATOM     14  C   UNL     1       4.362   3.846  16.978  0.00  0.00    +0.000 C 
ATOM     15  N   UNL     1       4.645   4.965  17.879  0.00  0.00    +0.000 N 
ATOM     16  C   UNL     1       6.076   5.059  18.199  0.00  0.00    +0.000 C 
ATOM     17  C   UNL     1       6.819   5.378  16.879  0.00  0.00    +0.000 C 
ENDBRANCH   1  15
TORSDOF 1
ENDMDL
MODEL 9
REMARK VINA RESULT:      -6.2      1.791      5.764
REMARK  Name = 
REMARK  2 active torsions:
REMARK  status: ('A' for Active; 'I' for Inactive)
REMARK    1  A    between atoms: C_1  and  N_2
REMARK    2  A    between atoms: N_5  and  C_6
REMARK                            x       y       z     vdW  Elec       q    Type
REMARK                         _______ _______ _______ _____ _____    ______ ____
ROOT
ATOM      1  C   UNL     1       4.882   4.376  19.167  0.00  0.00    +0.000 A 
ATOM      2  N   UNL     1       5.232   3.079  19.180  0.00  0.00    +0.000 NA
ATOM      3  C   UNL     1       4.356   2.233  19.737  0.00  0.00    +0.000 A 
ATOM      4  N   UNL     1       3.170   2.545  20.277  0.00  0.00    +0.000 NA
ATOM      5  C   UNL     1       2.814   3.832  20.227  0.00  0.00    +0.000 A 
ATOM      6  C   UNL     1       1.576   4.215  20.732  0.00  0.00    +0.000 A 
ATOM      7  C   UNL     1       1.127   5.541  20.688  0.00  0.00    +0.000 A 
ATOM      8  C   UNL     1       1.920   6.516  20.106  0.00  0.00    +0.000 A 
ATOM      9  C   UNL     1       3.151   6.151  19.587  0.00  0.00    +0.000 A 
ATOM     10  C   UNL     1       3.635   4.818  19.664  0.00  0.00    +0.000 A 
ENDROOT
BRANCH   1  15
ATOM     11  C   UNL     1       8.008   8.612  17.468  0.00  0.00    +0.000 C 
ATOM     12  N   UNL     1       7.533   7.229  17.417  0.00  0.00    +0.000 NA
ATOM     13  C   UNL     1       6.074   7.199  17.117  0.00  0.00    +0.000 C 
ATOM     14  C   UNL     1       5.441   5.786  17.228  0.00  0.00    +0.000 C 
ATOM     15  N   UNL     1       5.740   5.292  18.574  0.00  0.00    +0.000 N 
ATOM     16  C   UNL     1       7.185   5.138  18.791  0.00  0.00    +0.000 C 
ATOM     17  C   UNL     1       7.813   6.549  18.706  0.00  0.00    +0.000 C 
ENDBRANCH   1  15
TORSDOF 1
ENDMDL
