MODEL 1
REMARK VINA RESULT:      -7.8      0.000      0.000
REMARK  Name = 
REMARK  6 active torsions:
REMARK  status: ('A' for Active; 'I' for Inactive)
REMARK    1  A    between atoms: C_1  and  C_2
REMARK    2  A    between atoms: N_4  and  C_5
REMARK    3  A    between atoms: C_5  and  C_6
REMARK    4  A    between atoms: C_14  and  C_15
REMARK    5  A    between atoms: C_15  and  C_16
REMARK    6  A    between atoms: N_18  and  C_19
REMARK                            x       y       z     vdW  Elec       q    Type
REMARK                         _______ _______ _______ _____ _____    ______ ____
ROOT
ATOM      1  C   UNL     1       7.279   4.178  15.996  0.00  0.00    +0.000 C 
ATOM      2  C   UNL     1       6.663   5.579  15.981  0.00  0.00    +0.000 C 
ATOM      3  C   UNL     1       5.146   5.531  15.832  0.00  0.00    +0.000 C 
ATOM      4  N   UNL     1       4.660   5.559  17.189  0.00  0.00    +0.000 N 
ATOM      5  C   UNL     1       5.617   5.979  18.095  0.00  0.00    +0.000 C 
ATOM      6  O   UNL     1       5.453   6.175  19.289  0.00  0.00    +0.000 OA
ATOM      7  C   UNL     1       6.878   6.300  17.332  0.00  0.00    +0.000 C 
ENDROOT
BRANCH   4   8
ATOM      8  C   UNL     1       3.247   5.522  17.504  0.00  0.00    +0.000 C 
BRANCH   8   9
ATOM      9  C   UNL     1       2.758   4.173  17.960  0.00  0.00    +0.000 A 
ATOM     10  C   UNL     1       3.566   3.035  17.820  0.00  0.00    +0.000 A 
ATOM     11  C   UNL     1       3.152   1.806  18.336  0.00  0.00    +0.000 A 
ATOM     12  C   UNL     1       1.930   1.702  18.999  0.00  0.00    +0.000 A 
ATOM     13  C   UNL     1       1.115   2.824  19.136  0.00  0.00    +0.000 A 
ATOM     14  C   UNL     1       1.526   4.054  18.618  0.00  0.00    +0.000 A 
ENDBRANCH   8   9
ENDBRANCH   4   8
BRANCH   7  15
ATOM     15  C   UNL     1       6.967   7.826  17.207  0.00  0.00    +0.000 C 
BRANCH  15  16
ATOM     16  C   UNL     1       8.049   8.373  18.110  0.00  0.00    +0.000 C 
ATOM     17  O   UNL     1       8.707   7.631  18.832  0.00  0.00    +0.000 OA
ATOM     18  N   UNL     1       8.196   9.745  18.018  0.00  0.00    +0.000 N 
ATOM     19  H   UNL     1       7.429  10.275  17.623  0.00  0.00    +0.000 HD
BRANCH  18  20
ATOM     20  C   UNL     1       9.239  10.479  18.628  0.00  0.00    +0.000 A 
ATOM     21  C   UNL     1      10.329  10.979  17.908  0.00  0.00    +0.000 A 
ATOM     22  C   UNL     1      11.358  11.666  18.552  0.00  0.00    +0.000 A 
ATOM     23  C   UNL     1      11.304  11.870  19.926  0.00  0.00    +0.000 A 
ATOM     24  C   UNL     1      10.206  11.407  20.649  0.00  0.00    +0.000 A 
ATOM     25  C   UNL     1       9.169  10.723  20.004  0.00  0.00    +0.000 A 
ENDBRANCH  18  20
ENDBRANCH  15  16
ENDBRANCH   7  15
TORSDOF 5
ENDMDL
MODEL 2
REMARK VINA RESULT:      -7.7      1.590      2.790
REMARK  Name = 
REMARK  6 active torsions:
REMARK  status: ('A' for Active; 'I' for Inactive)
REMARK    1  A    between atoms: C_1  and  C_2
REMARK    2  A    between atoms: N_4  and  C_5
REMARK    3  A    between atoms: C_5  and  C_6
REMARK    4  A    between atoms: C_14  and  C_15
REMARK    5  A    between atoms: C_15  and  C_16
REMARK    6  A    between atoms: N_18  and  C_19
REMARK                            x       y       z     vdW  Elec       q    Type
REMARK                         _______ _______ _______ _____ _____    ______ ____
ROOT
ATOM      1  C   UNL     1       7.190   4.419  15.533  0.00  0.00    +0.000 C 
ATOM      2  C   UNL     1       6.504   5.760  15.806  0.00  0.00    +0.000 C 
ATOM      3  C   UNL     1       4.994   5.608  15.942  0.00  0.00    +0.000 C 
ATOM      4  N   UNL     1       4.784   5.450  17.360  0.00  0.00    +0.000 N 
ATOM      5  C   UNL     1       5.875   5.844  18.112  0.00  0.00    +0.000 C 
ATOM      6  O   UNL     1       5.940   5.895  19.331  0.00  0.00    +0.000 OA
ATOM      7  C   UNL     1       6.941   6.345  17.170  0.00  0.00    +0.000 C 
ENDROOT
BRANCH   4   8
ATOM      8  C   UNL     1       3.466   5.268  17.930  0.00  0.00    +0.000 C 
BRANCH   8   9
ATOM      9  C   UNL     1       2.868   6.524  18.504  0.00  0.00    +0.000 A 
ATOM     10  C   UNL     1       2.696   7.664  17.704  0.00  0.00    +0.000 A 
ATOM     11  C   UNL     1       2.048   8.792  18.209  0.00  0.00    +0.000 A 
ATOM     12  C   UNL     1       1.564   8.793  19.516  0.00  0.00    +0.000 A 
ATOM     13  C   UNL     1       1.736   7.670  20.323  0.00  0.00    +0.000 A 
ATOM     14  C   UNL     1       2.386   6.541  19.821  0.00  0.00    +0.000 A 
ENDBRANCH   8   9
ENDBRANCH   4   8
BRANCH   7  15
ATOM     15  C   UNL     1       6.917   7.878  17.217  0.00  0.00    +0.000 C 
BRANCH  15  16
ATOM     16  C   UNL     1       8.020   8.401  18.109  0.00  0.00    +0.000 C 
ATOM     17  O   UNL     1       8.688   7.641  18.802  0.00  0.00    +0.000 OA
ATOM     18  N   UNL     1       8.172   9.774  18.042  0.00  0.00    +0.000 N 
ATOM     19  H   UNL     1       7.400  10.315  17.673  0.00  0.00    +0.000 HD
BRANCH  18  20
ATOM     20  C   UNL     1       9.231  10.490  18.646  0.00  0.00    +0.000 A 
ATOM     21  C   UNL     1       9.316  10.682  20.029  0.00  0.00    +0.000 A 
ATOM     22  C   UNL     1      10.355  11.428  20.585  0.00  0.00    +0.000 A 
ATOM     23  C   UNL     1      11.330  11.983  19.763  0.00  0.00    +0.000 A 
ATOM     24  C   UNL     1      11.274  11.770  18.388  0.00  0.00    +0.000 A 
ATOM     25  C   UNL     1      10.236  11.016  17.828  0.00  0.00    +0.000 A 
ENDBRANCH  18  20
ENDBRANCH  15  16
ENDBRANCH   7  15
TORSDOF 5
ENDMDL
MODEL 3
REMARK VINA RESULT:      -7.7      1.549      2.805
REMARK  Name = 
REMARK  6 active torsions:
REMARK  status: ('A' for Active; 'I' for Inactive)
REMARK    1  A    between atoms: C_1  and  C_2
REMARK    2  A    between atoms: N_4  and  C_5
REMARK    3  A    between atoms: C_5  and  C_6
REMARK    4  A    between atoms: C_14  and  C_15
REMARK    5  A    between atoms: C_15  and  C_16
REMARK    6  A    between atoms: N_18  and  C_19
REMARK                            x       y       z     vdW  Elec       q    Type
REMARK                         _______ _______ _______ _____ _____    ______ ____
ROOT
ATOM      1  C   UNL     1       7.287   4.313  15.759  0.00  0.00    +0.000 C 
ATOM      2  C   UNL     1       6.564   5.632  16.044  0.00  0.00    +0.000 C 
ATOM      3  C   UNL     1       5.067   5.428  16.244  0.00  0.00    +0.000 C 
ATOM      4  N   UNL     1       4.921   5.282  17.670  0.00  0.00    +0.000 N 
ATOM      5  C   UNL     1       6.026   5.725  18.373  0.00  0.00    +0.000 C 
ATOM      6  O   UNL     1       6.138   5.794  19.587  0.00  0.00    +0.000 OA
ATOM      7  C   UNL     1       7.034   6.250  17.381  0.00  0.00    +0.000 C 
ENDROOT
BRANCH   4   8
ATOM      8  C   UNL     1       3.634   5.059  18.296  0.00  0.00    +0.000 C 
BRANCH   8   9
ATOM      9  C   UNL     1       2.883   6.323  18.617  0.00  0.00    +0.000 A 
ATOM     10  C   UNL     1       2.362   6.539  19.901  0.00  0.00    +0.000 A 
ATOM     11  C   UNL     1       1.757   7.755  20.225  0.00  0.00    +0.000 A 
ATOM     12  C   UNL     1       1.668   8.766  19.270  0.00  0.00    +0.000 A 
ATOM     13  C   UNL     1       2.175   8.561  17.989  0.00  0.00    +0.000 A 
ATOM     14  C   UNL     1       2.778   7.345  17.662  0.00  0.00    +0.000 A 
ENDBRANCH   8   9
ENDBRANCH   4   8
BRANCH   7  15
ATOM     15  C   UNL     1       6.956   7.782  17.411  0.00  0.00    +0.000 C 
BRANCH  15  16
ATOM     16  C   UNL     1       8.076   8.357  18.248  0.00  0.00    +0.000 C 
ATOM     17  O   UNL     1       8.783   7.634  18.942  0.00  0.00    +0.000 OA
ATOM     18  N   UNL     1       8.196   9.730  18.131  0.00  0.00    +0.000 N 
ATOM     19  H   UNL     1       7.401  10.242  17.771  0.00  0.00    +0.000 HD
BRANCH  18  20
ATOM     20  C   UNL     1       9.259  10.487  18.676  0.00  0.00    +0.000 A 
ATOM     21  C   UNL     1       9.354  10.775  20.041  0.00  0.00    +0.000 A 
ATOM     22  C   UNL     1      10.396  11.559  20.536  0.00  0.00    +0.000 A 
ATOM     23  C   UNL     1      11.364  12.055  19.670  0.00  0.00    +0.000 A 
ATOM     24  C   UNL     1      11.299  11.746  18.313  0.00  0.00    +0.000 A 
ATOM     25  C   UNL     1      10.257  10.954  17.815  0.00  0.00    +0.000 A 
ENDBRANCH  18  20
ENDBRANCH  15  16
ENDBRANCH   7  15
TORSDOF 5
ENDMDL
MODEL 4
REMARK VINA RESULT:      -7.6      1.508      1.925
REMARK  Name = 
REMARK  6 active torsions:
REMARK  status: ('A' for Active; 'I' for Inactive)
REMARK    1  A    between atoms: C_1  and  C_2
REMARK    2  A    between atoms: N_4  and  C_5
REMARK    3  A    between atoms: C_5  and  C_6
REMARK    4  A    between atoms: C_14  and  C_15
REMARK    5  A    between atoms: C_15  and  C_16
REMARK    6  A    between atoms: N_18  and  C_19
REMARK                            x       y       z     vdW  Elec       q    Type
REMARK                         _______ _______ _______ _____ _____    ______ ____
ROOT
ATOM      1  C   UNL     1       4.971   6.969  15.836  0.00  0.00    +0.000 C 
ATOM      2  C   UNL     1       5.516   6.934  17.266  0.00  0.00    +0.000 C 
ATOM      3  C   UNL     1       4.735   5.966  18.148  0.00  0.00    +0.000 C 
ATOM      4  N   UNL     1       5.478   4.734  18.058  0.00  0.00    +0.000 N 
ATOM      5  C   UNL     1       6.758   4.912  17.565  0.00  0.00    +0.000 C 
ATOM      6  O   UNL     1       7.625   4.057  17.464  0.00  0.00    +0.000 OA
ATOM      7  C   UNL     1       6.961   6.383  17.302  0.00  0.00    +0.000 C 
ENDROOT
BRANCH   4   8
ATOM      8  C   UNL     1       5.068   3.533  18.754  0.00  0.00    +0.000 C 
BRANCH   8   9
ATOM      9  C   UNL     1       3.597   3.480  19.069  0.00  0.00    +0.000 A 
ATOM     10  C   UNL     1       2.662   3.183  18.066  0.00  0.00    +0.000 A 
ATOM     11  C   UNL     1       1.310   3.033  18.380  0.00  0.00    +0.000 A 
ATOM     12  C   UNL     1       0.880   3.175  19.698  0.00  0.00    +0.000 A 
ATOM     13  C   UNL     1       1.798   3.478  20.702  0.00  0.00    +0.000 A 
ATOM     14  C   UNL     1       3.150   3.632  20.389  0.00  0.00    +0.000 A 
ENDBRANCH   8   9
ENDBRANCH   4   8
BRANCH   7  15
ATOM     15  C   UNL     1       7.804   6.946  18.452  0.00  0.00    +0.000 C 
BRANCH  15  16
ATOM     16  C   UNL     1       8.171   8.389  18.188  0.00  0.00    +0.000 C 
ATOM     17  O   UNL     1       7.729   8.986  17.212  0.00  0.00    +0.000 OA
ATOM     18  N   UNL     1       9.020   8.921  19.141  0.00  0.00    +0.000 N 
ATOM     19  H   UNL     1       9.538   8.274  19.722  0.00  0.00    +0.000 HD
BRANCH  18  20
ATOM     20  C   UNL     1       9.381  10.286  19.217  0.00  0.00    +0.000 A 
ATOM     21  C   UNL     1       9.834  11.007  18.107  0.00  0.00    +0.000 A 
ATOM     22  C   UNL     1      10.218  12.342  18.229  0.00  0.00    +0.000 A 
ATOM     23  C   UNL     1      10.140  12.977  19.464  0.00  0.00    +0.000 A 
ATOM     24  C   UNL     1       9.657  12.279  20.569  0.00  0.00    +0.000 A 
ATOM     25  C   UNL     1       9.265  10.940  20.447  0.00  0.00    +0.000 A 
ENDBRANCH  18  20
ENDBRANCH  15  16
ENDBRANCH   7  15
TORSDOF 5
ENDMDL
MODEL 5
REMARK VINA RESULT:      -7.5      1.654      2.510
REMARK  Name = 
REMARK  6 active torsions:
REMARK  status: ('A' for Active; 'I' for Inactive)
REMARK    1  A    between atoms: C_1  and  C_2
REMARK    2  A    between atoms: N_4  and  C_5
REMARK    3  A    between atoms: C_5  and  C_6
REMARK    4  A    between atoms: C_14  and  C_15
REMARK    5  A    between atoms: C_15  and  C_16
REMARK    6  A    between atoms: N_18  and  C_19
REMARK                            x       y       z     vdW  Elec       q    Type
REMARK                         _______ _______ _______ _____ _____    ______ ____
ROOT
ATOM      1  C   UNL     1       3.638   7.612  17.547  0.00  0.00    +0.000 C 
ATOM      2  C   UNL     1       4.852   6.753  17.909  0.00  0.00    +0.000 C 
ATOM      3  C   UNL     1       4.447   5.476  18.637  0.00  0.00    +0.000 C 
ATOM      4  N   UNL     1       4.330   4.496  17.586  0.00  0.00    +0.000 N 
ATOM      5  C   UNL     1       4.947   4.889  16.412  0.00  0.00    +0.000 C 
ATOM      6  O   UNL     1       5.072   4.222  15.396  0.00  0.00    +0.000 OA
ATOM      7  C   UNL     1       5.574   6.242  16.640  0.00  0.00    +0.000 C 
ENDROOT
BRANCH   4   8
ATOM      8  C   UNL     1       3.952   3.124  17.849  0.00  0.00    +0.000 C 
BRANCH   8   9
ATOM      9  C   UNL     1       3.011   2.960  19.013  0.00  0.00    +0.000 A 
ATOM     10  C   UNL     1       3.502   2.648  20.290  0.00  0.00    +0.000 A 
ATOM     11  C   UNL     1       2.640   2.599  21.387  0.00  0.00    +0.000 A 
ATOM     12  C   UNL     1       1.282   2.864  21.220  0.00  0.00    +0.000 A 
ATOM     13  C   UNL     1       0.782   3.167  19.955  0.00  0.00    +0.000 A 
ATOM     14  C   UNL     1       1.641   3.214  18.856  0.00  0.00    +0.000 A 
ENDBRANCH   8   9
ENDBRANCH   4   8
BRANCH   7  15
ATOM     15  C   UNL     1       7.080   6.025  16.836  0.00  0.00    +0.000 C 
BRANCH  15  16
ATOM     16  C   UNL     1       7.642   7.039  17.807  0.00  0.00    +0.000 C 
ATOM     17  O   UNL     1       8.047   6.699  18.914  0.00  0.00    +0.000 OA
ATOM     18  N   UNL     1       7.645   8.329  17.309  0.00  0.00    +0.000 N 
ATOM     19  H   UNL     1       7.038   8.532  16.525  0.00  0.00    +0.000 HD
BRANCH  18  20
ATOM     20  C   UNL     1       8.264   9.429  17.946  0.00  0.00    +0.000 A 
ATOM     21  C   UNL     1       9.010   9.296  19.122  0.00  0.00    +0.000 A 
ATOM     22  C   UNL     1       9.573  10.410  19.743  0.00  0.00    +0.000 A 
ATOM     23  C   UNL     1       9.407  11.674  19.187  0.00  0.00    +0.000 A 
ATOM     24  C   UNL     1       8.695  11.815  17.997  0.00  0.00    +0.000 A 
ATOM     25  C   UNL     1       8.134  10.696  17.369  0.00  0.00    +0.000 A 
ENDBRANCH  18  20
ENDBRANCH  15  16
ENDBRANCH   7  15
TORSDOF 5
ENDMDL
MODEL 6
REMARK VINA RESULT:      -7.4      4.266      7.288
REMARK  Name = 
REMARK  6 active torsions:
REMARK  status: ('A' for Active; 'I' for Inactive)
REMARK    1  A    between atoms: C_1  and  C_2
REMARK    2  A    between atoms: N_4  and  C_5
REMARK    3  A    between atoms: C_5  and  C_6
REMARK    4  A    between atoms: C_14  and  C_15
REMARK    5  A    between atoms: C_15  and  C_16
REMARK    6  A    between atoms: N_18  and  C_19
REMARK                            x       y       z     vdW  Elec       q    Type
REMARK                         _______ _______ _______ _____ _____    ______ ____
ROOT
ATOM      1  C   UNL     1       0.947   3.554  20.416  0.00  0.00    +0.000 C 
ATOM      2  C   UNL     1       2.050   4.592  20.631  0.00  0.00    +0.000 C 
ATOM      3  C   UNL     1       3.371   4.156  20.007  0.00  0.00    +0.000 C 
ATOM      4  N   UNL     1       3.352   4.754  18.695  0.00  0.00    +0.000 N 
ATOM      5  C   UNL     1       2.413   5.763  18.577  0.00  0.00    +0.000 C 
ATOM      6  O   UNL     1       2.242   6.489  17.609  0.00  0.00    +0.000 OA
ATOM      7  C   UNL     1       1.720   5.918  19.907  0.00  0.00    +0.000 C 
ENDROOT
BRANCH   4   8
ATOM      8  C   UNL     1       4.437   4.581  17.752  0.00  0.00    +0.000 C 
BRANCH   8   9
ATOM      9  C   UNL     1       5.607   5.497  17.991  0.00  0.00    +0.000 A 
ATOM     10  C   UNL     1       6.585   5.174  18.944  0.00  0.00    +0.000 A 
ATOM     11  C   UNL     1       7.721   5.972  19.091  0.00  0.00    +0.000 A 
ATOM     12  C   UNL     1       7.893   7.097  18.286  0.00  0.00    +0.000 A 
ATOM     13  C   UNL     1       6.925   7.433  17.342  0.00  0.00    +0.000 A 
ATOM     14  C   UNL     1       5.786   6.638  17.196  0.00  0.00    +0.000 A 
ENDBRANCH   8   9
ENDBRANCH   4   8
BRANCH   7  15
ATOM     15  C   UNL     1       2.310   7.157  20.594  0.00  0.00    +0.000 C 
BRANCH  15  16
ATOM     16  C   UNL     1       1.333   8.310  20.544  0.00  0.00    +0.000 C 
ATOM     17  O   UNL     1       0.628   8.585  21.509  0.00  0.00    +0.000 OA
ATOM     18  N   UNL     1       1.342   8.982  19.335  0.00  0.00    +0.000 N 
ATOM     19  H   UNL     1       1.737   8.504  18.535  0.00  0.00    +0.000 HD
BRANCH  18  20
ATOM     20  C   UNL     1       0.648  10.189  19.088  0.00  0.00    +0.000 A 
ATOM     21  C   UNL     1      -0.741  10.240  18.937  0.00  0.00    +0.000 A 
ATOM     22  C   UNL     1      -1.387  11.444  18.655  0.00  0.00    +0.000 A 
ATOM     23  C   UNL     1      -0.648  12.616  18.531  0.00  0.00    +0.000 A 
ATOM     24  C   UNL     1       0.733  12.583  18.714  0.00  0.00    +0.000 A 
ATOM     25  C   UNL     1       1.382  11.376  19.003  0.00  0.00    +0.000 A 
ENDBRANCH  18  20
ENDBRANCH  15  16
ENDBRANCH   7  15
TORSDOF 5
ENDMDL
MODEL 7
REMARK VINA RESULT:      -7.3      1.512      1.988
REMARK  Name = 
REMARK  6 active torsions:
REMARK  status: ('A' for Active; 'I' for Inactive)
REMARK    1  A    between atoms: C_1  and  C_2
REMARK    2  A    between atoms: N_4  and  C_5
REMARK    3  A    between atoms: C_5  and  C_6
REMARK    4  A    between atoms: C_14  and  C_15
REMARK    5  A    between atoms: C_15  and  C_16
REMARK    6  A    between atoms: N_18  and  C_19
REMARK                            x       y       z     vdW  Elec       q    Type
REMARK                         _______ _______ _______ _____ _____    ______ ____
ROOT
ATOM      1  C   UNL     1       5.152   6.222  15.673  0.00  0.00    +0.000 C 
ATOM      2  C   UNL     1       5.653   6.805  16.996  0.00  0.00    +0.000 C 
ATOM      3  C   UNL     1       4.514   7.030  17.985  0.00  0.00    +0.000 C 
ATOM      4  N   UNL     1       4.487   5.820  18.769  0.00  0.00    +0.000 N 
ATOM      5  C   UNL     1       5.646   5.075  18.648  0.00  0.00    +0.000 C 
ATOM      6  O   UNL     1       5.923   4.055  19.262  0.00  0.00    +0.000 OA
ATOM      7  C   UNL     1       6.586   5.812  17.728  0.00  0.00    +0.000 C 
ENDROOT
BRANCH   4   8
ATOM      8  C   UNL     1       3.532   5.613  19.837  0.00  0.00    +0.000 C 
BRANCH   8   9
ATOM      9  C   UNL     1       2.486   4.575  19.529  0.00  0.00    +0.000 A 
ATOM     10  C   UNL     1       2.061   4.357  18.210  0.00  0.00    +0.000 A 
ATOM     11  C   UNL     1       1.169   3.326  17.914  0.00  0.00    +0.000 A 
ATOM     12  C   UNL     1       0.695   2.500  18.932  0.00  0.00    +0.000 A 
ATOM     13  C   UNL     1       1.103   2.711  20.248  0.00  0.00    +0.000 A 
ATOM     14  C   UNL     1       1.993   3.744  20.546  0.00  0.00    +0.000 A 
ENDBRANCH   8   9
ENDBRANCH   4   8
BRANCH   7  15
ATOM     15  C   UNL     1       7.646   6.495  18.601  0.00  0.00    +0.000 C 
BRANCH  15  16
ATOM     16  C   UNL     1       8.104   7.790  17.969  0.00  0.00    +0.000 C 
ATOM     17  O   UNL     1       8.037   7.960  16.756  0.00  0.00    +0.000 OA
ATOM     18  N   UNL     1       8.579   8.709  18.886  0.00  0.00    +0.000 N 
ATOM     19  H   UNL     1       8.854   8.364  19.798  0.00  0.00    +0.000 HD
BRANCH  18  20
ATOM     20  C   UNL     1       8.913  10.048  18.576  0.00  0.00    +0.000 A 
ATOM     21  C   UNL     1       8.057  10.889  17.858  0.00  0.00    +0.000 A 
ATOM     22  C   UNL     1       8.436  12.192  17.538  0.00  0.00    +0.000 A 
ATOM     23  C   UNL     1       9.676  12.674  17.944  0.00  0.00    +0.000 A 
ATOM     24  C   UNL     1      10.523  11.856  18.689  0.00  0.00    +0.000 A 
ATOM     25  C   UNL     1      10.141  10.550  19.018  0.00  0.00    +0.000 A 
ENDBRANCH  18  20
ENDBRANCH  15  16
ENDBRANCH   7  15
TORSDOF 5
ENDMDL
MODEL 8
REMARK VINA RESULT:      -7.3      4.441      7.283
REMARK  Name = 
REMARK  6 active torsions:
REMARK  status: ('A' for Active; 'I' for Inactive)
REMARK    1  A    between atoms: C_1  and  C_2
REMARK    2  A    between atoms: N_4  and  C_5
REMARK    3  A    between atoms: C_5  and  C_6
REMARK    4  A    between atoms: C_14  and  C_15
REMARK    5  A    between atoms: C_15  and  C_16
REMARK    6  A    between atoms: N_18  and  C_19
REMARK                            x       y       z     vdW  Elec       q    Type
REMARK                         _______ _______ _______ _____ _____    ______ ____
ROOT
ATOM      1  C   UNL     1       1.105   2.946  21.121  0.00  0.00    +0.000 C 
ATOM      2  C   UNL     1       2.314   3.830  20.803  0.00  0.00    +0.000 C 
ATOM      3  C   UNL     1       3.313   3.120  19.896  0.00  0.00    +0.000 C 
ATOM      4  N   UNL     1       2.931   3.527  18.567  0.00  0.00    +0.000 N 
ATOM      5  C   UNL     1       2.106   4.637  18.561  0.00  0.00    +0.000 C 
ATOM      6  O   UNL     1       1.702   5.239  17.578  0.00  0.00    +0.000 OA
ATOM      7  C   UNL     1       1.897   5.077  19.989  0.00  0.00    +0.000 C 
ENDROOT
BRANCH   4   8
ATOM      8  C   UNL     1       3.631   3.066  17.387  0.00  0.00    +0.000 C 
BRANCH   8   9
ATOM      9  C   UNL     1       4.794   3.934  16.987  0.00  0.00    +0.000 A 
ATOM     10  C   UNL     1       5.236   4.967  17.827  0.00  0.00    +0.000 A 
ATOM     11  C   UNL     1       6.377   5.703  17.503  0.00  0.00    +0.000 A 
ATOM     12  C   UNL     1       7.088   5.413  16.340  0.00  0.00    +0.000 A 
ATOM     13  C   UNL     1       6.654   4.395  15.494  0.00  0.00    +0.000 A 
ATOM     14  C   UNL     1       5.511   3.660  15.814  0.00  0.00    +0.000 A 
ENDBRANCH   8   9
ENDBRANCH   4   8
BRANCH   7  15
ATOM     15  C   UNL     1       2.795   6.297  20.232  0.00  0.00    +0.000 C 
BRANCH  15  16
ATOM     16  C   UNL     1       1.988   7.574  20.161  0.00  0.00    +0.000 C 
ATOM     17  O   UNL     1       1.775   8.130  19.089  0.00  0.00    +0.000 OA
ATOM     18  N   UNL     1       1.543   8.008  21.396  0.00  0.00    +0.000 N 
ATOM     19  H   UNL     1       2.009   7.645  22.218  0.00  0.00    +0.000 HD
BRANCH  18  20
ATOM     20  C   UNL     1       0.637   9.077  21.588  0.00  0.00    +0.000 A 
ATOM     21  C   UNL     1       0.188   9.880  20.534  0.00  0.00    +0.000 A 
ATOM     22  C   UNL     1      -0.676  10.950  20.768  0.00  0.00    +0.000 A 
ATOM     23  C   UNL     1      -1.110  11.223  22.060  0.00  0.00    +0.000 A 
ATOM     24  C   UNL     1      -0.697  10.408  23.112  0.00  0.00    +0.000 A 
ATOM     25  C   UNL     1       0.164   9.330  22.879  0.00  0.00    +0.000 A 
ENDBRANCH  18  20
ENDBRANCH  15  16
ENDBRANCH   7  15
TORSDOF 5
ENDMDL
MODEL 9
REMARK VINA RESULT:      -7.2      0.922      1.421
REMARK  Name = 
REMARK  6 active torsions:
REMARK  status: ('A' for Active; 'I' for Inactive)
REMARK    1  A    between atoms: C_1  and  C_2
REMARK    2  A    between atoms: N_4  and  C_5
REMARK    3  A    between atoms: C_5  and  C_6
REMARK    4  A    between atoms: C_14  and  C_15
REMARK    5  A    between atoms: C_15  and  C_16
REMARK    6  A    between atoms: N_18  and  C_19
REMARK                            x       y       z     vdW  Elec       q    Type
REMARK                         _______ _______ _______ _____ _____    ______ ____
ROOT
ATOM      1  C   UNL     1       6.905   4.383  15.884  0.00  0.00    +0.000 C 
ATOM      2  C   UNL     1       6.303   5.708  16.358  0.00  0.00    +0.000 C 
ATOM      3  C   UNL     1       4.960   5.506  17.051  0.00  0.00    +0.000 C 
ATOM      4  N   UNL     1       5.298   5.401  18.448  0.00  0.00    +0.000 N 
ATOM      5  C   UNL     1       6.570   5.866  18.730  0.00  0.00    +0.000 C 
ATOM      6  O   UNL     1       7.078   5.971  19.836  0.00  0.00    +0.000 OA
ATOM      7  C   UNL     1       7.184   6.365  17.446  0.00  0.00    +0.000 C 
ENDROOT
BRANCH   4   8
ATOM      8  C   UNL     1       4.296   5.194  19.472  0.00  0.00    +0.000 C 
BRANCH   8   9
ATOM      9  C   UNL     1       3.238   4.190  19.098  0.00  0.00    +0.000 A 
ATOM     10  C   UNL     1       3.271   2.889  19.621  0.00  0.00    +0.000 A 
ATOM     11  C   UNL     1       2.234   1.993  19.356  0.00  0.00    +0.000 A 
ATOM     12  C   UNL     1       1.154   2.388  18.568  0.00  0.00    +0.000 A 
ATOM     13  C   UNL     1       1.114   3.676  18.037  0.00  0.00    +0.000 A 
ATOM     14  C   UNL     1       2.152   4.572  18.298  0.00  0.00    +0.000 A 
ENDBRANCH   8   9
ENDBRANCH   4   8
BRANCH   7  15
ATOM     15  C   UNL     1       7.102   7.897  17.460  0.00  0.00    +0.000 C 
BRANCH  15  16
ATOM     16  C   UNL     1       8.223   8.483  18.289  0.00  0.00    +0.000 C 
ATOM     17  O   UNL     1       8.906   7.775  19.021  0.00  0.00    +0.000 OA
ATOM     18  N   UNL     1       8.371   9.848  18.120  0.00  0.00    +0.000 N 
ATOM     19  H   UNL     1       7.591  10.361  17.730  0.00  0.00    +0.000 HD
BRANCH  18  20
ATOM     20  C   UNL     1       9.441  10.606  18.649  0.00  0.00    +0.000 A 
ATOM     21  C   UNL     1       9.565  10.880  20.015  0.00  0.00    +0.000 A 
ATOM     22  C   UNL     1      10.613  11.664  20.496  0.00  0.00    +0.000 A 
ATOM     23  C   UNL     1      11.559  12.176  19.614  0.00  0.00    +0.000 A 
ATOM     24  C   UNL     1      11.465  11.881  18.255  0.00  0.00    +0.000 A 
ATOM     25  C   UNL     1      10.417  11.088  17.772  0.00  0.00    +0.000 A 
ENDBRANCH  18  20
ENDBRANCH  15  16
ENDBRANCH   7  15
TORSDOF 5
ENDMDL
