MODEL 1
REMARK VINA RESULT:      -9.1      0.000      0.000
REMARK  Name = 
REMARK  6 active torsions:
REMARK  status: ('A' for Active; 'I' for Inactive)
REMARK    1  A    between atoms: C_1  and  C_2
REMARK    2  A    between atoms: C_2  and  C_3
REMARK    3  A    between atoms: C_2  and  C_4
REMARK    4  A    between atoms: C_4  and  C_5
REMARK    5  A    between atoms: C_8  and  C_9
REMARK    6  A    between atoms: C_12  and  C_13
REMARK                            x       y       z     vdW  Elec       q    Type
REMARK                         _______ _______ _______ _____ _____    ______ ____
ROOT
ATOM      1  C   UNL     1       6.340   4.889  15.945  0.00  0.00    +0.000 C 
ATOM      2  O   UNL     1       6.305   6.322  16.026  0.00  0.00    +0.000 OA
ATOM      3  O   UNL     1       6.847   6.603  17.370  0.00  0.00    +0.000 OA
ATOM      4  C   UNL     1       7.104   5.292  17.890  0.00  0.00    +0.000 C 
ATOM      5  C   UNL     1       7.433   5.345  19.363  0.00  0.00    +0.000 C 
ATOM      6  O   UNL     1       8.243   4.725  17.198  0.00  0.00    +0.000 OA
ATOM      7  O   UNL     1       7.712   4.449  15.849  0.00  0.00    +0.000 OA
ATOM      8  C   UNL     1       5.956   4.444  17.358  0.00  0.00    +0.000 C 
ENDROOT
BRANCH   8   9
ATOM      9  C   UNL     1       4.478   4.600  17.875  0.00  0.00    +0.000 C 
ATOM     10  C   UNL     1       3.695   5.904  17.557  0.00  0.00    +0.000 C 
ATOM     11  C   UNL     1       2.246   5.828  18.132  0.00  0.00    +0.000 C 
ATOM     12  C   UNL     1       1.482   4.618  17.565  0.00  0.00    +0.000 C 
ATOM     13  C   UNL     1       2.241   3.326  17.892  0.00  0.00    +0.000 C 
ATOM     14  C   UNL     1       2.383   3.142  19.403  0.00  0.00    +0.000 C 
ATOM     15  C   UNL     1       3.067   4.369  20.009  0.00  0.00    +0.000 C 
ATOM     16  C   UNL     1       2.292   5.650  19.658  0.00  0.00    +0.000 C 
ATOM     17  C   UNL     1       4.482   4.470  19.428  0.00  0.00    +0.000 C 
ATOM     18  C   UNL     1       3.635   3.428  17.276  0.00  0.00    +0.000 C 
ENDBRANCH   8   9
BRANCH   1  19
ATOM     19  C   UNL     1       5.536   4.353  14.768  0.00  0.00    +0.000 C 
BRANCH  19  21
ATOM     20  C   UNL     1       5.318   3.359  12.489  0.00  0.00    +0.000 C 
ATOM     21  C   UNL     1       6.325   3.843  13.544  0.00  0.00    +0.000 C 
ATOM     22  C   UNL     1       7.213   4.925  12.931  0.00  0.00    +0.000 C 
ENDBRANCH  19  21
ENDBRANCH   1  19
TORSDOF 3
ENDMDL
MODEL 2
REMARK VINA RESULT:      -9.0      1.181      1.427
REMARK  Name = 
REMARK  6 active torsions:
REMARK  status: ('A' for Active; 'I' for Inactive)
REMARK    1  A    between atoms: C_1  and  C_2
REMARK    2  A    between atoms: C_2  and  C_3
REMARK    3  A    between atoms: C_2  and  C_4
REMARK    4  A    between atoms: C_4  and  C_5
REMARK    5  A    between atoms: C_8  and  C_9
REMARK    6  A    between atoms: C_12  and  C_13
REMARK                            x       y       z     vdW  Elec       q    Type
REMARK                         _______ _______ _______ _____ _____    ______ ____
ROOT
ATOM      1  C   UNL     1       5.992   5.048  15.098  0.00  0.00    +0.000 C 
ATOM      2  O   UNL     1       5.297   6.288  14.894  0.00  0.00    +0.000 OA
ATOM      3  O   UNL     1       5.786   7.141  15.995  0.00  0.00    +0.000 OA
ATOM      4  C   UNL     1       6.684   6.271  16.697  0.00  0.00    +0.000 C 
ATOM      5  C   UNL     1       7.107   6.874  18.015  0.00  0.00    +0.000 C 
ATOM      6  O   UNL     1       7.872   6.072  15.894  0.00  0.00    +0.000 OA
ATOM      7  O   UNL     1       7.390   5.227  14.785  0.00  0.00    +0.000 OA
ATOM      8  C   UNL     1       6.018   4.903  16.621  0.00  0.00    +0.000 C 
ENDROOT
BRANCH   8   9
ATOM      9  C   UNL     1       4.706   4.556  17.417  0.00  0.00    +0.000 C 
ATOM     10  C   UNL     1       3.669   5.678  17.701  0.00  0.00    +0.000 C 
ATOM     11  C   UNL     1       2.437   5.104  18.468  0.00  0.00    +0.000 C 
ATOM     12  C   UNL     1       1.762   3.970  17.674  0.00  0.00    +0.000 C 
ATOM     13  C   UNL     1       2.777   2.851  17.408  0.00  0.00    +0.000 C 
ATOM     14  C   UNL     1       3.311   2.272  18.717  0.00  0.00    +0.000 C 
ATOM     15  C   UNL     1       3.915   3.392  19.566  0.00  0.00    +0.000 C 
ATOM     16  C   UNL     1       2.881   4.504  19.811  0.00  0.00    +0.000 C 
ATOM     17  C   UNL     1       5.110   3.983  18.809  0.00  0.00    +0.000 C 
ATOM     18  C   UNL     1       3.942   3.448  16.622  0.00  0.00    +0.000 C 
ENDBRANCH   8   9
BRANCH   1  19
ATOM     19  C   UNL     1       5.411   3.912  14.267  0.00  0.00    +0.000 C 
BRANCH  19  21
ATOM     20  C   UNL     1       6.810   3.425  12.258  0.00  0.00    +0.000 C 
ATOM     21  C   UNL     1       5.486   4.046  12.732  0.00  0.00    +0.000 C 
ATOM     22  C   UNL     1       4.324   3.346  12.029  0.00  0.00    +0.000 C 
ENDBRANCH  19  21
ENDBRANCH   1  19
TORSDOF 3
ENDMDL
MODEL 3
REMARK VINA RESULT:      -9.0      1.120      2.009
REMARK  Name = 
REMARK  6 active torsions:
REMARK  status: ('A' for Active; 'I' for Inactive)
REMARK    1  A    between atoms: C_1  and  C_2
REMARK    2  A    between atoms: C_2  and  C_3
REMARK    3  A    between atoms: C_2  and  C_4
REMARK    4  A    between atoms: C_4  and  C_5
REMARK    5  A    between atoms: C_8  and  C_9
REMARK    6  A    between atoms: C_12  and  C_13
REMARK                            x       y       z     vdW  Elec       q    Type
REMARK                         _______ _______ _______ _____ _____    ______ ____
ROOT
ATOM      1  C   UNL     1       6.018   4.983  15.078  0.00  0.00    +0.000 C 
ATOM      2  O   UNL     1       5.260   6.180  14.842  0.00  0.00    +0.000 OA
ATOM      3  O   UNL     1       5.632   7.051  15.975  0.00  0.00    +0.000 OA
ATOM      4  C   UNL     1       6.540   6.231  16.722  0.00  0.00    +0.000 C 
ATOM      5  C   UNL     1       6.850   6.846  18.065  0.00  0.00    +0.000 C 
ATOM      6  O   UNL     1       7.783   6.113  15.987  0.00  0.00    +0.000 OA
ATOM      7  O   UNL     1       7.417   5.251  14.847  0.00  0.00    +0.000 OA
ATOM      8  C   UNL     1       5.966   4.825  16.600  0.00  0.00    +0.000 C 
ENDROOT
BRANCH   8   9
ATOM      9  C   UNL     1       4.635   4.390  17.317  0.00  0.00    +0.000 C 
ATOM     10  C   UNL     1       3.724   3.324  16.647  0.00  0.00    +0.000 C 
ATOM     11  C   UNL     1       2.484   3.020  17.545  0.00  0.00    +0.000 C 
ATOM     12  C   UNL     1       2.910   2.528  18.939  0.00  0.00    +0.000 C 
ATOM     13  C   UNL     1       3.795   3.585  19.613  0.00  0.00    +0.000 C 
ATOM     14  C   UNL     1       3.044   4.905  19.778  0.00  0.00    +0.000 C 
ATOM     15  C   UNL     1       2.534   5.379  18.415  0.00  0.00    +0.000 C 
ATOM     16  C   UNL     1       1.658   4.299  17.757  0.00  0.00    +0.000 C 
ATOM     17  C   UNL     1       3.744   5.654  17.514  0.00  0.00    +0.000 C 
ATOM     18  C   UNL     1       5.013   3.819  18.722  0.00  0.00    +0.000 C 
ENDBRANCH   8   9
BRANCH   1  19
ATOM     19  C   UNL     1       5.556   3.822  14.208  0.00  0.00    +0.000 C 
BRANCH  19  21
ATOM     20  C   UNL     1       6.916   3.500  12.140  0.00  0.00    +0.000 C 
ATOM     21  C   UNL     1       5.578   4.028  12.680  0.00  0.00    +0.000 C 
ATOM     22  C   UNL     1       4.431   3.302  11.977  0.00  0.00    +0.000 C 
ENDBRANCH  19  21
ENDBRANCH   1  19
TORSDOF 3
ENDMDL
MODEL 4
REMARK VINA RESULT:      -8.6      0.322      1.486
REMARK  Name = 
REMARK  6 active torsions:
REMARK  status: ('A' for Active; 'I' for Inactive)
REMARK    1  A    between atoms: C_1  and  C_2
REMARK    2  A    between atoms: C_2  and  C_3
REMARK    3  A    between atoms: C_2  and  C_4
REMARK    4  A    between atoms: C_4  and  C_5
REMARK    5  A    between atoms: C_8  and  C_9
REMARK    6  A    between atoms: C_12  and  C_13
REMARK                            x       y       z     vdW  Elec       q    Type
REMARK                         _______ _______ _______ _____ _____    ______ ____
ROOT
ATOM      1  C   UNL     1       6.274   4.862  15.955  0.00  0.00    +0.000 C 
ATOM      2  O   UNL     1       6.039   6.276  16.032  0.00  0.00    +0.000 OA
ATOM      3  O   UNL     1       6.493   6.626  17.393  0.00  0.00    +0.000 OA
ATOM      4  C   UNL     1       6.911   5.362  17.923  0.00  0.00    +0.000 C 
ATOM      5  C   UNL     1       7.181   5.455  19.406  0.00  0.00    +0.000 C 
ATOM      6  O   UNL     1       8.139   4.958  17.270  0.00  0.00    +0.000 OA
ATOM      7  O   UNL     1       7.695   4.615  15.905  0.00  0.00    +0.000 OA
ATOM      8  C   UNL     1       5.908   4.365  17.356  0.00  0.00    +0.000 C 
ENDROOT
BRANCH   8   9
ATOM      9  C   UNL     1       4.407   4.316  17.824  0.00  0.00    +0.000 C 
ATOM     10  C   UNL     1       3.397   3.426  17.047  0.00  0.00    +0.000 C 
ATOM     11  C   UNL     1       1.983   3.501  17.703  0.00  0.00    +0.000 C 
ATOM     12  C   UNL     1       2.026   3.061  19.177  0.00  0.00    +0.000 C 
ATOM     13  C   UNL     1       3.008   3.949  19.953  0.00  0.00    +0.000 C 
ATOM     14  C   UNL     1       2.581   5.415  19.900  0.00  0.00    +0.000 C 
ATOM     15  C   UNL     1       2.449   5.859  18.441  0.00  0.00    +0.000 C 
ATOM     16  C   UNL     1       1.467   4.949  17.684  0.00  0.00    +0.000 C 
ATOM     17  C   UNL     1       3.827   5.762  17.779  0.00  0.00    +0.000 C 
ATOM     18  C   UNL     1       4.383   3.812  19.304  0.00  0.00    +0.000 C 
ENDBRANCH   8   9
BRANCH   1  19
ATOM     19  C   UNL     1       5.590   4.224  14.754  0.00  0.00    +0.000 C 
BRANCH  19  21
ATOM     20  C   UNL     1       5.575   3.283  12.442  0.00  0.00    +0.000 C 
ATOM     21  C   UNL     1       6.480   3.831  13.557  0.00  0.00    +0.000 C 
ATOM     22  C   UNL     1       7.284   5.013  13.016  0.00  0.00    +0.000 C 
ENDBRANCH  19  21
ENDBRANCH   1  19
TORSDOF 3
ENDMDL
MODEL 5
REMARK VINA RESULT:      -8.5      1.157      2.146
REMARK  Name = 
REMARK  6 active torsions:
REMARK  status: ('A' for Active; 'I' for Inactive)
REMARK    1  A    between atoms: C_1  and  C_2
REMARK    2  A    between atoms: C_2  and  C_3
REMARK    3  A    between atoms: C_2  and  C_4
REMARK    4  A    between atoms: C_4  and  C_5
REMARK    5  A    between atoms: C_8  and  C_9
REMARK    6  A    between atoms: C_12  and  C_13
REMARK                            x       y       z     vdW  Elec       q    Type
REMARK                         _______ _______ _______ _____ _____    ______ ____
ROOT
ATOM      1  C   UNL     1       5.991   5.066  15.122  0.00  0.00    +0.000 C 
ATOM      2  O   UNL     1       5.226   6.277  15.023  0.00  0.00    +0.000 OA
ATOM      3  O   UNL     1       5.759   7.111  16.119  0.00  0.00    +0.000 OA
ATOM      4  C   UNL     1       6.748   6.260  16.714  0.00  0.00    +0.000 C 
ATOM      5  C   UNL     1       7.244   6.831  18.020  0.00  0.00    +0.000 C 
ATOM      6  O   UNL     1       7.879   6.150  15.815  0.00  0.00    +0.000 OA
ATOM      7  O   UNL     1       7.351   5.326  14.711  0.00  0.00    +0.000 OA
ATOM      8  C   UNL     1       6.142   4.864  16.632  0.00  0.00    +0.000 C 
ENDROOT
BRANCH   8   9
ATOM      9  C   UNL     1       4.913   4.422  17.509  0.00  0.00    +0.000 C 
ATOM     10  C   UNL     1       5.147   4.004  18.988  0.00  0.00    +0.000 C 
ATOM     11  C   UNL     1       3.793   3.641  19.674  0.00  0.00    +0.000 C 
ATOM     12  C   UNL     1       2.805   4.821  19.624  0.00  0.00    +0.000 C 
ATOM     13  C   UNL     1       2.557   5.225  18.165  0.00  0.00    +0.000 C 
ATOM     14  C   UNL     1       1.963   4.065  17.368  0.00  0.00    +0.000 C 
ATOM     15  C   UNL     1       2.885   2.848  17.468  0.00  0.00    +0.000 C 
ATOM     16  C   UNL     1       3.124   2.468  18.939  0.00  0.00    +0.000 C 
ATOM     17  C   UNL     1       4.228   3.203  16.821  0.00  0.00    +0.000 C 
ATOM     18  C   UNL     1       3.899   5.611  17.547  0.00  0.00    +0.000 C 
ENDBRANCH   8   9
BRANCH   1  19
ATOM     19  C   UNL     1       5.401   3.936  14.290  0.00  0.00    +0.000 C 
BRANCH  19  21
ATOM     20  C   UNL     1       6.813   3.436  12.294  0.00  0.00    +0.000 C 
ATOM     21  C   UNL     1       5.488   4.064  12.755  0.00  0.00    +0.000 C 
ATOM     22  C   UNL     1       4.328   3.366  12.046  0.00  0.00    +0.000 C 
ENDBRANCH  19  21
ENDBRANCH   1  19
TORSDOF 3
ENDMDL
MODEL 6
REMARK VINA RESULT:      -8.4      2.898      5.818
REMARK  Name = 
REMARK  6 active torsions:
REMARK  status: ('A' for Active; 'I' for Inactive)
REMARK    1  A    between atoms: C_1  and  C_2
REMARK    2  A    between atoms: C_2  and  C_3
REMARK    3  A    between atoms: C_2  and  C_4
REMARK    4  A    between atoms: C_4  and  C_5
REMARK    5  A    between atoms: C_8  and  C_9
REMARK    6  A    between atoms: C_12  and  C_13
REMARK                            x       y       z     vdW  Elec       q    Type
REMARK                         _______ _______ _______ _____ _____    ______ ____
ROOT
ATOM      1  C   UNL     1       2.293   5.227  19.235  0.00  0.00    +0.000 C 
ATOM      2  O   UNL     1       1.567   5.300  17.998  0.00  0.00    +0.000 OA
ATOM      3  O   UNL     1       1.737   3.953  17.419  0.00  0.00    +0.000 OA
ATOM      4  C   UNL     1       2.555   3.290  18.392  0.00  0.00    +0.000 C 
ATOM      5  C   UNL     1       3.058   1.965  17.870  0.00  0.00    +0.000 C 
ATOM      6  O   UNL     1       1.763   3.032  19.578  0.00  0.00    +0.000 OA
ATOM      7  O   UNL     1       1.580   4.376  20.158  0.00  0.00    +0.000 OA
ATOM      8  C   UNL     1       3.511   4.371  18.880  0.00  0.00    +0.000 C 
ENDROOT
BRANCH   8   9
ATOM      9  C   UNL     1       4.664   4.949  17.979  0.00  0.00    +0.000 C 
ATOM     10  C   UNL     1       4.383   6.191  17.088  0.00  0.00    +0.000 C 
ATOM     11  C   UNL     1       5.670   6.612  16.312  0.00  0.00    +0.000 C 
ATOM     12  C   UNL     1       6.828   6.924  17.277  0.00  0.00    +0.000 C 
ATOM     13  C   UNL     1       7.123   5.694  18.147  0.00  0.00    +0.000 C 
ATOM     14  C   UNL     1       7.522   4.497  17.286  0.00  0.00    +0.000 C 
ATOM     15  C   UNL     1       6.423   4.213  16.259  0.00  0.00    +0.000 C 
ATOM     16  C   UNL     1       6.142   5.462  15.407  0.00  0.00    +0.000 C 
ATOM     17  C   UNL     1       5.145   3.826  17.011  0.00  0.00    +0.000 C 
ATOM     18  C   UNL     1       5.851   5.345  18.917  0.00  0.00    +0.000 C 
ENDBRANCH   8   9
BRANCH   1  19
ATOM     19  C   UNL     1       2.521   6.598  19.857  0.00  0.00    +0.000 C 
BRANCH  19  21
ATOM     20  C   UNL     1       1.220   8.533  20.747  0.00  0.00    +0.000 C 
ATOM     21  C   UNL     1       1.533   7.721  19.480  0.00  0.00    +0.000 C 
ATOM     22  C   UNL     1       2.095   8.657  18.410  0.00  0.00    +0.000 C 
ENDBRANCH  19  21
ENDBRANCH   1  19
TORSDOF 3
ENDMDL
MODEL 7
REMARK VINA RESULT:      -8.4      2.904      5.747
REMARK  Name = 
REMARK  6 active torsions:
REMARK  status: ('A' for Active; 'I' for Inactive)
REMARK    1  A    between atoms: C_1  and  C_2
REMARK    2  A    between atoms: C_2  and  C_3
REMARK    3  A    between atoms: C_2  and  C_4
REMARK    4  A    between atoms: C_4  and  C_5
REMARK    5  A    between atoms: C_8  and  C_9
REMARK    6  A    between atoms: C_12  and  C_13
REMARK                            x       y       z     vdW  Elec       q    Type
REMARK                         _______ _______ _______ _____ _____    ______ ____
ROOT
ATOM      1  C   UNL     1       2.316   5.310  19.050  0.00  0.00    +0.000 C 
ATOM      2  O   UNL     1       1.582   5.286  17.816  0.00  0.00    +0.000 OA
ATOM      3  O   UNL     1       1.628   3.865  17.417  0.00  0.00    +0.000 OA
ATOM      4  C   UNL     1       2.399   3.265  18.466  0.00  0.00    +0.000 C 
ATOM      5  C   UNL     1       2.779   1.845  18.119  0.00  0.00    +0.000 C 
ATOM      6  O   UNL     1       1.604   3.232  19.676  0.00  0.00    +0.000 OA
ATOM      7  O   UNL     1       1.546   4.651  20.077  0.00  0.00    +0.000 OA
ATOM      8  C   UNL     1       3.451   4.312  18.806  0.00  0.00    +0.000 C 
ENDROOT
BRANCH   8   9
ATOM      9  C   UNL     1       4.638   4.667  17.836  0.00  0.00    +0.000 C 
ATOM     10  C   UNL     1       5.043   3.654  16.729  0.00  0.00    +0.000 C 
ATOM     11  C   UNL     1       6.212   4.224  15.866  0.00  0.00    +0.000 C 
ATOM     12  C   UNL     1       5.826   5.566  15.218  0.00  0.00    +0.000 C 
ATOM     13  C   UNL     1       5.443   6.575  16.308  0.00  0.00    +0.000 C 
ATOM     14  C   UNL     1       6.610   6.819  17.264  0.00  0.00    +0.000 C 
ATOM     15  C   UNL     1       7.071   5.489  17.862  0.00  0.00    +0.000 C 
ATOM     16  C   UNL     1       7.440   4.492  16.750  0.00  0.00    +0.000 C 
ATOM     17  C   UNL     1       5.920   4.905  18.689  0.00  0.00    +0.000 C 
ATOM     18  C   UNL     1       4.272   5.996  17.098  0.00  0.00    +0.000 C 
ENDBRANCH   8   9
BRANCH   1  19
ATOM     19  C   UNL     1       2.670   6.724  19.488  0.00  0.00    +0.000 C 
BRANCH  19  21
ATOM     20  C   UNL     1       1.362   8.647  20.395  0.00  0.00    +0.000 C 
ATOM     21  C   UNL     1       1.680   7.849  19.121  0.00  0.00    +0.000 C 
ATOM     22  C   UNL     1       2.241   8.797  18.062  0.00  0.00    +0.000 C 
ENDBRANCH  19  21
ENDBRANCH   1  19
TORSDOF 3
ENDMDL
MODEL 8
REMARK VINA RESULT:      -8.2      1.573      3.757
REMARK  Name = 
REMARK  6 active torsions:
REMARK  status: ('A' for Active; 'I' for Inactive)
REMARK    1  A    between atoms: C_1  and  C_2
REMARK    2  A    between atoms: C_2  and  C_3
REMARK    3  A    between atoms: C_2  and  C_4
REMARK    4  A    between atoms: C_4  and  C_5
REMARK    5  A    between atoms: C_8  and  C_9
REMARK    6  A    between atoms: C_12  and  C_13
REMARK                            x       y       z     vdW  Elec       q    Type
REMARK                         _______ _______ _______ _____ _____    ______ ____
ROOT
ATOM      1  C   UNL     1       7.240   5.832  16.901  0.00  0.00    +0.000 C 
ATOM      2  O   UNL     1       7.792   4.532  17.161  0.00  0.00    +0.000 OA
ATOM      3  O   UNL     1       7.226   3.696  16.083  0.00  0.00    +0.000 OA
ATOM      4  C   UNL     1       6.408   4.623  15.358  0.00  0.00    +0.000 C 
ATOM      5  C   UNL     1       5.535   3.910  14.353  0.00  0.00    +0.000 C 
ATOM      6  O   UNL     1       7.263   5.543  14.635  0.00  0.00    +0.000 OA
ATOM      7  O   UNL     1       7.840   6.376  15.707  0.00  0.00    +0.000 OA
ATOM      8  C   UNL     1       5.815   5.523  16.435  0.00  0.00    +0.000 C 
ENDROOT
BRANCH   8   9
ATOM      9  C   UNL     1       4.727   5.019  17.454  0.00  0.00    +0.000 C 
ATOM     10  C   UNL     1       5.179   4.454  18.829  0.00  0.00    +0.000 C 
ATOM     11  C   UNL     1       3.940   4.050  19.689  0.00  0.00    +0.000 C 
ATOM     12  C   UNL     1       2.998   5.246  19.910  0.00  0.00    +0.000 C 
ATOM     13  C   UNL     1       2.534   5.797  18.555  0.00  0.00    +0.000 C 
ATOM     14  C   UNL     1       1.782   4.732  17.759  0.00  0.00    +0.000 C 
ATOM     15  C   UNL     1       2.666   3.494  17.594  0.00  0.00    +0.000 C 
ATOM     16  C   UNL     1       3.124   2.967  18.965  0.00  0.00    +0.000 C 
ATOM     17  C   UNL     1       3.901   3.886  16.775  0.00  0.00    +0.000 C 
ATOM     18  C   UNL     1       3.773   6.217  17.767  0.00  0.00    +0.000 C 
ENDBRANCH   8   9
BRANCH   1  19
ATOM     19  C   UNL     1       7.434   6.790  18.068  0.00  0.00    +0.000 C 
BRANCH  19  21
ATOM     20  C   UNL     1       6.869   9.126  17.396  0.00  0.00    +0.000 C 
ATOM     21  C   UNL     1       8.025   8.179  17.754  0.00  0.00    +0.000 C 
ATOM     22  C   UNL     1       8.804   8.761  18.933  0.00  0.00    +0.000 C 
ENDBRANCH  19  21
ENDBRANCH   1  19
TORSDOF 3
ENDMDL
MODEL 9
REMARK VINA RESULT:      -8.1      2.013      3.982
REMARK  Name = 
REMARK  6 active torsions:
REMARK  status: ('A' for Active; 'I' for Inactive)
REMARK    1  A    between atoms: C_1  and  C_2
REMARK    2  A    between atoms: C_2  and  C_3
REMARK    3  A    between atoms: C_2  and  C_4
REMARK    4  A    between atoms: C_4  and  C_5
REMARK    5  A    between atoms: C_8  and  C_9
REMARK    6  A    between atoms: C_12  and  C_13
REMARK                            x       y       z     vdW  Elec       q    Type
REMARK                         _______ _______ _______ _____ _____    ______ ____
ROOT
ATOM      1  C   UNL     1       4.264   6.833  16.946  0.00  0.00    +0.000 C 
ATOM      2  O   UNL     1       5.154   7.151  18.027  0.00  0.00    +0.000 OA
ATOM      3  O   UNL     1       6.227   6.145  17.896  0.00  0.00    +0.000 OA
ATOM      4  C   UNL     1       5.800   5.371  16.767  0.00  0.00    +0.000 C 
ATOM      5  C   UNL     1       6.638   4.124  16.615  0.00  0.00    +0.000 C 
ATOM      6  O   UNL     1       5.955   6.163  15.565  0.00  0.00    +0.000 OA
ATOM      7  O   UNL     1       4.892   7.178  15.692  0.00  0.00    +0.000 OA
ATOM      8  C   UNL     1       4.285   5.303  16.908  0.00  0.00    +0.000 C 
ENDROOT
BRANCH   8   9
ATOM      9  C   UNL     1       3.577   4.462  18.034  0.00  0.00    +0.000 C 
ATOM     10  C   UNL     1       3.794   4.849  19.523  0.00  0.00    +0.000 C 
ATOM     11  C   UNL     1       2.973   3.909  20.459  0.00  0.00    +0.000 C 
ATOM     12  C   UNL     1       1.471   3.962  20.129  0.00  0.00    +0.000 C 
ATOM     13  C   UNL     1       1.249   3.562  18.664  0.00  0.00    +0.000 C 
ATOM     14  C   UNL     1       1.750   2.142  18.401  0.00  0.00    +0.000 C 
ATOM     15  C   UNL     1       3.224   2.036  18.800  0.00  0.00    +0.000 C 
ATOM     16  C   UNL     1       3.420   2.450  20.268  0.00  0.00    +0.000 C 
ATOM     17  C   UNL     1       4.037   2.978  17.905  0.00  0.00    +0.000 C 
ATOM     18  C   UNL     1       2.035   4.532  17.785  0.00  0.00    +0.000 C 
ENDBRANCH   8   9
BRANCH   1  19
ATOM     19  C   UNL     1       2.921   7.540  17.070  0.00  0.00    +0.000 C 
BRANCH  19  21
ATOM     20  C   UNL     1       1.876   9.675  17.833  0.00  0.00    +0.000 C 
ATOM     21  C   UNL     1       2.721   8.473  18.283  0.00  0.00    +0.000 C 
ATOM     22  C   UNL     1       2.019   7.774  19.446  0.00  0.00    +0.000 C 
ENDBRANCH  19  21
ENDBRANCH   1  19
TORSDOF 3
ENDMDL
