MODEL 1
REMARK VINA RESULT:      -7.1      0.000      0.000
REMARK  Name = 
REMARK  11 active torsions:
REMARK  status: ('A' for Active; 'I' for Inactive)
REMARK    1  A    between atoms: C_1  and  C_2
REMARK    2  A    between atoms: C_2  and  O_3
REMARK    3  A    between atoms: O_3  and  C_4
REMARK    4  A    between atoms: C_4  and  C_6
REMARK    5  A    between atoms: C_9  and  O_11
REMARK    6  A    between atoms: O_11  and  C_12
REMARK    7  A    between atoms: C_12  and  C_13
REMARK    8  A    between atoms: C_12  and  C_14
REMARK    9  A    between atoms: C_12  and  C_15
REMARK   10  A    between atoms: C_16  and  C_17
REMARK   11  A    between atoms: C_17  and  N_18
REMARK                            x       y       z     vdW  Elec       q    Type
REMARK                         _______ _______ _______ _____ _____    ______ ____
ROOT
ATOM      1  C   UNL     1       2.533   8.012  18.088  0.00  0.00    +0.000 C 
ATOM      2  C   UNL     1       3.609   7.649  17.379  0.00  0.00    +0.000 C 
ATOM      3  N   UNL     1       3.773   6.285  17.414  0.00  0.00    +0.000 N 
ATOM      4  C   UNL     1       4.763   5.552  16.809  0.00  0.00    +0.000 C 
ATOM      5  O   UNL     1       4.540   4.451  16.323  0.00  0.00    +0.000 OA
ATOM      6  C   UNL     1       2.930   5.723  18.466  0.00  0.00    +0.000 C 
ATOM      7  C   UNL     1       1.881   6.824  18.720  0.00  0.00    +0.000 C 
ENDROOT
BRANCH   1   8
ATOM      8  C   UNL     1       1.893   9.327  18.142  0.00  0.00    +0.000 C 
ATOM      9  O   UNL     1       2.225  10.257  17.421  0.00  0.00    +0.000 OA
BRANCH   8  10
ATOM     10  O   UNL     1       1.026   9.376  19.179  0.00  0.00    +0.000 OA
BRANCH  10  12
ATOM     11  C   UNL     1      -0.176  11.089  20.334  0.00  0.00    +0.000 C 
ATOM     12  C   UNL     1      -0.055  10.304  19.039  0.00  0.00    +0.000 C 
ENDBRANCH  10  12
ENDBRANCH   8  10
ENDBRANCH   1   8
BRANCH   4  13
ATOM     13  O   UNL     1       5.979   6.149  16.903  0.00  0.00    +0.000 OA
BRANCH  13  14
ATOM     14  C   UNL     1       6.924   5.732  17.925  0.00  0.00    +0.000 C 
ATOM     15  C   UNL     1       7.757   4.589  17.346  0.00  0.00    +0.000 C 
ATOM     16  C   UNL     1       7.835   6.943  18.184  0.00  0.00    +0.000 C 
ATOM     17  C   UNL     1       6.284   5.360  19.273  0.00  0.00    +0.000 C 
ENDBRANCH  13  14
ENDBRANCH   4  13
BRANCH   6  18
ATOM     18  C   UNL     1       2.308   4.323  18.277  0.00  0.00    +0.000 C 
BRANCH  18  19
ATOM     19  N   UNL     1       2.510   3.555  19.509  0.00  0.00    +0.000 N 
ATOM     20  C   UNL     1       3.506   2.581  19.520  0.00  0.00    +0.000 C 
ATOM     21  O   UNL     1       4.024   2.129  18.502  0.00  0.00    +0.000 OA
ATOM     22  C   UNL     1       4.010   2.218  20.911  0.00  0.00    +0.000 C 
ATOM     23  O   UNL     1       2.991   2.099  21.883  0.00  0.00    +0.000 OA
ATOM     24  C   UNL     1       2.168   3.251  21.910  0.00  0.00    +0.000 C 
ATOM     25  C   UNL     1       1.603   3.665  20.551  0.00  0.00    +0.000 C 
ATOM     26  O   UNL     1       0.468   4.117  20.428  0.00  0.00    +0.000 OA
ENDBRANCH  18  19
ENDBRANCH   6  18
TORSDOF 7
ENDMDL
MODEL 2
REMARK VINA RESULT:      -7.0      0.392      1.008
REMARK  Name = 
REMARK  11 active torsions:
REMARK  status: ('A' for Active; 'I' for Inactive)
REMARK    1  A    between atoms: C_1  and  C_2
REMARK    2  A    between atoms: C_2  and  O_3
REMARK    3  A    between atoms: O_3  and  C_4
REMARK    4  A    between atoms: C_4  and  C_6
REMARK    5  A    between atoms: C_9  and  O_11
REMARK    6  A    between atoms: O_11  and  C_12
REMARK    7  A    between atoms: C_12  and  C_13
REMARK    8  A    between atoms: C_12  and  C_14
REMARK    9  A    between atoms: C_12  and  C_15
REMARK   10  A    between atoms: C_16  and  C_17
REMARK   11  A    between atoms: C_17  and  N_18
REMARK                            x       y       z     vdW  Elec       q    Type
REMARK                         _______ _______ _______ _____ _____    ______ ____
ROOT
ATOM      1  C   UNL     1       2.573   8.185  17.987  0.00  0.00    +0.000 C 
ATOM      2  C   UNL     1       3.692   7.806  17.359  0.00  0.00    +0.000 C 
ATOM      3  N   UNL     1       3.843   6.441  17.423  0.00  0.00    +0.000 N 
ATOM      4  C   UNL     1       4.866   5.694  16.898  0.00  0.00    +0.000 C 
ATOM      5  O   UNL     1       4.669   4.588  16.413  0.00  0.00    +0.000 OA
ATOM      6  C   UNL     1       2.925   5.900  18.422  0.00  0.00    +0.000 C 
ATOM      7  C   UNL     1       1.870   7.011  18.589  0.00  0.00    +0.000 C 
ENDROOT
BRANCH   1   8
ATOM      8  C   UNL     1       1.940   9.505  17.979  0.00  0.00    +0.000 C 
ATOM      9  O   UNL     1       2.429  10.472  17.412  0.00  0.00    +0.000 OA
BRANCH   8  10
ATOM     10  O   UNL     1       0.862   9.505  18.795  0.00  0.00    +0.000 OA
BRANCH  10  12
ATOM     11  C   UNL     1      -1.189  10.482  18.049  0.00  0.00    +0.000 C 
ATOM     12  C   UNL     1       0.101  10.718  18.817  0.00  0.00    +0.000 C 
ENDBRANCH  10  12
ENDBRANCH   8  10
ENDBRANCH   1   8
BRANCH   4  13
ATOM     13  O   UNL     1       6.078   6.284  17.066  0.00  0.00    +0.000 OA
BRANCH  13  14
ATOM     14  C   UNL     1       6.999   5.792  18.077  0.00  0.00    +0.000 C 
ATOM     15  C   UNL     1       6.168   5.291  19.256  0.00  0.00    +0.000 C 
ATOM     16  C   UNL     1       7.740   4.606  17.437  0.00  0.00    +0.000 C 
ATOM     17  C   UNL     1       8.072   6.805  18.511  0.00  0.00    +0.000 C 
ENDBRANCH  13  14
ENDBRANCH   4  13
BRANCH   6  18
ATOM     18  C   UNL     1       2.308   4.502  18.210  0.00  0.00    +0.000 C 
BRANCH  18  19
ATOM     19  N   UNL     1       2.494   3.720  19.436  0.00  0.00    +0.000 N 
ATOM     20  C   UNL     1       3.447   2.705  19.429  0.00  0.00    +0.000 C 
ATOM     21  O   UNL     1       3.931   2.235  18.401  0.00  0.00    +0.000 OA
ATOM     22  C   UNL     1       3.955   2.314  20.811  0.00  0.00    +0.000 C 
ATOM     23  O   UNL     1       2.946   2.235  21.798  0.00  0.00    +0.000 OA
ATOM     24  C   UNL     1       2.174   3.422  21.840  0.00  0.00    +0.000 C 
ATOM     25  C   UNL     1       1.607   3.864  20.491  0.00  0.00    +0.000 C 
ATOM     26  O   UNL     1       0.491   4.366  20.387  0.00  0.00    +0.000 OA
ENDBRANCH  18  19
ENDBRANCH   6  18
TORSDOF 7
ENDMDL
MODEL 3
REMARK VINA RESULT:      -6.7      2.431      5.562
REMARK  Name = 
REMARK  11 active torsions:
REMARK  status: ('A' for Active; 'I' for Inactive)
REMARK    1  A    between atoms: C_1  and  C_2
REMARK    2  A    between atoms: C_2  and  O_3
REMARK    3  A    between atoms: O_3  and  C_4
REMARK    4  A    between atoms: C_4  and  C_6
REMARK    5  A    between atoms: C_9  and  O_11
REMARK    6  A    between atoms: O_11  and  C_12
REMARK    7  A    between atoms: C_12  and  C_13
REMARK    8  A    between atoms: C_12  and  C_14
REMARK    9  A    between atoms: C_12  and  C_15
REMARK   10  A    between atoms: C_16  and  C_17
REMARK   11  A    between atoms: C_17  and  N_18
REMARK                            x       y       z     vdW  Elec       q    Type
REMARK                         _______ _______ _______ _____ _____    ______ ____
ROOT
ATOM      1  C   UNL     1       5.767   4.547  15.536  0.00  0.00    +0.000 C 
ATOM      2  C   UNL     1       5.513   5.592  16.333  0.00  0.00    +0.000 C 
ATOM      3  N   UNL     1       4.926   5.175  17.504  0.00  0.00    +0.000 N 
ATOM      4  C   UNL     1       4.523   5.960  18.555  0.00  0.00    +0.000 C 
ATOM      5  O   UNL     1       4.634   5.585  19.714  0.00  0.00    +0.000 OA
ATOM      6  C   UNL     1       4.477   3.794  17.355  0.00  0.00    +0.000 C 
ATOM      7  C   UNL     1       5.295   3.271  16.157  0.00  0.00    +0.000 C 
ENDROOT
BRANCH   1   8
ATOM      8  C   UNL     1       6.557   4.526  14.305  0.00  0.00    +0.000 C 
ATOM      9  O   UNL     1       7.237   5.473  13.936  0.00  0.00    +0.000 OA
BRANCH   8  10
ATOM     10  O   UNL     1       6.295   3.397  13.608  0.00  0.00    +0.000 OA
BRANCH  10  12
ATOM     11  C   UNL     1       4.812   3.267  11.737  0.00  0.00    +0.000 C 
ATOM     12  C   UNL     1       6.237   3.547  12.185  0.00  0.00    +0.000 C 
ENDBRANCH  10  12
ENDBRANCH   8  10
ENDBRANCH   1   8
BRANCH   4  13
ATOM     13  O   UNL     1       3.930   7.111  18.144  0.00  0.00    +0.000 OA
BRANCH  13  14
ATOM     14  C   UNL     1       2.502   7.308  18.335  0.00  0.00    +0.000 C 
ATOM     15  C   UNL     1       1.786   6.082  17.772  0.00  0.00    +0.000 C 
ATOM     16  C   UNL     1       2.280   7.374  19.855  0.00  0.00    +0.000 C 
ATOM     17  C   UNL     1       1.955   8.620  17.748  0.00  0.00    +0.000 C 
ENDBRANCH  13  14
ENDBRANCH   4  13
BRANCH   6  18
ATOM     18  C   UNL     1       4.511   2.847  18.573  0.00  0.00    +0.000 C 
BRANCH  18  19
ATOM     19  N   UNL     1       3.149   2.721  19.102  0.00  0.00    +0.000 N 
ATOM     20  C   UNL     1       2.983   2.681  20.484  0.00  0.00    +0.000 C 
ATOM     21  O   UNL     1       3.899   2.457  21.272  0.00  0.00    +0.000 OA
ATOM     22  C   UNL     1       1.592   3.081  20.958  0.00  0.00    +0.000 C 
ATOM     23  O   UNL     1       0.540   2.557  20.174  0.00  0.00    +0.000 OA
ATOM     24  C   UNL     1       0.728   2.847  18.800  0.00  0.00    +0.000 C 
ATOM     25  C   UNL     1       2.095   2.449  18.244  0.00  0.00    +0.000 C 
ATOM     26  O   UNL     1       2.231   1.998  17.110  0.00  0.00    +0.000 OA
ENDBRANCH  18  19
ENDBRANCH   6  18
TORSDOF 7
ENDMDL
MODEL 4
REMARK VINA RESULT:      -6.6      0.581      1.719
REMARK  Name = 
REMARK  11 active torsions:
REMARK  status: ('A' for Active; 'I' for Inactive)
REMARK    1  A    between atoms: C_1  and  C_2
REMARK    2  A    between atoms: C_2  and  O_3
REMARK    3  A    between atoms: O_3  and  C_4
REMARK    4  A    between atoms: C_4  and  C_6
REMARK    5  A    between atoms: C_9  and  O_11
REMARK    6  A    between atoms: O_11  and  C_12
REMARK    7  A    between atoms: C_12  and  C_13
REMARK    8  A    between atoms: C_12  and  C_14
REMARK    9  A    between atoms: C_12  and  C_15
REMARK   10  A    between atoms: C_16  and  C_17
REMARK   11  A    between atoms: C_17  and  N_18
REMARK                            x       y       z     vdW  Elec       q    Type
REMARK                         _______ _______ _______ _____ _____    ______ ____
ROOT
ATOM      1  C   UNL     1       2.538   8.150  18.033  0.00  0.00    +0.000 C 
ATOM      2  C   UNL     1       3.619   7.773  17.339  0.00  0.00    +0.000 C 
ATOM      3  N   UNL     1       3.795   6.412  17.421  0.00  0.00    +0.000 N 
ATOM      4  C   UNL     1       4.793   5.669  16.844  0.00  0.00    +0.000 C 
ATOM      5  O   UNL     1       4.582   4.550  16.396  0.00  0.00    +0.000 OA
ATOM      6  C   UNL     1       2.955   5.879  18.490  0.00  0.00    +0.000 C 
ATOM      7  C   UNL     1       1.896   6.979  18.704  0.00  0.00    +0.000 C 
ENDROOT
BRANCH   1   8
ATOM      8  C   UNL     1       1.886   9.460  18.041  0.00  0.00    +0.000 C 
ATOM      9  O   UNL     1       2.375  10.448  17.513  0.00  0.00    +0.000 OA
BRANCH   8  10
ATOM     10  O   UNL     1       0.785   9.422  18.825  0.00  0.00    +0.000 OA
BRANCH  10  12
ATOM     11  C   UNL     1      -1.244  10.032  17.716  0.00  0.00    +0.000 C 
ATOM     12  C   UNL     1      -0.140  10.502  18.647  0.00  0.00    +0.000 C 
ENDBRANCH  10  12
ENDBRANCH   8  10
ENDBRANCH   1   8
BRANCH   4  13
ATOM     13  O   UNL     1       6.004   6.280  16.919  0.00  0.00    +0.000 OA
BRANCH  13  14
ATOM     14  C   UNL     1       6.974   5.866  17.918  0.00  0.00    +0.000 C 
ATOM     15  C   UNL     1       7.703   4.638  17.375  0.00  0.00    +0.000 C 
ATOM     16  C   UNL     1       7.970   7.028  18.054  0.00  0.00    +0.000 C 
ATOM     17  C   UNL     1       6.384   5.618  19.317  0.00  0.00    +0.000 C 
ENDBRANCH  13  14
ENDBRANCH   4  13
BRANCH   6  18
ATOM     18  C   UNL     1       2.347   4.468  18.349  0.00  0.00    +0.000 C 
BRANCH  18  19
ATOM     19  N   UNL     1       2.525   3.755  19.617  0.00  0.00    +0.000 N 
ATOM     20  C   UNL     1       1.570   3.937  20.613  0.00  0.00    +0.000 C 
ATOM     21  O   UNL     1       0.757   4.859  20.614  0.00  0.00    +0.000 OA
ATOM     22  C   UNL     1       1.515   2.814  21.641  0.00  0.00    +0.000 C 
ATOM     23  O   UNL     1       2.783   2.343  22.052  0.00  0.00    +0.000 OA
ATOM     24  C   UNL     1       3.588   1.996  20.940  0.00  0.00    +0.000 C 
ATOM     25  C   UNL     1       3.712   3.086  19.875  0.00  0.00    +0.000 C 
ATOM     26  O   UNL     1       4.759   3.285  19.265  0.00  0.00    +0.000 OA
ENDBRANCH  18  19
ENDBRANCH   6  18
TORSDOF 7
ENDMDL
MODEL 5
REMARK VINA RESULT:      -6.6      1.946      4.724
REMARK  Name = 
REMARK  11 active torsions:
REMARK  status: ('A' for Active; 'I' for Inactive)
REMARK    1  A    between atoms: C_1  and  C_2
REMARK    2  A    between atoms: C_2  and  O_3
REMARK    3  A    between atoms: O_3  and  C_4
REMARK    4  A    between atoms: C_4  and  C_6
REMARK    5  A    between atoms: C_9  and  O_11
REMARK    6  A    between atoms: O_11  and  C_12
REMARK    7  A    between atoms: C_12  and  C_13
REMARK    8  A    between atoms: C_12  and  C_14
REMARK    9  A    between atoms: C_12  and  C_15
REMARK   10  A    between atoms: C_16  and  C_17
REMARK   11  A    between atoms: C_17  and  N_18
REMARK                            x       y       z     vdW  Elec       q    Type
REMARK                         _______ _______ _______ _____ _____    ______ ____
ROOT
ATOM      1  C   UNL     1       2.172   7.959  18.612  0.00  0.00    +0.000 C 
ATOM      2  C   UNL     1       2.188   6.799  19.280  0.00  0.00    +0.000 C 
ATOM      3  N   UNL     1       3.308   6.071  18.955  0.00  0.00    +0.000 N 
ATOM      4  C   UNL     1       3.662   4.836  19.436  0.00  0.00    +0.000 C 
ATOM      5  O   UNL     1       4.830   4.545  19.656  0.00  0.00    +0.000 OA
ATOM      6  C   UNL     1       3.927   6.642  17.763  0.00  0.00    +0.000 C 
ATOM      7  C   UNL     1       3.352   8.071  17.701  0.00  0.00    +0.000 C 
ENDROOT
BRANCH   1   8
ATOM      8  C   UNL     1       1.278   9.101  18.813  0.00  0.00    +0.000 C 
ATOM      9  O   UNL     1       0.650   9.620  17.902  0.00  0.00    +0.000 OA
BRANCH   8  10
ATOM     10  O   UNL     1       1.385   9.552  20.083  0.00  0.00    +0.000 OA
BRANCH  10  12
ATOM     11  C   UNL     1      -0.227   8.586  21.560  0.00  0.00    +0.000 C 
ATOM     12  C   UNL     1       0.147   9.817  20.753  0.00  0.00    +0.000 C 
ENDBRANCH  10  12
ENDBRANCH   8  10
ENDBRANCH   1   8
BRANCH   4  13
ATOM     13  O   UNL     1       2.599   3.997  19.541  0.00  0.00    +0.000 OA
BRANCH  13  14
ATOM     14  C   UNL     1       2.464   2.868  18.635  0.00  0.00    +0.000 C 
ATOM     15  C   UNL     1       1.042   2.328  18.777  0.00  0.00    +0.000 C 
ATOM     16  C   UNL     1       2.653   3.434  17.218  0.00  0.00    +0.000 C 
ATOM     17  C   UNL     1       3.524   1.769  18.821  0.00  0.00    +0.000 C 
ENDBRANCH  13  14
ENDBRANCH   4  13
BRANCH   6  18
ATOM     18  C   UNL     1       5.462   6.598  17.606  0.00  0.00    +0.000 C 
BRANCH  18  19
ATOM     19  N   UNL     1       5.792   5.682  16.510  0.00  0.00    +0.000 N 
ATOM     20  C   UNL     1       6.665   4.630  16.773  0.00  0.00    +0.000 C 
ATOM     21  O   UNL     1       7.393   4.583  17.763  0.00  0.00    +0.000 OA
ATOM     22  C   UNL     1       6.547   3.461  15.803  0.00  0.00    +0.000 C 
ATOM     23  O   UNL     1       6.398   3.843  14.451  0.00  0.00    +0.000 OA
ATOM     24  C   UNL     1       5.335   4.765  14.291  0.00  0.00    +0.000 C 
ATOM     25  C   UNL     1       5.399   5.982  15.215  0.00  0.00    +0.000 C 
ATOM     26  O   UNL     1       5.060   7.102  14.842  0.00  0.00    +0.000 OA
ENDBRANCH  18  19
ENDBRANCH   6  18
TORSDOF 7
ENDMDL
MODEL 6
REMARK VINA RESULT:      -6.5      0.892      1.337
REMARK  Name = 
REMARK  11 active torsions:
REMARK  status: ('A' for Active; 'I' for Inactive)
REMARK    1  A    between atoms: C_1  and  C_2
REMARK    2  A    between atoms: C_2  and  O_3
REMARK    3  A    between atoms: O_3  and  C_4
REMARK    4  A    between atoms: C_4  and  C_6
REMARK    5  A    between atoms: C_9  and  O_11
REMARK    6  A    between atoms: O_11  and  C_12
REMARK    7  A    between atoms: C_12  and  C_13
REMARK    8  A    between atoms: C_12  and  C_14
REMARK    9  A    between atoms: C_12  and  C_15
REMARK   10  A    between atoms: C_16  and  C_17
REMARK   11  A    between atoms: C_17  and  N_18
REMARK                            x       y       z     vdW  Elec       q    Type
REMARK                         _______ _______ _______ _____ _____    ______ ____
ROOT
ATOM      1  C   UNL     1       2.350   8.284  18.054  0.00  0.00    +0.000 C 
ATOM      2  C   UNL     1       3.489   7.953  17.434  0.00  0.00    +0.000 C 
ATOM      3  N   UNL     1       3.681   6.593  17.471  0.00  0.00    +0.000 N 
ATOM      4  C   UNL     1       4.734   5.889  16.944  0.00  0.00    +0.000 C 
ATOM      5  O   UNL     1       4.579   4.788  16.433  0.00  0.00    +0.000 OA
ATOM      6  C   UNL     1       2.769   6.001  18.445  0.00  0.00    +0.000 C 
ATOM      7  C   UNL     1       1.677   7.076  18.621  0.00  0.00    +0.000 C 
ENDROOT
BRANCH   1   8
ATOM      8  C   UNL     1       1.677   9.584  18.066  0.00  0.00    +0.000 C 
ATOM      9  O   UNL     1       0.477   9.712  17.865  0.00  0.00    +0.000 OA
BRANCH   8  10
ATOM     10  O   UNL     1       2.589  10.575  18.178  0.00  0.00    +0.000 OA
BRANCH  10  12
ATOM     11  C   UNL     1       2.146  12.664  19.251  0.00  0.00    +0.000 C 
ATOM     12  C   UNL     1       2.098  11.899  17.940  0.00  0.00    +0.000 C 
ENDBRANCH  10  12
ENDBRANCH   8  10
ENDBRANCH   1   8
BRANCH   4  13
ATOM     13  O   UNL     1       5.925   6.513  17.142  0.00  0.00    +0.000 OA
BRANCH  13  14
ATOM     14  C   UNL     1       6.944   5.900  17.977  0.00  0.00    +0.000 C 
ATOM     15  C   UNL     1       7.959   6.984  18.338  0.00  0.00    +0.000 C 
ATOM     16  C   UNL     1       6.226   5.432  19.253  0.00  0.00    +0.000 C 
ATOM     17  C   UNL     1       7.613   4.660  17.361  0.00  0.00    +0.000 C 
ENDBRANCH  13  14
ENDBRANCH   4  13
BRANCH   6  18
ATOM     18  C   UNL     1       2.198   4.590  18.196  0.00  0.00    +0.000 C 
BRANCH  18  19
ATOM     19  N   UNL     1       2.484   3.758  19.368  0.00  0.00    +0.000 N 
ATOM     20  C   UNL     1       3.469   2.781  19.255  0.00  0.00    +0.000 C 
ATOM     21  O   UNL     1       3.906   2.379  18.179  0.00  0.00    +0.000 OA
ATOM     22  C   UNL     1       4.071   2.343  20.585  0.00  0.00    +0.000 C 
ATOM     23  O   UNL     1       3.126   2.180  21.623  0.00  0.00    +0.000 OA
ATOM     24  C   UNL     1       2.317   3.333  21.769  0.00  0.00    +0.000 C 
ATOM     25  C   UNL     1       1.656   3.818  20.478  0.00  0.00    +0.000 C 
ATOM     26  O   UNL     1       0.519   4.282  20.464  0.00  0.00    +0.000 OA
ENDBRANCH  18  19
ENDBRANCH   6  18
TORSDOF 7
ENDMDL
MODEL 7
REMARK VINA RESULT:      -6.5      1.645      6.181
REMARK  Name = 
REMARK  11 active torsions:
REMARK  status: ('A' for Active; 'I' for Inactive)
REMARK    1  A    between atoms: C_1  and  C_2
REMARK    2  A    between atoms: C_2  and  O_3
REMARK    3  A    between atoms: O_3  and  C_4
REMARK    4  A    between atoms: C_4  and  C_6
REMARK    5  A    between atoms: C_9  and  O_11
REMARK    6  A    between atoms: O_11  and  C_12
REMARK    7  A    between atoms: C_12  and  C_13
REMARK    8  A    between atoms: C_12  and  C_14
REMARK    9  A    between atoms: C_12  and  C_15
REMARK   10  A    between atoms: C_16  and  C_17
REMARK   11  A    between atoms: C_17  and  N_18
REMARK                            x       y       z     vdW  Elec       q    Type
REMARK                         _______ _______ _______ _____ _____    ______ ____
ROOT
ATOM      1  C   UNL     1       2.121   4.928  18.627  0.00  0.00    +0.000 C 
ATOM      2  C   UNL     1       1.602   6.157  18.724  0.00  0.00    +0.000 C 
ATOM      3  N   UNL     1       2.464   7.089  18.197  0.00  0.00    +0.000 N 
ATOM      4  C   UNL     1       2.275   8.445  18.123  0.00  0.00    +0.000 C 
ATOM      5  O   UNL     1       2.665   9.096  17.162  0.00  0.00    +0.000 OA
ATOM      6  C   UNL     1       3.779   6.481  18.012  0.00  0.00    +0.000 C 
ATOM      7  C   UNL     1       3.485   4.967  18.015  0.00  0.00    +0.000 C 
ENDROOT
BRANCH   1   8
ATOM      8  C   UNL     1       1.457   3.648  18.878  0.00  0.00    +0.000 C 
ATOM      9  O   UNL     1       1.368   2.770  18.031  0.00  0.00    +0.000 OA
BRANCH   8  10
ATOM     10  O   UNL     1       0.858   3.668  20.089  0.00  0.00    +0.000 OA
BRANCH  10  12
ATOM     11  C   UNL     1       2.457   2.533  21.456  0.00  0.00    +0.000 C 
ATOM     12  C   UNL     1       1.732   3.845  21.210  0.00  0.00    +0.000 C 
ENDBRANCH  10  12
ENDBRANCH   8  10
ENDBRANCH   1   8
BRANCH   4  13
ATOM     13  O   UNL     1       1.707   8.952  19.248  0.00  0.00    +0.000 OA
BRANCH  13  14
ATOM     14  C   UNL     1       0.675   9.970  19.154  0.00  0.00    +0.000 C 
ATOM     15  C   UNL     1      -0.197   9.636  17.945  0.00  0.00    +0.000 C 
ATOM     16  C   UNL     1      -0.165   9.847  20.436  0.00  0.00    +0.000 C 
ATOM     17  C   UNL     1       1.205  11.414  19.106  0.00  0.00    +0.000 C 
ENDBRANCH  13  14
ENDBRANCH   4  13
BRANCH   6  18
ATOM     18  C   UNL     1       4.664   6.926  16.828  0.00  0.00    +0.000 C 
BRANCH  18  19
ATOM     19  N   UNL     1       5.783   5.987  16.706  0.00  0.00    +0.000 N 
ATOM     20  C   UNL     1       6.857   6.129  17.581  0.00  0.00    +0.000 C 
ATOM     21  O   UNL     1       7.062   7.142  18.246  0.00  0.00    +0.000 OA
ATOM     22  C   UNL     1       7.688   4.864  17.761  0.00  0.00    +0.000 C 
ATOM     23  O   UNL     1       7.931   4.156  16.563  0.00  0.00    +0.000 OA
ATOM     24  C   UNL     1       6.726   3.895  15.866  0.00  0.00    +0.000 C 
ATOM     25  C   UNL     1       5.848   5.124  15.625  0.00  0.00    +0.000 C 
ATOM     26  O   UNL     1       5.211   5.275  14.586  0.00  0.00    +0.000 OA
ENDBRANCH  18  19
ENDBRANCH   6  18
TORSDOF 7
ENDMDL
MODEL 8
REMARK VINA RESULT:      -6.5      1.972      4.786
REMARK  Name = 
REMARK  11 active torsions:
REMARK  status: ('A' for Active; 'I' for Inactive)
REMARK    1  A    between atoms: C_1  and  C_2
REMARK    2  A    between atoms: C_2  and  O_3
REMARK    3  A    between atoms: O_3  and  C_4
REMARK    4  A    between atoms: C_4  and  C_6
REMARK    5  A    between atoms: C_9  and  O_11
REMARK    6  A    between atoms: O_11  and  C_12
REMARK    7  A    between atoms: C_12  and  C_13
REMARK    8  A    between atoms: C_12  and  C_14
REMARK    9  A    between atoms: C_12  and  C_15
REMARK   10  A    between atoms: C_16  and  C_17
REMARK   11  A    between atoms: C_17  and  N_18
REMARK                            x       y       z     vdW  Elec       q    Type
REMARK                         _______ _______ _______ _____ _____    ______ ____
ROOT
ATOM      1  C   UNL     1       2.418   7.585  18.979  0.00  0.00    +0.000 C 
ATOM      2  C   UNL     1       2.548   6.391  19.569  0.00  0.00    +0.000 C 
ATOM      3  N   UNL     1       3.664   5.739  19.101  0.00  0.00    +0.000 N 
ATOM      4  C   UNL     1       4.116   4.499  19.471  0.00  0.00    +0.000 C 
ATOM      5  O   UNL     1       5.311   4.253  19.567  0.00  0.00    +0.000 OA
ATOM      6  C   UNL     1       4.145   6.408  17.895  0.00  0.00    +0.000 C 
ATOM      7  C   UNL     1       3.503   7.808  17.974  0.00  0.00    +0.000 C 
ENDROOT
BRANCH   1   8
ATOM      8  C   UNL     1       1.497   8.667  19.330  0.00  0.00    +0.000 C 
ATOM      9  O   UNL     1       1.152   8.898  20.480  0.00  0.00    +0.000 OA
BRANCH   8  10
ATOM     10  O   UNL     1       1.003   9.235  18.207  0.00  0.00    +0.000 OA
BRANCH  10  12
ATOM     11  C   UNL     1      -1.185  10.110  17.805  0.00  0.00    +0.000 C 
ATOM     12  C   UNL     1       0.181  10.391  18.407  0.00  0.00    +0.000 C 
ENDBRANCH  10  12
ENDBRANCH   8  10
ENDBRANCH   1   8
BRANCH   4  13
ATOM     13  O   UNL     1       3.106   3.602  19.619  0.00  0.00    +0.000 OA
BRANCH  13  14
ATOM     14  C   UNL     1       2.720   2.743  18.512  0.00  0.00    +0.000 C 
ATOM     15  C   UNL     1       3.043   3.485  17.216  0.00  0.00    +0.000 C 
ATOM     16  C   UNL     1       3.607   1.491  18.614  0.00  0.00    +0.000 C 
ATOM     17  C   UNL     1       1.261   2.260  18.556  0.00  0.00    +0.000 C 
ENDBRANCH  13  14
ENDBRANCH   4  13
BRANCH   6  18
ATOM     18  C   UNL     1       5.658   6.450  17.599  0.00  0.00    +0.000 C 
BRANCH  18  19
ATOM     19  N   UNL     1       5.925   5.620  16.420  0.00  0.00    +0.000 N 
ATOM     20  C   UNL     1       6.888   4.620  16.525  0.00  0.00    +0.000 C 
ATOM     21  O   UNL     1       7.720   4.571  17.428  0.00  0.00    +0.000 OA
ATOM     22  C   UNL     1       6.740   3.499  15.503  0.00  0.00    +0.000 C 
ATOM     23  O   UNL     1       6.420   3.942  14.200  0.00  0.00    +0.000 OA
ATOM     24  C   UNL     1       5.289   4.795  14.210  0.00  0.00    +0.000 C 
ATOM     25  C   UNL     1       5.375   5.961  15.194  0.00  0.00    +0.000 C 
ATOM     26  O   UNL     1       4.926   7.073  14.928  0.00  0.00    +0.000 OA
ENDBRANCH  18  19
ENDBRANCH   6  18
TORSDOF 7
ENDMDL
MODEL 9
REMARK VINA RESULT:      -6.4      0.882      1.119
REMARK  Name = 
REMARK  11 active torsions:
REMARK  status: ('A' for Active; 'I' for Inactive)
REMARK    1  A    between atoms: C_1  and  C_2
REMARK    2  A    between atoms: C_2  and  O_3
REMARK    3  A    between atoms: O_3  and  C_4
REMARK    4  A    between atoms: C_4  and  C_6
REMARK    5  A    between atoms: C_9  and  O_11
REMARK    6  A    between atoms: O_11  and  C_12
REMARK    7  A    between atoms: C_12  and  C_13
REMARK    8  A    between atoms: C_12  and  C_14
REMARK    9  A    between atoms: C_12  and  C_15
REMARK   10  A    between atoms: C_16  and  C_17
REMARK   11  A    between atoms: C_17  and  N_18
REMARK                            x       y       z     vdW  Elec       q    Type
REMARK                         _______ _______ _______ _____ _____    ______ ____
ROOT
ATOM      1  C   UNL     1       2.078   8.271  18.495  0.00  0.00    +0.000 C 
ATOM      2  C   UNL     1       3.162   8.114  17.725  0.00  0.00    +0.000 C 
ATOM      3  N   UNL     1       3.479   6.782  17.604  0.00  0.00    +0.000 N 
ATOM      4  C   UNL     1       4.522   6.239  16.898  0.00  0.00    +0.000 C 
ATOM      5  O   UNL     1       4.407   5.178  16.298  0.00  0.00    +0.000 OA
ATOM      6  C   UNL     1       2.744   6.017  18.607  0.00  0.00    +0.000 C 
ATOM      7  C   UNL     1       1.587   6.955  19.007  0.00  0.00    +0.000 C 
ENDROOT
BRANCH   1   8
ATOM      8  C   UNL     1       1.297   9.490  18.711  0.00  0.00    +0.000 C 
ATOM      9  O   UNL     1       1.383  10.162  19.729  0.00  0.00    +0.000 OA
BRANCH   8  10
ATOM     10  O   UNL     1       0.401   9.647  17.711  0.00  0.00    +0.000 OA
BRANCH  10  12
ATOM     11  C   UNL     1      -1.915   9.870  17.162  0.00  0.00    +0.000 C 
ATOM     12  C   UNL     1      -0.789  10.367  18.052  0.00  0.00    +0.000 C 
ENDBRANCH  10  12
ENDBRANCH   8  10
ENDBRANCH   1   8
BRANCH   4  13
ATOM     13  O   UNL     1       5.666   6.959  17.028  0.00  0.00    +0.000 OA
BRANCH  13  14
ATOM     14  C   UNL     1       6.860   6.345  17.583  0.00  0.00    +0.000 C 
ATOM     15  C   UNL     1       7.459   5.440  16.507  0.00  0.00    +0.000 C 
ATOM     16  C   UNL     1       7.835   7.496  17.878  0.00  0.00    +0.000 C 
ATOM     17  C   UNL     1       6.637   5.599  18.910  0.00  0.00    +0.000 C 
ENDBRANCH  13  14
ENDBRANCH   4  13
BRANCH   6  18
ATOM     18  C   UNL     1       2.277   4.583  18.279  0.00  0.00    +0.000 C 
BRANCH  18  19
ATOM     19  N   UNL     1       2.575   3.722  19.428  0.00  0.00    +0.000 N 
ATOM     20  C   UNL     1       3.655   2.850  19.331  0.00  0.00    +0.000 C 
ATOM     21  O   UNL     1       4.190   2.547  18.267  0.00  0.00    +0.000 OA
ATOM     22  C   UNL     1       4.220   2.403  20.674  0.00  0.00    +0.000 C 
ATOM     23  O   UNL     1       3.238   2.098  21.643  0.00  0.00    +0.000 OA
ATOM     24  C   UNL     1       2.314   3.161  21.791  0.00  0.00    +0.000 C 
ATOM     25  C   UNL     1       1.684   3.647  20.487  0.00  0.00    +0.000 C 
ATOM     26  O   UNL     1       0.510   4.002  20.423  0.00  0.00    +0.000 OA
ENDBRANCH  18  19
ENDBRANCH   6  18
TORSDOF 7
ENDMDL
