MODEL 1
REMARK VINA RESULT:      -7.1      0.000      0.000
REMARK  Name = 
REMARK  7 active torsions:
REMARK  status: ('A' for Active; 'I' for Inactive)
REMARK    1  A    between atoms: C_2  and  C_3
REMARK    2  A    between atoms: C_7  and  C_8
REMARK    3  A    between atoms: C_8  and  C_9
REMARK    4  A    between atoms: N_11  and  C_12
REMARK    5  A    between atoms: C_12  and  C_13
REMARK    6  A    between atoms: C_16  and  O_17
REMARK    7  A    between atoms: C_18  and  O_19
REMARK                            x       y       z     vdW  Elec       q    Type
REMARK                         _______ _______ _______ _____ _____    ______ ____
ROOT
ATOM      1  C   UNL     1       7.671   7.227  17.839  0.00  0.00    +0.000 C 
ATOM      2  O   UNL     1       8.078   6.650  18.849  0.00  0.00    +0.000 OA
ATOM      3  N   UNL     1       7.906   8.570  17.631  0.00  0.00    +0.000 N 
ATOM      4  H   UNL     1       7.719   8.991  16.730  0.00  0.00    +0.000 HD
ENDROOT
BRANCH   1   5
ATOM      5  C   UNL     1       6.840   6.512  16.786  0.00  0.00    +0.000 C 
BRANCH   5  10
ATOM      6  C   UNL     1       3.865   4.281  17.748  0.00  0.00    +0.000 A 
ATOM      7  C   UNL     1       2.877   5.229  18.018  0.00  0.00    +0.000 A 
ATOM      8  C   UNL     1       3.169   6.587  17.867  0.00  0.00    +0.000 A 
ATOM      9  C   UNL     1       4.447   7.000  17.470  0.00  0.00    +0.000 A 
ATOM     10  C   UNL     1       5.461   6.064  17.227  0.00  0.00    +0.000 A 
ATOM     11  C   UNL     1       5.146   4.699  17.348  0.00  0.00    +0.000 A 
BRANCH   6  13
ATOM     12  N   UNL     1       3.413   1.739  17.996  0.00  0.00    +0.000 NA
ATOM     13  C   UNL     1       3.599   2.874  17.882  0.00  0.00    +0.000 C 
ENDBRANCH   6  13
ENDBRANCH   5  10
ENDBRANCH   1   5
BRANCH   3  14
ATOM     14  C   UNL     1       8.666   9.290  18.635  0.00  0.00    +0.000 C 
BRANCH  14  15
ATOM     15  C   UNL     1       9.149  10.647  18.200  0.00  0.00    +0.000 A 
ATOM     16  C   UNL     1      10.521  10.967  18.178  0.00  0.00    +0.000 A 
ATOM     17  C   UNL     1      10.949  12.251  17.816  0.00  0.00    +0.000 A 
ATOM     18  C   UNL     1      10.005  13.211  17.477  0.00  0.00    +0.000 A 
ATOM     19  C   UNL     1       8.648  12.901  17.508  0.00  0.00    +0.000 A 
ATOM     20  C   UNL     1       8.214  11.637  17.876  0.00  0.00    +0.000 A 
BRANCH  18  21
ATOM     21  O   UNL     1      10.361  14.479  17.114  0.00  0.00    +0.000 OA
ATOM     22  H   UNL     1      10.439  14.500  16.144  0.00  0.00    +0.000 HD
ENDBRANCH  18  21
BRANCH  19  23
ATOM     23  O   UNL     1       7.718  13.842  17.177  0.00  0.00    +0.000 OA
ATOM     24  H   UNL     1       7.972  14.132  16.278  0.00  0.00    +0.000 HD
ENDBRANCH  19  23
ENDBRANCH  14  15
ENDBRANCH   3  14
TORSDOF 7
ENDMDL
MODEL 2
REMARK VINA RESULT:      -7.0      6.298      8.018
REMARK  Name = 
REMARK  7 active torsions:
REMARK  status: ('A' for Active; 'I' for Inactive)
REMARK    1  A    between atoms: C_2  and  C_3
REMARK    2  A    between atoms: C_7  and  C_8
REMARK    3  A    between atoms: C_8  and  C_9
REMARK    4  A    between atoms: N_11  and  C_12
REMARK    5  A    between atoms: C_12  and  C_13
REMARK    6  A    between atoms: C_16  and  O_17
REMARK    7  A    between atoms: C_18  and  O_19
REMARK                            x       y       z     vdW  Elec       q    Type
REMARK                         _______ _______ _______ _____ _____    ______ ____
ROOT
ATOM      1  C   UNL     1       2.213   7.732  19.011  0.00  0.00    +0.000 C 
ATOM      2  O   UNL     1       2.141   7.523  20.224  0.00  0.00    +0.000 OA
ATOM      3  N   UNL     1       1.623   8.837  18.433  0.00  0.00    +0.000 N 
ATOM      4  H   UNL     1       1.829   9.088  17.475  0.00  0.00    +0.000 HD
ENDROOT
BRANCH   1   5
ATOM      5  C   UNL     1       2.908   6.762  18.069  0.00  0.00    +0.000 C 
BRANCH   5  10
ATOM      6  C   UNL     1       3.357   3.140  19.266  0.00  0.00    +0.000 A 
ATOM      7  C   UNL     1       2.190   2.540  18.792  0.00  0.00    +0.000 A 
ATOM      8  C   UNL     1       1.270   3.303  18.068  0.00  0.00    +0.000 A 
ATOM      9  C   UNL     1       1.501   4.663  17.835  0.00  0.00    +0.000 A 
ATOM     10  C   UNL     1       2.652   5.292  18.332  0.00  0.00    +0.000 A 
ATOM     11  C   UNL     1       3.587   4.506  19.028  0.00  0.00    +0.000 A 
BRANCH   6  13
ATOM     12  N   UNL     1       5.120   1.803  20.617  0.00  0.00    +0.000 NA
ATOM     13  C   UNL     1       4.332   2.385  20.007  0.00  0.00    +0.000 C 
ENDBRANCH   6  13
ENDBRANCH   5  10
ENDBRANCH   1   5
BRANCH   3  14
ATOM     14  C   UNL     1       0.922   9.764  19.301  0.00  0.00    +0.000 C 
BRANCH  14  15
ATOM     15  C   UNL     1      -0.363  10.303  18.734  0.00  0.00    +0.000 A 
ATOM     16  C   UNL     1      -0.938   9.757  17.569  0.00  0.00    +0.000 A 
ATOM     17  C   UNL     1      -2.110  10.303  17.028  0.00  0.00    +0.000 A 
ATOM     18  C   UNL     1      -2.703  11.392  17.653  0.00  0.00    +0.000 A 
ATOM     19  C   UNL     1      -2.131  11.940  18.798  0.00  0.00    +0.000 A 
ATOM     20  C   UNL     1      -0.966  11.414  19.334  0.00  0.00    +0.000 A 
BRANCH  18  21
ATOM     21  O   UNL     1      -3.847  11.966  17.174  0.00  0.00    +0.000 OA
ATOM     22  H   UNL     1      -3.619  12.854  16.848  0.00  0.00    +0.000 HD
ENDBRANCH  18  21
BRANCH  19  23
ATOM     23  O   UNL     1      -2.711  13.010  19.414  0.00  0.00    +0.000 OA
ATOM     24  H   UNL     1      -2.021  13.348  20.018  0.00  0.00    +0.000 HD
ENDBRANCH  19  23
ENDBRANCH  14  15
ENDBRANCH   3  14
TORSDOF 7
ENDMDL
MODEL 3
REMARK VINA RESULT:      -7.0      5.611      8.859
REMARK  Name = 
REMARK  7 active torsions:
REMARK  status: ('A' for Active; 'I' for Inactive)
REMARK    1  A    between atoms: C_2  and  C_3
REMARK    2  A    between atoms: C_7  and  C_8
REMARK    3  A    between atoms: C_8  and  C_9
REMARK    4  A    between atoms: N_11  and  C_12
REMARK    5  A    between atoms: C_12  and  C_13
REMARK    6  A    between atoms: C_16  and  O_17
REMARK    7  A    between atoms: C_18  and  O_19
REMARK                            x       y       z     vdW  Elec       q    Type
REMARK                         _______ _______ _______ _____ _____    ______ ____
ROOT
ATOM      1  C   UNL     1       1.616   9.199  18.575  0.00  0.00    +0.000 C 
ATOM      2  O   UNL     1       1.903   9.762  17.516  0.00  0.00    +0.000 OA
ATOM      3  N   UNL     1       2.126   7.959  18.894  0.00  0.00    +0.000 N 
ATOM      4  H   UNL     1       2.022   7.585  19.829  0.00  0.00    +0.000 HD
ENDROOT
BRANCH   1   5
ATOM      5  C   UNL     1       0.641   9.810  19.569  0.00  0.00    +0.000 C 
BRANCH   5  10
ATOM      6  C   UNL     1      -2.209  10.622  17.125  0.00  0.00    +0.000 A 
ATOM      7  C   UNL     1      -2.942  11.562  17.850  0.00  0.00    +0.000 A 
ATOM      8  C   UNL     1      -2.501  11.948  19.118  0.00  0.00    +0.000 A 
ATOM      9  C   UNL     1      -1.347  11.383  19.672  0.00  0.00    +0.000 A 
ATOM     10  C   UNL     1      -0.616  10.412  18.974  0.00  0.00    +0.000 A 
ATOM     11  C   UNL     1      -1.048  10.058  17.683  0.00  0.00    +0.000 A 
BRANCH   6  13
ATOM     12  N   UNL     1      -2.931   9.874  14.750  0.00  0.00    +0.000 NA
ATOM     13  C   UNL     1      -2.625  10.208  15.812  0.00  0.00    +0.000 C 
ENDBRANCH   6  13
ENDBRANCH   5  10
ENDBRANCH   1   5
BRANCH   3  14
ATOM     14  C   UNL     1       3.032   7.334  17.950  0.00  0.00    +0.000 C 
BRANCH  14  15
ATOM     15  C   UNL     1       3.545   5.984  18.375  0.00  0.00    +0.000 A 
ATOM     16  C   UNL     1       2.715   5.056  19.032  0.00  0.00    +0.000 A 
ATOM     17  C   UNL     1       3.222   3.823  19.463  0.00  0.00    +0.000 A 
ATOM     18  C   UNL     1       4.558   3.522  19.234  0.00  0.00    +0.000 A 
ATOM     19  C   UNL     1       5.385   4.442  18.594  0.00  0.00    +0.000 A 
ATOM     20  C   UNL     1       4.894   5.668  18.174  0.00  0.00    +0.000 A 
BRANCH  18  21
ATOM     21  O   UNL     1       5.110   2.336  19.629  0.00  0.00    +0.000 OA
ATOM     22  H   UNL     1       5.362   2.422  20.565  0.00  0.00    +0.000 HD
ENDBRANCH  18  21
BRANCH  19  23
ATOM     23  O   UNL     1       6.698   4.149  18.369  0.00  0.00    +0.000 OA
ATOM     24  H   UNL     1       6.800   3.227  18.678  0.00  0.00    +0.000 HD
ENDBRANCH  19  23
ENDBRANCH  14  15
ENDBRANCH   3  14
TORSDOF 7
ENDMDL
MODEL 4
REMARK VINA RESULT:      -7.0      4.903      7.254
REMARK  Name = 
REMARK  7 active torsions:
REMARK  status: ('A' for Active; 'I' for Inactive)
REMARK    1  A    between atoms: C_2  and  C_3
REMARK    2  A    between atoms: C_7  and  C_8
REMARK    3  A    between atoms: C_8  and  C_9
REMARK    4  A    between atoms: N_11  and  C_12
REMARK    5  A    between atoms: C_12  and  C_13
REMARK    6  A    between atoms: C_16  and  O_17
REMARK    7  A    between atoms: C_18  and  O_19
REMARK                            x       y       z     vdW  Elec       q    Type
REMARK                         _______ _______ _______ _____ _____    ______ ____
ROOT
ATOM      1  C   UNL     1       2.656   5.006  19.298  0.00  0.00    +0.000 C 
ATOM      2  O   UNL     1       1.898   4.476  18.484  0.00  0.00    +0.000 OA
ATOM      3  N   UNL     1       3.983   4.641  19.393  0.00  0.00    +0.000 N 
ATOM      4  H   UNL     1       4.631   5.194  19.939  0.00  0.00    +0.000 HD
ENDROOT
BRANCH   1   5
ATOM      5  C   UNL     1       2.169   6.057  20.283  0.00  0.00    +0.000 C 
BRANCH   5  10
ATOM      6  C   UNL     1       1.198   9.760  19.971  0.00  0.00    +0.000 A 
ATOM      7  C   UNL     1       1.493  10.017  18.631  0.00  0.00    +0.000 A 
ATOM      8  C   UNL     1       1.984   8.986  17.826  0.00  0.00    +0.000 A 
ATOM      9  C   UNL     1       2.202   7.710  18.359  0.00  0.00    +0.000 A 
ATOM     10  C   UNL     1       1.944   7.442  19.710  0.00  0.00    +0.000 A 
ATOM     11  C   UNL     1       1.416   8.477  20.502  0.00  0.00    +0.000 A 
BRANCH   6  13
ATOM     12  N   UNL     1       0.290  11.637  21.514  0.00  0.00    +0.000 NA
ATOM     13  C   UNL     1       0.681  10.793  20.828  0.00  0.00    +0.000 C 
ENDBRANCH   6  13
ENDBRANCH   5  10
ENDBRANCH   1   5
BRANCH   3  14
ATOM     14  C   UNL     1       4.470   3.616  18.490  0.00  0.00    +0.000 C 
BRANCH  14  15
ATOM     15  C   UNL     1       5.288   4.135  17.338  0.00  0.00    +0.000 A 
ATOM     16  C   UNL     1       5.282   3.493  16.084  0.00  0.00    +0.000 A 
ATOM     17  C   UNL     1       6.086   3.963  15.038  0.00  0.00    +0.000 A 
ATOM     18  C   UNL     1       6.893   5.073  15.247  0.00  0.00    +0.000 A 
ATOM     19  C   UNL     1       6.909   5.703  16.488  0.00  0.00    +0.000 A 
ATOM     20  C   UNL     1       6.126   5.239  17.533  0.00  0.00    +0.000 A 
BRANCH  18  21
ATOM     21  O   UNL     1       7.697   5.578  14.265  0.00  0.00    +0.000 OA
ATOM     22  H   UNL     1       8.607   5.602  14.608  0.00  0.00    +0.000 HD
ENDBRANCH  18  21
BRANCH  19  23
ATOM     23  O   UNL     1       7.701   6.794  16.698  0.00  0.00    +0.000 OA
ATOM     24  H   UNL     1       7.083   7.493  16.989  0.00  0.00    +0.000 HD
ENDBRANCH  19  23
ENDBRANCH  14  15
ENDBRANCH   3  14
TORSDOF 7
ENDMDL
MODEL 5
REMARK VINA RESULT:      -7.0      6.596      8.783
REMARK  Name = 
REMARK  7 active torsions:
REMARK  status: ('A' for Active; 'I' for Inactive)
REMARK    1  A    between atoms: C_2  and  C_3
REMARK    2  A    between atoms: C_7  and  C_8
REMARK    3  A    between atoms: C_8  and  C_9
REMARK    4  A    between atoms: N_11  and  C_12
REMARK    5  A    between atoms: C_12  and  C_13
REMARK    6  A    between atoms: C_16  and  O_17
REMARK    7  A    between atoms: C_18  and  O_19
REMARK                            x       y       z     vdW  Elec       q    Type
REMARK                         _______ _______ _______ _____ _____    ______ ____
ROOT
ATOM      1  C   UNL     1       1.592   8.483  19.801  0.00  0.00    +0.000 C 
ATOM      2  O   UNL     1       1.284   8.445  20.994  0.00  0.00    +0.000 OA
ATOM      3  N   UNL     1       0.985   9.360  18.927  0.00  0.00    +0.000 N 
ATOM      4  H   UNL     1       1.359   9.502  17.998  0.00  0.00    +0.000 HD
ENDROOT
BRANCH   1   5
ATOM      5  C   UNL     1       2.619   7.533  19.207  0.00  0.00    +0.000 C 
BRANCH   5  10
ATOM      6  C   UNL     1       1.691   3.924  20.139  0.00  0.00    +0.000 A 
ATOM      7  C   UNL     1       1.420   3.371  18.887  0.00  0.00    +0.000 A 
ATOM      8  C   UNL     1       1.559   4.159  17.742  0.00  0.00    +0.000 A 
ATOM      9  C   UNL     1       1.945   5.501  17.846  0.00  0.00    +0.000 A 
ATOM     10  C   UNL     1       2.189   6.084  19.097  0.00  0.00    +0.000 A 
ATOM     11  C   UNL     1       2.081   5.271  20.239  0.00  0.00    +0.000 A 
BRANCH   6  13
ATOM     12  N   UNL     1       1.450   2.496  22.290  0.00  0.00    +0.000 NA
ATOM     13  C   UNL     1       1.569   3.141  21.339  0.00  0.00    +0.000 C 
ENDBRANCH   6  13
ENDBRANCH   5  10
ENDBRANCH   1   5
BRANCH   3  14
ATOM     14  C   UNL     1      -0.025  10.257  19.457  0.00  0.00    +0.000 C 
BRANCH  14  15
ATOM     15  C   UNL     1      -1.237  10.421  18.581  0.00  0.00    +0.000 A 
ATOM     16  C   UNL     1      -1.366   9.721  17.364  0.00  0.00    +0.000 A 
ATOM     17  C   UNL     1      -2.480   9.923  16.539  0.00  0.00    +0.000 A 
ATOM     18  C   UNL     1      -3.462  10.822  16.932  0.00  0.00    +0.000 A 
ATOM     19  C   UNL     1      -3.333  11.523  18.128  0.00  0.00    +0.000 A 
ATOM     20  C   UNL     1      -2.229  11.339  18.946  0.00  0.00    +0.000 A 
BRANCH  18  21
ATOM     21  O   UNL     1      -4.571  11.060  16.170  0.00  0.00    +0.000 OA
ATOM     22  H   UNL     1      -5.313  11.239  16.774  0.00  0.00    +0.000 HD
ENDBRANCH  18  21
BRANCH  19  23
ATOM     23  O   UNL     1      -4.296  12.407  18.516  0.00  0.00    +0.000 OA
ATOM     24  H   UNL     1      -5.081  11.852  18.692  0.00  0.00    +0.000 HD
ENDBRANCH  19  23
ENDBRANCH  14  15
ENDBRANCH   3  14
TORSDOF 7
ENDMDL
MODEL 6
REMARK VINA RESULT:      -6.9      5.565      8.905
REMARK  Name = 
REMARK  7 active torsions:
REMARK  status: ('A' for Active; 'I' for Inactive)
REMARK    1  A    between atoms: C_2  and  C_3
REMARK    2  A    between atoms: C_7  and  C_8
REMARK    3  A    between atoms: C_8  and  C_9
REMARK    4  A    between atoms: N_11  and  C_12
REMARK    5  A    between atoms: C_12  and  C_13
REMARK    6  A    between atoms: C_16  and  O_17
REMARK    7  A    between atoms: C_18  and  O_19
REMARK                            x       y       z     vdW  Elec       q    Type
REMARK                         _______ _______ _______ _____ _____    ______ ____
ROOT
ATOM      1  C   UNL     1       5.072   5.083  16.605  0.00  0.00    +0.000 C 
ATOM      2  O   UNL     1       4.690   6.236  16.818  0.00  0.00    +0.000 OA
ATOM      3  N   UNL     1       4.227   4.004  16.759  0.00  0.00    +0.000 N 
ATOM      4  H   UNL     1       4.496   3.088  16.421  0.00  0.00    +0.000 HD
ENDROOT
BRANCH   1   5
ATOM      5  C   UNL     1       6.507   4.772  16.212  0.00  0.00    +0.000 C 
BRANCH   5  10
ATOM      6  C   UNL     1       6.417   3.593  12.557  0.00  0.00    +0.000 A 
ATOM      7  C   UNL     1       7.305   4.482  11.952  0.00  0.00    +0.000 A 
ATOM      8  C   UNL     1       7.948   5.448  12.731  0.00  0.00    +0.000 A 
ATOM      9  C   UNL     1       7.690   5.541  14.104  0.00  0.00    +0.000 A 
ATOM     10  C   UNL     1       6.776   4.678  14.723  0.00  0.00    +0.000 A 
ATOM     11  C   UNL     1       6.162   3.688  13.937  0.00  0.00    +0.000 A 
BRANCH   6  13
ATOM     12  N   UNL     1       5.207   1.746  11.197  0.00  0.00    +0.000 NA
ATOM     13  C   UNL     1       5.744   2.578  11.791  0.00  0.00    +0.000 C 
ENDBRANCH   6  13
ENDBRANCH   5  10
ENDBRANCH   1   5
BRANCH   3  14
ATOM     14  C   UNL     1       2.860   4.264  17.167  0.00  0.00    +0.000 C 
BRANCH  14  15
ATOM     15  C   UNL     1       2.506   3.747  18.535  0.00  0.00    +0.000 A 
ATOM     16  C   UNL     1       1.224   3.939  19.085  0.00  0.00    +0.000 A 
ATOM     17  C   UNL     1       0.927   3.493  20.379  0.00  0.00    +0.000 A 
ATOM     18  C   UNL     1       1.914   2.857  21.120  0.00  0.00    +0.000 A 
ATOM     19  C   UNL     1       3.186   2.675  20.584  0.00  0.00    +0.000 A 
ATOM     20  C   UNL     1       3.492   3.123  19.309  0.00  0.00    +0.000 A 
BRANCH  18  21
ATOM     21  O   UNL     1       1.684   2.398  22.387  0.00  0.00    +0.000 OA
ATOM     22  H   UNL     1       2.007   1.481  22.434  0.00  0.00    +0.000 HD
ENDBRANCH  18  21
BRANCH  19  23
ATOM     23  O   UNL     1       4.157   2.051  21.310  0.00  0.00    +0.000 OA
ATOM     24  H   UNL     1       4.409   1.277  20.768  0.00  0.00    +0.000 HD
ENDBRANCH  19  23
ENDBRANCH  14  15
ENDBRANCH   3  14
TORSDOF 7
ENDMDL
MODEL 7
REMARK VINA RESULT:      -6.9      1.034      1.050
REMARK  Name = 
REMARK  7 active torsions:
REMARK  status: ('A' for Active; 'I' for Inactive)
REMARK    1  A    between atoms: C_2  and  C_3
REMARK    2  A    between atoms: C_7  and  C_8
REMARK    3  A    between atoms: C_8  and  C_9
REMARK    4  A    between atoms: N_11  and  C_12
REMARK    5  A    between atoms: C_12  and  C_13
REMARK    6  A    between atoms: C_16  and  O_17
REMARK    7  A    between atoms: C_18  and  O_19
REMARK                            x       y       z     vdW  Elec       q    Type
REMARK                         _______ _______ _______ _____ _____    ______ ____
ROOT
ATOM      1  C   UNL     1       7.069   7.042  17.604  0.00  0.00    +0.000 C 
ATOM      2  O   UNL     1       7.368   6.264  18.512  0.00  0.00    +0.000 OA
ATOM      3  N   UNL     1       7.661   8.283  17.492  0.00  0.00    +0.000 N 
ATOM      4  H   UNL     1       7.536   8.839  16.656  0.00  0.00    +0.000 HD
ENDROOT
BRANCH   1   5
ATOM      5  C   UNL     1       5.995   6.707  16.581  0.00  0.00    +0.000 C 
BRANCH   5  10
ATOM      6  C   UNL     1       3.058   4.474  17.649  0.00  0.00    +0.000 A 
ATOM      7  C   UNL     1       2.168   5.411  18.176  0.00  0.00    +0.000 A 
ATOM      8  C   UNL     1       2.511   6.766  18.165  0.00  0.00    +0.000 A 
ATOM      9  C   UNL     1       3.744   7.183  17.651  0.00  0.00    +0.000 A 
ATOM     10  C   UNL     1       4.665   6.253  17.148  0.00  0.00    +0.000 A 
ATOM     11  C   UNL     1       4.294   4.897  17.132  0.00  0.00    +0.000 A 
BRANCH   6  13
ATOM     12  N   UNL     1       2.472   1.948  17.650  0.00  0.00    +0.000 NA
ATOM     13  C   UNL     1       2.736   3.072  17.634  0.00  0.00    +0.000 C 
ENDBRANCH   6  13
ENDBRANCH   5  10
ENDBRANCH   1   5
BRANCH   3  14
ATOM     14  C   UNL     1       8.665   8.646  18.473  0.00  0.00    +0.000 C 
BRANCH  14  15
ATOM     15  C   UNL     1       8.945  10.122  18.565  0.00  0.00    +0.000 A 
ATOM     16  C   UNL     1       9.759  10.654  19.583  0.00  0.00    +0.000 A 
ATOM     17  C   UNL     1       9.969  12.036  19.681  0.00  0.00    +0.000 A 
ATOM     18  C   UNL     1       9.365  12.881  18.760  0.00  0.00    +0.000 A 
ATOM     19  C   UNL     1       8.551  12.359  17.759  0.00  0.00    +0.000 A 
ATOM     20  C   UNL     1       8.328  10.995  17.660  0.00  0.00    +0.000 A 
BRANCH  18  21
ATOM     21  O   UNL     1       9.534  14.236  18.803  0.00  0.00    +0.000 OA
ATOM     22  H   UNL     1       8.763  14.618  19.257  0.00  0.00    +0.000 HD
ENDBRANCH  18  21
BRANCH  19  23
ATOM     23  O   UNL     1       7.956  13.187  16.853  0.00  0.00    +0.000 OA
ATOM     24  H   UNL     1       8.388  12.971  16.003  0.00  0.00    +0.000 HD
ENDBRANCH  19  23
ENDBRANCH  14  15
ENDBRANCH   3  14
TORSDOF 7
ENDMDL
MODEL 8
REMARK VINA RESULT:      -6.9      1.775      2.361
REMARK  Name = 
REMARK  7 active torsions:
REMARK  status: ('A' for Active; 'I' for Inactive)
REMARK    1  A    between atoms: C_2  and  C_3
REMARK    2  A    between atoms: C_7  and  C_8
REMARK    3  A    between atoms: C_8  and  C_9
REMARK    4  A    between atoms: N_11  and  C_12
REMARK    5  A    between atoms: C_12  and  C_13
REMARK    6  A    between atoms: C_16  and  O_17
REMARK    7  A    between atoms: C_18  and  O_19
REMARK                            x       y       z     vdW  Elec       q    Type
REMARK                         _______ _______ _______ _____ _____    ______ ____
ROOT
ATOM      1  C   UNL     1       7.500   7.083  17.726  0.00  0.00    +0.000 C 
ATOM      2  O   UNL     1       7.940   6.450  18.687  0.00  0.00    +0.000 OA
ATOM      3  N   UNL     1       7.793   8.419  17.547  0.00  0.00    +0.000 N 
ATOM      4  H   UNL     1       7.570   8.882  16.675  0.00  0.00    +0.000 HD
ENDROOT
BRANCH   1   5
ATOM      5  C   UNL     1       6.565   6.450  16.707  0.00  0.00    +0.000 C 
BRANCH   5  10
ATOM      6  C   UNL     1       2.949   7.131  17.810  0.00  0.00    +0.000 A 
ATOM      7  C   UNL     1       2.483   5.840  18.062  0.00  0.00    +0.000 A 
ATOM      8  C   UNL     1       3.346   4.754  17.896  0.00  0.00    +0.000 A 
ATOM      9  C   UNL     1       4.661   4.951  17.459  0.00  0.00    +0.000 A 
ATOM     10  C   UNL     1       5.137   6.237  17.168  0.00  0.00    +0.000 A 
ATOM     11  C   UNL     1       4.271   7.326  17.374  0.00  0.00    +0.000 A 
BRANCH   6  13
ATOM     12  N   UNL     1       1.412   9.201  18.089  0.00  0.00    +0.000 NA
ATOM     13  C   UNL     1       2.093   8.275  17.980  0.00  0.00    +0.000 C 
ENDBRANCH   6  13
ENDBRANCH   5  10
ENDBRANCH   1   5
BRANCH   3  14
ATOM     14  C   UNL     1       8.655   9.061  18.520  0.00  0.00    +0.000 C 
BRANCH  14  15
ATOM     15  C   UNL     1       9.065  10.464  18.164  0.00  0.00    +0.000 A 
ATOM     16  C   UNL     1      10.404  10.888  18.269  0.00  0.00    +0.000 A 
ATOM     17  C   UNL     1      10.759  12.212  17.979  0.00  0.00    +0.000 A 
ATOM     18  C   UNL     1       9.775  13.108  17.583  0.00  0.00    +0.000 A 
ATOM     19  C   UNL     1       8.448  12.695  17.487  0.00  0.00    +0.000 A 
ATOM     20  C   UNL     1       8.086  11.390  17.784  0.00  0.00    +0.000 A 
BRANCH  18  21
ATOM     21  O   UNL     1      10.060  14.410  17.284  0.00  0.00    +0.000 OA
ATOM     22  H   UNL     1      10.107  14.904  18.121  0.00  0.00    +0.000 HD
ENDBRANCH  18  21
BRANCH  19  23
ATOM     23  O   UNL     1       7.479  13.572  17.099  0.00  0.00    +0.000 OA
ATOM     24  H   UNL     1       6.798  13.510  17.799  0.00  0.00    +0.000 HD
ENDBRANCH  19  23
ENDBRANCH  14  15
ENDBRANCH   3  14
TORSDOF 7
ENDMDL
MODEL 9
REMARK VINA RESULT:      -6.9      5.174      7.446
REMARK  Name = 
REMARK  7 active torsions:
REMARK  status: ('A' for Active; 'I' for Inactive)
REMARK    1  A    between atoms: C_2  and  C_3
REMARK    2  A    between atoms: C_7  and  C_8
REMARK    3  A    between atoms: C_8  and  C_9
REMARK    4  A    between atoms: N_11  and  C_12
REMARK    5  A    between atoms: C_12  and  C_13
REMARK    6  A    between atoms: C_16  and  O_17
REMARK    7  A    between atoms: C_18  and  O_19
REMARK                            x       y       z     vdW  Elec       q    Type
REMARK                         _______ _______ _______ _____ _____    ______ ____
ROOT
ATOM      1  C   UNL     1       2.625   5.110  19.284  0.00  0.00    +0.000 C 
ATOM      2  O   UNL     1       1.835   4.542  18.528  0.00  0.00    +0.000 OA
ATOM      3  N   UNL     1       3.964   4.779  19.308  0.00  0.00    +0.000 N 
ATOM      4  H   UNL     1       4.629   5.361  19.802  0.00  0.00    +0.000 HD
ENDROOT
BRANCH   1   5
ATOM      5  C   UNL     1       2.170   6.171  20.272  0.00  0.00    +0.000 C 
BRANCH   5  10
ATOM      6  C   UNL     1       0.968   9.799  19.884  0.00  0.00    +0.000 A 
ATOM      7  C   UNL     1       1.386  10.096  18.586  0.00  0.00    +0.000 A 
ATOM      8  C   UNL     1       2.036   9.116  17.832  0.00  0.00    +0.000 A 
ATOM      9  C   UNL     1       2.289   7.852  18.376  0.00  0.00    +0.000 A 
ATOM     10  C   UNL     1       1.907   7.545  19.689  0.00  0.00    +0.000 A 
ATOM     11  C   UNL     1       1.222   8.527  20.426  0.00  0.00    +0.000 A 
BRANCH   6  13
ATOM     12  N   UNL     1      -0.235  11.579  21.336  0.00  0.00    +0.000 NA
ATOM     13  C   UNL     1       0.287  10.778  20.688  0.00  0.00    +0.000 C 
ENDBRANCH   6  13
ENDBRANCH   5  10
ENDBRANCH   1   5
BRANCH   3  14
ATOM     14  C   UNL     1       4.425   3.746  18.400  0.00  0.00    +0.000 C 
BRANCH  14  15
ATOM     15  C   UNL     1       5.371   4.226  17.334  0.00  0.00    +0.000 A 
ATOM     16  C   UNL     1       6.192   5.354  17.533  0.00  0.00    +0.000 A 
ATOM     17  C   UNL     1       7.032   5.815  16.511  0.00  0.00    +0.000 A 
ATOM     18  C   UNL     1       7.050   5.147  15.294  0.00  0.00    +0.000 A 
ATOM     19  C   UNL     1       6.233   4.039  15.091  0.00  0.00    +0.000 A 
ATOM     20  C   UNL     1       5.390   3.582  16.091  0.00  0.00    +0.000 A 
BRANCH  18  21
ATOM     21  O   UNL     1       7.850   5.548  14.261  0.00  0.00    +0.000 OA
ATOM     22  H   UNL     1       7.926   4.804  13.638  0.00  0.00    +0.000 HD
ENDBRANCH  18  21
BRANCH  19  23
ATOM     23  O   UNL     1       6.249   3.381  13.896  0.00  0.00    +0.000 OA
ATOM     24  H   UNL     1       7.175   3.449  13.591  0.00  0.00    +0.000 HD
ENDBRANCH  19  23
ENDBRANCH  14  15
ENDBRANCH   3  14
TORSDOF 7
ENDMDL
