MODEL 1
REMARK VINA RESULT:      -9.1      0.000      0.000
REMARK  Name = 
REMARK  6 active torsions:
REMARK  status: ('A' for Active; 'I' for Inactive)
REMARK    1  A    between atoms: C_2  and  C_4
REMARK    2  A    between atoms: N_7  and  C_8
REMARK    3  A    between atoms: C_20  and  N_21
REMARK    4  A    between atoms: C_22  and  C_24
REMARK    5  A    between atoms: C_27  and  C_28
REMARK    6  A    between atoms: C_28  and  N_29
REMARK                            x       y       z     vdW  Elec       q    Type
REMARK                         _______ _______ _______ _____ _____    ______ ____
ROOT
ATOM      1  C   UNL     1       1.228   9.226  19.309  0.00  0.00    +0.000 A 
ATOM      2  N   UNL     1       2.140   8.189  19.114  0.00  0.00    +0.000 NA
ATOM      3  C   UNL     1       2.106   7.341  20.114  0.00  0.00    +0.000 A 
ATOM      4  N   UNL     1       2.875   6.234  20.216  0.00  0.00    +0.000 N 
ATOM      5  S   UNL     1       0.984   7.735  21.334  0.00  0.00    +0.000 S 
ATOM      6  C   UNL     1       0.500   9.141  20.484  0.00  0.00    +0.000 A 
ATOM      7  H   UNL     1       2.905   5.737  21.098  0.00  0.00    +0.000 HD
ENDROOT
BRANCH   4   8
ATOM      8  C   UNL     1       3.374   5.522  19.111  0.00  0.00    +0.000 A 
ATOM      9  C   UNL     1       3.322   4.127  19.105  0.00  0.00    +0.000 A 
ATOM     10  C   UNL     1       3.923   3.399  18.073  0.00  0.00    +0.000 A 
ATOM     11  C   UNL     1       4.585   4.056  17.021  0.00  0.00    +0.000 A 
ATOM     12  C   UNL     1       5.223   3.352  15.991  0.00  0.00    +0.000 A 
ATOM     13  C   UNL     1       5.878   4.044  14.975  0.00  0.00    +0.000 A 
ATOM     14  F   UNL     1       6.495   3.359  14.004  0.00  0.00    +0.000 F 
ATOM     15  C   UNL     1       5.909   5.432  14.951  0.00  0.00    +0.000 A 
ATOM     16  C   UNL     1       5.277   6.145  15.965  0.00  0.00    +0.000 A 
ATOM     17  C   UNL     1       4.622   5.467  17.005  0.00  0.00    +0.000 A 
ATOM     18  C   UNL     1       4.014   6.174  18.047  0.00  0.00    +0.000 A 
ENDBRANCH   4   8
BRANCH   1  20
ATOM     19  N   UNL     1      -0.036  10.295  17.626  0.00  0.00    +0.000 N 
ATOM     20  C   UNL     1       1.149  10.288  18.312  0.00  0.00    +0.000 C 
ATOM     21  O   UNL     1       2.048  11.093  18.097  0.00  0.00    +0.000 OA
ATOM     22  H   UNL     1      -0.194  10.938  16.867  0.00  0.00    +0.000 HD
ATOM     23  H   UNL     1      -0.719   9.569  17.827  0.00  0.00    +0.000 HD
ENDBRANCH   1  20
BRANCH   6  24
ATOM     24  N   UNL     1      -0.507   9.976  20.971  0.00  0.00    +0.000 N 
ATOM     25  C   UNL     1      -0.262  11.223  21.524  0.00  0.00    +0.000 C 
ATOM     26  O   UNL     1       0.830  11.782  21.574  0.00  0.00    +0.000 OA
ATOM     27  H   UNL     1      -1.458   9.646  20.847  0.00  0.00    +0.000 HD
BRANCH  25  28
ATOM     28  C   UNL     1      -1.392  11.973  22.135  0.00  0.00    +0.000 A 
ATOM     29  C   UNL     1      -1.804  13.131  21.453  0.00  0.00    +0.000 A 
ATOM     30  C   UNL     1      -2.905  13.867  21.884  0.00  0.00    +0.000 A 
ATOM     31  C   UNL     1      -3.621  13.461  23.015  0.00  0.00    +0.000 A 
ATOM     32  C   UNL     1      -3.211  12.302  23.698  0.00  0.00    +0.000 A 
ATOM     33  C   UNL     1      -2.098  11.561  23.265  0.00  0.00    +0.000 A 
BRANCH  31  34
ATOM     34  C   UNL     1      -4.807  14.275  23.471  0.00  0.00    +0.000 C 
BRANCH  34  35
ATOM     35  N   UNL     1      -6.074  13.619  23.200  0.00  0.00    +0.000 N 
ATOM     36  C   UNL     1      -6.841  12.920  24.093  0.00  0.00    +0.000 A 
ATOM     37  C   UNL     1      -7.834  12.345  23.335  0.00  0.00    +0.000 A 
ATOM     38  N   UNL     1      -7.694  12.684  22.014  0.00  0.00    +0.000 NA
ATOM     39  C   UNL     1      -6.631  13.453  21.964  0.00  0.00    +0.000 A 
ENDBRANCH  34  35
ENDBRANCH  31  34
ENDBRANCH  25  28
ENDBRANCH   6  24
TORSDOF 6
ENDMDL
MODEL 2
REMARK VINA RESULT:      -9.0      1.028      1.028
REMARK  Name = 
REMARK  6 active torsions:
REMARK  status: ('A' for Active; 'I' for Inactive)
REMARK    1  A    between atoms: C_2  and  C_4
REMARK    2  A    between atoms: N_7  and  C_8
REMARK    3  A    between atoms: C_20  and  N_21
REMARK    4  A    between atoms: C_22  and  C_24
REMARK    5  A    between atoms: C_27  and  C_28
REMARK    6  A    between atoms: C_28  and  N_29
REMARK                            x       y       z     vdW  Elec       q    Type
REMARK                         _______ _______ _______ _____ _____    ______ ____
ROOT
ATOM      1  C   UNL     1       0.928   9.725  19.495  0.00  0.00    +0.000 A 
ATOM      2  N   UNL     1       1.807   8.670  19.255  0.00  0.00    +0.000 NA
ATOM      3  C   UNL     1       1.803   7.820  20.254  0.00  0.00    +0.000 A 
ATOM      4  N   UNL     1       2.552   6.696  20.317  0.00  0.00    +0.000 N 
ATOM      5  S   UNL     1       0.748   8.234  21.527  0.00  0.00    +0.000 S 
ATOM      6  C   UNL     1       0.255   9.652  20.703  0.00  0.00    +0.000 A 
ATOM      7  H   UNL     1       2.613   6.196  21.196  0.00  0.00    +0.000 HD
ENDROOT
BRANCH   4   8
ATOM      8  C   UNL     1       2.982   5.977  19.189  0.00  0.00    +0.000 A 
ATOM      9  C   UNL     1       2.518   4.678  18.976  0.00  0.00    +0.000 A 
ATOM     10  C   UNL     1       3.028   3.904  17.928  0.00  0.00    +0.000 A 
ATOM     11  C   UNL     1       4.012   4.420  17.068  0.00  0.00    +0.000 A 
ATOM     12  C   UNL     1       4.564   3.657  16.030  0.00  0.00    +0.000 A 
ATOM     13  C   UNL     1       5.547   4.204  15.209  0.00  0.00    +0.000 A 
ATOM     14  F   UNL     1       6.076   3.460  14.229  0.00  0.00    +0.000 F 
ATOM     15  C   UNL     1       5.995   5.506  15.387  0.00  0.00    +0.000 A 
ATOM     16  C   UNL     1       5.454   6.277  16.412  0.00  0.00    +0.000 A 
ATOM     17  C   UNL     1       4.471   5.741  17.259  0.00  0.00    +0.000 A 
ATOM     18  C   UNL     1       3.947   6.496  18.312  0.00  0.00    +0.000 A 
ENDBRANCH   4   8
BRANCH   1  20
ATOM     19  N   UNL     1       1.994  11.010  17.825  0.00  0.00    +0.000 N 
ATOM     20  C   UNL     1       0.825  10.792  18.505  0.00  0.00    +0.000 C 
ATOM     21  O   UNL     1      -0.196  11.438  18.298  0.00  0.00    +0.000 OA
ATOM     22  H   UNL     1       2.075  11.762  17.159  0.00  0.00    +0.000 HD
ATOM     23  H   UNL     1       2.814  10.466  18.081  0.00  0.00    +0.000 HD
ENDBRANCH   1  20
BRANCH   6  24
ATOM     24  N   UNL     1      -0.709  10.508  21.240  0.00  0.00    +0.000 N 
ATOM     25  C   UNL     1      -0.408  11.733  21.813  0.00  0.00    +0.000 C 
ATOM     26  O   UNL     1       0.703  12.255  21.843  0.00  0.00    +0.000 OA
ATOM     27  H   UNL     1      -1.674  10.211  21.136  0.00  0.00    +0.000 HD
BRANCH  25  28
ATOM     28  C   UNL     1      -1.495  12.504  22.475  0.00  0.00    +0.000 A 
ATOM     29  C   UNL     1      -1.483  13.893  22.263  0.00  0.00    +0.000 A 
ATOM     30  C   UNL     1      -2.497  14.706  22.761  0.00  0.00    +0.000 A 
ATOM     31  C   UNL     1      -3.551  14.146  23.491  0.00  0.00    +0.000 A 
ATOM     32  C   UNL     1      -3.565  12.756  23.703  0.00  0.00    +0.000 A 
ATOM     33  C   UNL     1      -2.540  11.935  23.203  0.00  0.00    +0.000 A 
BRANCH  31  34
ATOM     34  C   UNL     1      -4.636  15.043  24.030  0.00  0.00    +0.000 C 
BRANCH  34  35
ATOM     35  N   UNL     1      -5.915  14.831  23.375  0.00  0.00    +0.000 N 
ATOM     36  C   UNL     1      -7.033  14.265  23.927  0.00  0.00    +0.000 A 
ATOM     37  C   UNL     1      -7.912  14.119  22.879  0.00  0.00    +0.000 A 
ATOM     38  N   UNL     1      -7.362  14.588  21.715  0.00  0.00    +0.000 NA
ATOM     39  C   UNL     1      -6.163  15.013  22.044  0.00  0.00    +0.000 A 
ENDBRANCH  34  35
ENDBRANCH  31  34
ENDBRANCH  25  28
ENDBRANCH   6  24
TORSDOF 6
ENDMDL
MODEL 3
REMARK VINA RESULT:      -8.8      1.828      2.590
REMARK  Name = 
REMARK  6 active torsions:
REMARK  status: ('A' for Active; 'I' for Inactive)
REMARK    1  A    between atoms: C_2  and  C_4
REMARK    2  A    between atoms: N_7  and  C_8
REMARK    3  A    between atoms: C_20  and  N_21
REMARK    4  A    between atoms: C_22  and  C_24
REMARK    5  A    between atoms: C_27  and  C_28
REMARK    6  A    between atoms: C_28  and  N_29
REMARK                            x       y       z     vdW  Elec       q    Type
REMARK                         _______ _______ _______ _____ _____    ______ ____
ROOT
ATOM      1  C   UNL     1       0.783  10.016  19.690  0.00  0.00    +0.000 A 
ATOM      2  N   UNL     1       1.555   8.857  19.639  0.00  0.00    +0.000 NA
ATOM      3  C   UNL     1       1.205   8.018  20.585  0.00  0.00    +0.000 A 
ATOM      4  N   UNL     1       1.771   6.809  20.796  0.00  0.00    +0.000 N 
ATOM      5  S   UNL     1      -0.065   8.568  21.579  0.00  0.00    +0.000 S 
ATOM      6  C   UNL     1      -0.166  10.034  20.699  0.00  0.00    +0.000 A 
ATOM      7  H   UNL     1       1.556   6.309  21.649  0.00  0.00    +0.000 HD
ENDROOT
BRANCH   4   8
ATOM      8  C   UNL     1       2.368   6.036  19.784  0.00  0.00    +0.000 A 
ATOM      9  C   UNL     1       2.307   4.644  19.849  0.00  0.00    +0.000 A 
ATOM     10  C   UNL     1       2.999   3.859  18.920  0.00  0.00    +0.000 A 
ATOM     11  C   UNL     1       3.762   4.455  17.902  0.00  0.00    +0.000 A 
ATOM     12  C   UNL     1       4.490   3.695  16.978  0.00  0.00    +0.000 A 
ATOM     13  C   UNL     1       5.244   4.329  15.993  0.00  0.00    +0.000 A 
ATOM     14  F   UNL     1       5.947   3.590  15.124  0.00  0.00    +0.000 F 
ATOM     15  C   UNL     1       5.288   5.713  15.896  0.00  0.00    +0.000 A 
ATOM     16  C   UNL     1       4.567   6.482  16.805  0.00  0.00    +0.000 A 
ATOM     17  C   UNL     1       3.811   5.863  17.813  0.00  0.00    +0.000 A 
ATOM     18  C   UNL     1       3.112   6.627  18.751  0.00  0.00    +0.000 A 
ENDBRANCH   4   8
BRANCH   1  20
ATOM     19  N   UNL     1       1.910  10.704  17.733  0.00  0.00    +0.000 N 
ATOM     20  C   UNL     1       1.054  11.084  18.733  0.00  0.00    +0.000 C 
ATOM     21  O   UNL     1       0.576  12.210  18.810  0.00  0.00    +0.000 OA
ATOM     22  H   UNL     1       2.229  11.366  17.043  0.00  0.00    +0.000 HD
ATOM     23  H   UNL     1       2.302   9.767  17.758  0.00  0.00    +0.000 HD
ENDBRANCH   1  20
BRANCH   6  24
ATOM     24  N   UNL     1      -1.116  11.007  21.012  0.00  0.00    +0.000 N 
ATOM     25  C   UNL     1      -1.232  11.586  22.266  0.00  0.00    +0.000 C 
ATOM     26  O   UNL     1      -0.478  11.392  23.216  0.00  0.00    +0.000 OA
ATOM     27  H   UNL     1      -1.698  11.324  20.243  0.00  0.00    +0.000 HD
BRANCH  25  28
ATOM     28  C   UNL     1      -2.365  12.513  22.528  0.00  0.00    +0.000 A 
ATOM     29  C   UNL     1      -3.137  12.237  23.670  0.00  0.00    +0.000 A 
ATOM     30  C   UNL     1      -4.170  13.084  24.063  0.00  0.00    +0.000 A 
ATOM     31  C   UNL     1      -4.459  14.231  23.317  0.00  0.00    +0.000 A 
ATOM     32  C   UNL     1      -3.687  14.509  22.175  0.00  0.00    +0.000 A 
ATOM     33  C   UNL     1      -2.646  13.653  21.776  0.00  0.00    +0.000 A 
BRANCH  31  34
ATOM     34  C   UNL     1      -5.586  15.133  23.753  0.00  0.00    +0.000 C 
BRANCH  34  35
ATOM     35  N   UNL     1      -5.118  16.324  24.439  0.00  0.00    +0.000 N 
ATOM     36  C   UNL     1      -5.759  17.531  24.512  0.00  0.00    +0.000 A 
ATOM     37  C   UNL     1      -4.852  18.381  25.101  0.00  0.00    +0.000 A 
ATOM     38  N   UNL     1      -3.687  17.720  25.394  0.00  0.00    +0.000 NA
ATOM     39  C   UNL     1      -3.878  16.485  24.988  0.00  0.00    +0.000 A 
ENDBRANCH  34  35
ENDBRANCH  31  34
ENDBRANCH  25  28
ENDBRANCH   6  24
TORSDOF 6
ENDMDL
MODEL 4
REMARK VINA RESULT:      -8.7      1.511      1.943
REMARK  Name = 
REMARK  6 active torsions:
REMARK  status: ('A' for Active; 'I' for Inactive)
REMARK    1  A    between atoms: C_2  and  C_4
REMARK    2  A    between atoms: N_7  and  C_8
REMARK    3  A    between atoms: C_20  and  N_21
REMARK    4  A    between atoms: C_22  and  C_24
REMARK    5  A    between atoms: C_27  and  C_28
REMARK    6  A    between atoms: C_28  and  N_29
REMARK                            x       y       z     vdW  Elec       q    Type
REMARK                         _______ _______ _______ _____ _____    ______ ____
ROOT
ATOM      1  C   UNL     1       0.802  10.085  19.626  0.00  0.00    +0.000 A 
ATOM      2  N   UNL     1       1.579   8.930  19.541  0.00  0.00    +0.000 NA
ATOM      3  C   UNL     1       1.256   8.078  20.485  0.00  0.00    +0.000 A 
ATOM      4  N   UNL     1       1.832   6.868  20.666  0.00  0.00    +0.000 N 
ATOM      5  S   UNL     1       0.008   8.609  21.517  0.00  0.00    +0.000 S 
ATOM      6  C   UNL     1      -0.121  10.086  20.659  0.00  0.00    +0.000 A 
ATOM      7  H   UNL     1       1.641   6.357  21.518  0.00  0.00    +0.000 HD
ENDROOT
BRANCH   4   8
ATOM      8  C   UNL     1       2.408   6.112  19.630  0.00  0.00    +0.000 A 
ATOM      9  C   UNL     1       2.211   4.731  19.590  0.00  0.00    +0.000 A 
ATOM     10  C   UNL     1       2.874   3.947  18.640  0.00  0.00    +0.000 A 
ATOM     11  C   UNL     1       3.746   4.533  17.706  0.00  0.00    +0.000 A 
ATOM     12  C   UNL     1       4.448   3.770  16.764  0.00  0.00    +0.000 A 
ATOM     13  C   UNL     1       5.311   4.392  15.866  0.00  0.00    +0.000 A 
ATOM     14  F   UNL     1       5.986   3.648  14.980  0.00  0.00    +0.000 F 
ATOM     15  C   UNL     1       5.492   5.768  15.873  0.00  0.00    +0.000 A 
ATOM     16  C   UNL     1       4.798   6.540  16.800  0.00  0.00    +0.000 A 
ATOM     17  C   UNL     1       3.933   5.932  17.723  0.00  0.00    +0.000 A 
ATOM     18  C   UNL     1       3.259   6.696  18.680  0.00  0.00    +0.000 A 
ENDBRANCH   4   8
BRANCH   1  20
ATOM     19  N   UNL     1       2.090  10.911  17.828  0.00  0.00    +0.000 N 
ATOM     20  C   UNL     1       1.045  11.166  18.676  0.00  0.00    +0.000 C 
ATOM     21  O   UNL     1       0.393  12.202  18.637  0.00  0.00    +0.000 OA
ATOM     22  H   UNL     1       2.403  11.603  17.165  0.00  0.00    +0.000 HD
ATOM     23  H   UNL     1       2.615  10.049  17.947  0.00  0.00    +0.000 HD
ENDBRANCH   1  20
BRANCH   6  24
ATOM     24  N   UNL     1      -1.068  11.050  21.007  0.00  0.00    +0.000 N 
ATOM     25  C   UNL     1      -1.181  11.583  22.281  0.00  0.00    +0.000 C 
ATOM     26  O   UNL     1      -0.427  11.352  23.223  0.00  0.00    +0.000 OA
ATOM     27  H   UNL     1      -1.649  11.397  20.251  0.00  0.00    +0.000 HD
BRANCH  25  28
ATOM     28  C   UNL     1      -2.311  12.504  22.578  0.00  0.00    +0.000 A 
ATOM     29  C   UNL     1      -3.089  12.184  23.703  0.00  0.00    +0.000 A 
ATOM     30  C   UNL     1      -4.120  13.019  24.127  0.00  0.00    +0.000 A 
ATOM     31  C   UNL     1      -4.399  14.198  23.430  0.00  0.00    +0.000 A 
ATOM     32  C   UNL     1      -3.621  14.521  22.303  0.00  0.00    +0.000 A 
ATOM     33  C   UNL     1      -2.582  13.677  21.873  0.00  0.00    +0.000 A 
BRANCH  31  34
ATOM     34  C   UNL     1      -5.524  15.087  23.899  0.00  0.00    +0.000 C 
BRANCH  34  35
ATOM     35  N   UNL     1      -6.331  15.594  22.803  0.00  0.00    +0.000 N 
ATOM     36  C   UNL     1      -6.483  16.904  22.437  0.00  0.00    +0.000 A 
ATOM     37  C   UNL     1      -7.469  16.894  21.478  0.00  0.00    +0.000 A 
ATOM     38  N   UNL     1      -7.910  15.616  21.249  0.00  0.00    +0.000 NA
ATOM     39  C   UNL     1      -7.206  14.856  22.056  0.00  0.00    +0.000 A 
ENDBRANCH  34  35
ENDBRANCH  31  34
ENDBRANCH  25  28
ENDBRANCH   6  24
TORSDOF 6
ENDMDL
MODEL 5
REMARK VINA RESULT:      -8.7      1.742      2.301
REMARK  Name = 
REMARK  6 active torsions:
REMARK  status: ('A' for Active; 'I' for Inactive)
REMARK    1  A    between atoms: C_2  and  C_4
REMARK    2  A    between atoms: N_7  and  C_8
REMARK    3  A    between atoms: C_20  and  N_21
REMARK    4  A    between atoms: C_22  and  C_24
REMARK    5  A    between atoms: C_27  and  C_28
REMARK    6  A    between atoms: C_28  and  N_29
REMARK                            x       y       z     vdW  Elec       q    Type
REMARK                         _______ _______ _______ _____ _____    ______ ____
ROOT
ATOM      1  C   UNL     1       0.622  10.163  19.663  0.00  0.00    +0.000 A 
ATOM      2  N   UNL     1       1.450   9.048  19.536  0.00  0.00    +0.000 NA
ATOM      3  C   UNL     1       1.253   8.204  20.520  0.00  0.00    +0.000 A 
ATOM      4  N   UNL     1       1.906   7.031  20.676  0.00  0.00    +0.000 N 
ATOM      5  S   UNL     1       0.069   8.694  21.643  0.00  0.00    +0.000 S 
ATOM      6  C   UNL     1      -0.211  10.141  20.770  0.00  0.00    +0.000 A 
ATOM      7  H   UNL     1       1.814   6.530  21.551  0.00  0.00    +0.000 HD
ENDROOT
BRANCH   4   8
ATOM      8  C   UNL     1       2.434   6.280  19.610  0.00  0.00    +0.000 A 
ATOM      9  C   UNL     1       2.151   4.917  19.518  0.00  0.00    +0.000 A 
ATOM     10  C   UNL     1       2.765   4.130  18.537  0.00  0.00    +0.000 A 
ATOM     11  C   UNL     1       3.671   4.696  17.625  0.00  0.00    +0.000 A 
ATOM     12  C   UNL     1       4.324   3.927  16.652  0.00  0.00    +0.000 A 
ATOM     13  C   UNL     1       5.225   4.529  15.776  0.00  0.00    +0.000 A 
ATOM     14  F   UNL     1       5.852   3.779  14.861  0.00  0.00    +0.000 F 
ATOM     15  C   UNL     1       5.490   5.890  15.835  0.00  0.00    +0.000 A 
ATOM     16  C   UNL     1       4.846   6.668  16.794  0.00  0.00    +0.000 A 
ATOM     17  C   UNL     1       3.945   6.079  17.694  0.00  0.00    +0.000 A 
ATOM     18  C   UNL     1       3.320   6.846  18.682  0.00  0.00    +0.000 A 
ENDBRANCH   4   8
BRANCH   1  20
ATOM     19  N   UNL     1      -0.401  11.370  17.910  0.00  0.00    +0.000 N 
ATOM     20  C   UNL     1       0.727  11.232  18.675  0.00  0.00    +0.000 C 
ATOM     21  O   UNL     1       1.720  11.936  18.531  0.00  0.00    +0.000 OA
ATOM     22  H   UNL     1      -0.435  12.029  17.149  0.00  0.00    +0.000 HD
ATOM     23  H   UNL     1      -1.169  10.721  18.056  0.00  0.00    +0.000 HD
ENDBRANCH   1  20
BRANCH   6  24
ATOM     24  N   UNL     1      -1.176  11.063  21.178  0.00  0.00    +0.000 N 
ATOM     25  C   UNL     1      -1.297  11.515  22.482  0.00  0.00    +0.000 C 
ATOM     26  O   UNL     1      -0.536  11.242  23.407  0.00  0.00    +0.000 OA
ATOM     27  H   UNL     1      -1.765  11.444  20.445  0.00  0.00    +0.000 HD
BRANCH  25  28
ATOM     28  C   UNL     1      -2.444  12.394  22.836  0.00  0.00    +0.000 A 
ATOM     29  C   UNL     1      -2.698  13.460  21.956  0.00  0.00    +0.000 A 
ATOM     30  C   UNL     1      -3.795  14.297  22.138  0.00  0.00    +0.000 A 
ATOM     31  C   UNL     1      -4.666  14.089  23.212  0.00  0.00    +0.000 A 
ATOM     32  C   UNL     1      -4.414  13.022  24.093  0.00  0.00    +0.000 A 
ATOM     33  C   UNL     1      -3.305  12.178  23.912  0.00  0.00    +0.000 A 
BRANCH  31  34
ATOM     34  C   UNL     1      -5.845  15.011  23.398  0.00  0.00    +0.000 C 
BRANCH  34  35
ATOM     35  N   UNL     1      -5.471  16.291  23.973  0.00  0.00    +0.000 N 
ATOM     36  C   UNL     1      -4.478  16.517  24.889  0.00  0.00    +0.000 A 
ATOM     37  C   UNL     1      -4.627  17.834  25.257  0.00  0.00    +0.000 A 
ATOM     38  N   UNL     1      -5.672  18.411  24.584  0.00  0.00    +0.000 NA
ATOM     39  C   UNL     1      -6.158  17.461  23.818  0.00  0.00    +0.000 A 
ENDBRANCH  34  35
ENDBRANCH  31  34
ENDBRANCH  25  28
ENDBRANCH   6  24
TORSDOF 6
ENDMDL
MODEL 6
REMARK VINA RESULT:      -8.6      4.234     12.201
REMARK  Name = 
REMARK  6 active torsions:
REMARK  status: ('A' for Active; 'I' for Inactive)
REMARK    1  A    between atoms: C_2  and  C_4
REMARK    2  A    between atoms: N_7  and  C_8
REMARK    3  A    between atoms: C_20  and  N_21
REMARK    4  A    between atoms: C_22  and  C_24
REMARK    5  A    between atoms: C_27  and  C_28
REMARK    6  A    between atoms: C_28  and  N_29
REMARK                            x       y       z     vdW  Elec       q    Type
REMARK                         _______ _______ _______ _____ _____    ______ ____
ROOT
ATOM      1  C   UNL     1      -0.072  10.069  19.682  0.00  0.00    +0.000 A 
ATOM      2  N   UNL     1      -0.856  10.704  20.645  0.00  0.00    +0.000 NA
ATOM      3  C   UNL     1      -0.450  10.400  21.855  0.00  0.00    +0.000 A 
ATOM      4  N   UNL     1      -1.011  10.858  22.997  0.00  0.00    +0.000 N 
ATOM      5  S   UNL     1       0.888   9.347  21.905  0.00  0.00    +0.000 S 
ATOM      6  C   UNL     1       0.942   9.276  20.195  0.00  0.00    +0.000 A 
ATOM      7  H   UNL     1      -0.744  10.436  23.877  0.00  0.00    +0.000 HD
ENDROOT
BRANCH   4   8
ATOM      8  C   UNL     1      -1.681  12.090  23.102  0.00  0.00    +0.000 A 
ATOM      9  C   UNL     1      -0.945  13.273  23.181  0.00  0.00    +0.000 A 
ATOM     10  C   UNL     1      -1.588  14.494  23.409  0.00  0.00    +0.000 A 
ATOM     11  C   UNL     1      -2.984  14.555  23.557  0.00  0.00    +0.000 A 
ATOM     12  C   UNL     1      -3.652  15.759  23.817  0.00  0.00    +0.000 A 
ATOM     13  C   UNL     1      -5.037  15.770  23.969  0.00  0.00    +0.000 A 
ATOM     14  F   UNL     1      -5.661  16.925  24.231  0.00  0.00    +0.000 F 
ATOM     15  C   UNL     1      -5.785  14.606  23.859  0.00  0.00    +0.000 A 
ATOM     16  C   UNL     1      -5.136  13.402  23.597  0.00  0.00    +0.000 A 
ATOM     17  C   UNL     1      -3.740  13.367  23.453  0.00  0.00    +0.000 A 
ATOM     18  C   UNL     1      -3.077  12.158  23.225  0.00  0.00    +0.000 A 
ENDBRANCH   4   8
BRANCH   1  20
ATOM     19  N   UNL     1      -0.771  11.544  17.977  0.00  0.00    +0.000 N 
ATOM     20  C   UNL     1      -0.398  10.260  18.273  0.00  0.00    +0.000 C 
ATOM     21  O   UNL     1      -0.352   9.369  17.433  0.00  0.00    +0.000 OA
ATOM     22  H   UNL     1      -1.082  11.795  17.052  0.00  0.00    +0.000 HD
ATOM     23  H   UNL     1      -0.828  12.221  18.734  0.00  0.00    +0.000 HD
ENDBRANCH   1  20
BRANCH   6  24
ATOM     24  N   UNL     1       1.919   8.537  19.527  0.00  0.00    +0.000 N 
ATOM     25  C   UNL     1       2.147   7.189  19.757  0.00  0.00    +0.000 C 
ATOM     26  O   UNL     1       1.479   6.466  20.491  0.00  0.00    +0.000 OA
ATOM     27  H   UNL     1       2.432   9.029  18.803  0.00  0.00    +0.000 HD
BRANCH  25  28
ATOM     28  C   UNL     1       3.302   6.530  19.089  0.00  0.00    +0.000 A 
ATOM     29  C   UNL     1       3.771   7.148  17.917  0.00  0.00    +0.000 A 
ATOM     30  C   UNL     1       4.897   6.671  17.253  0.00  0.00    +0.000 A 
ATOM     31  C   UNL     1       5.583   5.556  17.747  0.00  0.00    +0.000 A 
ATOM     32  C   UNL     1       5.115   4.937  18.920  0.00  0.00    +0.000 A 
ATOM     33  C   UNL     1       3.976   5.417  19.589  0.00  0.00    +0.000 A 
BRANCH  31  34
ATOM     34  C   UNL     1       6.797   5.048  17.010  0.00  0.00    +0.000 C 
BRANCH  34  35
ATOM     35  N   UNL     1       6.518   4.735  15.620  0.00  0.00    +0.000 N 
ATOM     36  C   UNL     1       5.549   3.890  15.150  0.00  0.00    +0.000 A 
ATOM     37  C   UNL     1       5.794   3.782  13.801  0.00  0.00    +0.000 A 
ATOM     38  N   UNL     1       6.876   4.544  13.442  0.00  0.00    +0.000 NA
ATOM     39  C   UNL     1       7.288   5.107  14.554  0.00  0.00    +0.000 A 
ENDBRANCH  34  35
ENDBRANCH  31  34
ENDBRANCH  25  28
ENDBRANCH   6  24
TORSDOF 6
ENDMDL
MODEL 7
REMARK VINA RESULT:      -8.6      4.356     12.422
REMARK  Name = 
REMARK  6 active torsions:
REMARK  status: ('A' for Active; 'I' for Inactive)
REMARK    1  A    between atoms: C_2  and  C_4
REMARK    2  A    between atoms: N_7  and  C_8
REMARK    3  A    between atoms: C_20  and  N_21
REMARK    4  A    between atoms: C_22  and  C_24
REMARK    5  A    between atoms: C_27  and  C_28
REMARK    6  A    between atoms: C_28  and  N_29
REMARK                            x       y       z     vdW  Elec       q    Type
REMARK                         _______ _______ _______ _____ _____    ______ ____
ROOT
ATOM      1  C   UNL     1      -0.248  10.353  21.057  0.00  0.00    +0.000 A 
ATOM      2  N   UNL     1      -1.159  11.408  21.032  0.00  0.00    +0.000 NA
ATOM      3  C   UNL     1      -1.483  11.720  19.799  0.00  0.00    +0.000 A 
ATOM      4  N   UNL     1      -2.342  12.703  19.449  0.00  0.00    +0.000 N 
ATOM      5  S   UNL     1      -0.720  10.768  18.609  0.00  0.00    +0.000 S 
ATOM      6  C   UNL     1       0.109   9.870  19.809  0.00  0.00    +0.000 A 
ATOM      7  H   UNL     1      -2.397  12.984  18.478  0.00  0.00    +0.000 HD
ENDROOT
BRANCH   4   8
ATOM      8  C   UNL     1      -3.406  13.138  20.259  0.00  0.00    +0.000 A 
ATOM      9  C   UNL     1      -4.664  12.551  20.124  0.00  0.00    +0.000 A 
ATOM     10  C   UNL     1      -5.762  13.053  20.832  0.00  0.00    +0.000 A 
ATOM     11  C   UNL     1      -5.618  14.152  21.695  0.00  0.00    +0.000 A 
ATOM     12  C   UNL     1      -6.705  14.696  22.392  0.00  0.00    +0.000 A 
ATOM     13  C   UNL     1      -6.519  15.795  23.227  0.00  0.00    +0.000 A 
ATOM     14  F   UNL     1      -7.569  16.313  23.877  0.00  0.00    +0.000 F 
ATOM     15  C   UNL     1      -5.267  16.369  23.397  0.00  0.00    +0.000 A 
ATOM     16  C   UNL     1      -4.176  15.838  22.714  0.00  0.00    +0.000 A 
ATOM     17  C   UNL     1      -4.345  14.738  21.857  0.00  0.00    +0.000 A 
ATOM     18  C   UNL     1      -3.262  14.220  21.141  0.00  0.00    +0.000 A 
ENDBRANCH   4   8
BRANCH   1  20
ATOM     19  N   UNL     1      -0.725   9.769  23.294  0.00  0.00    +0.000 N 
ATOM     20  C   UNL     1       0.256   9.890  22.346  0.00  0.00    +0.000 C 
ATOM     21  O   UNL     1       1.434   9.640  22.570  0.00  0.00    +0.000 OA
ATOM     22  H   UNL     1      -0.501   9.519  24.244  0.00  0.00    +0.000 HD
ATOM     23  H   UNL     1      -1.675  10.037  23.049  0.00  0.00    +0.000 HD
ENDBRANCH   1  20
BRANCH   6  24
ATOM     24  N   UNL     1       0.958   8.815  19.471  0.00  0.00    +0.000 N 
ATOM     25  C   UNL     1       1.817   8.843  18.384  0.00  0.00    +0.000 C 
ATOM     26  O   UNL     1       2.007   9.808  17.648  0.00  0.00    +0.000 OA
ATOM     27  H   UNL     1       0.962   8.025  20.109  0.00  0.00    +0.000 HD
BRANCH  25  28
ATOM     28  C   UNL     1       2.579   7.614  18.036  0.00  0.00    +0.000 A 
ATOM     29  C   UNL     1       3.731   7.803  17.254  0.00  0.00    +0.000 A 
ATOM     30  C   UNL     1       4.569   6.737  16.938  0.00  0.00    +0.000 A 
ATOM     31  C   UNL     1       4.271   5.450  17.397  0.00  0.00    +0.000 A 
ATOM     32  C   UNL     1       3.119   5.259  18.180  0.00  0.00    +0.000 A 
ATOM     33  C   UNL     1       2.270   6.334  18.497  0.00  0.00    +0.000 A 
BRANCH  31  34
ATOM     34  C   UNL     1       5.186   4.306  17.038  0.00  0.00    +0.000 C 
BRANCH  34  35
ATOM     35  N   UNL     1       5.973   4.570  15.847  0.00  0.00    +0.000 N 
ATOM     36  C   UNL     1       5.695   4.151  14.573  0.00  0.00    +0.000 A 
ATOM     37  C   UNL     1       6.807   4.488  13.837  0.00  0.00    +0.000 A 
ATOM     38  N   UNL     1       7.742   5.106  14.626  0.00  0.00    +0.000 NA
ATOM     39  C   UNL     1       7.212   5.144  15.827  0.00  0.00    +0.000 A 
ENDBRANCH  34  35
ENDBRANCH  31  34
ENDBRANCH  25  28
ENDBRANCH   6  24
TORSDOF 6
ENDMDL
MODEL 8
REMARK VINA RESULT:      -8.4      4.193     12.241
REMARK  Name = 
REMARK  6 active torsions:
REMARK  status: ('A' for Active; 'I' for Inactive)
REMARK    1  A    between atoms: C_2  and  C_4
REMARK    2  A    between atoms: N_7  and  C_8
REMARK    3  A    between atoms: C_20  and  N_21
REMARK    4  A    between atoms: C_22  and  C_24
REMARK    5  A    between atoms: C_27  and  C_28
REMARK    6  A    between atoms: C_28  and  N_29
REMARK                            x       y       z     vdW  Elec       q    Type
REMARK                         _______ _______ _______ _____ _____    ______ ____
ROOT
ATOM      1  C   UNL     1      -0.086  10.094  19.693  0.00  0.00    +0.000 A 
ATOM      2  N   UNL     1      -0.879  10.717  20.655  0.00  0.00    +0.000 NA
ATOM      3  C   UNL     1      -0.457  10.435  21.865  0.00  0.00    +0.000 A 
ATOM      4  N   UNL     1      -1.021  10.888  23.007  0.00  0.00    +0.000 N 
ATOM      5  S   UNL     1       0.909   9.417  21.915  0.00  0.00    +0.000 S 
ATOM      6  C   UNL     1       0.952   9.332  20.205  0.00  0.00    +0.000 A 
ATOM      7  H   UNL     1      -0.737  10.482  23.889  0.00  0.00    +0.000 HD
ENDROOT
BRANCH   4   8
ATOM      8  C   UNL     1      -1.722  12.103  23.106  0.00  0.00    +0.000 A 
ATOM      9  C   UNL     1      -1.017  13.304  23.187  0.00  0.00    +0.000 A 
ATOM     10  C   UNL     1      -1.691  14.510  23.409  0.00  0.00    +0.000 A 
ATOM     11  C   UNL     1      -3.089  14.536  23.549  0.00  0.00    +0.000 A 
ATOM     12  C   UNL     1      -3.789  15.723  23.803  0.00  0.00    +0.000 A 
ATOM     13  C   UNL     1      -5.174  15.700  23.948  0.00  0.00    +0.000 A 
ATOM     14  F   UNL     1      -5.828  16.840  24.204  0.00  0.00    +0.000 F 
ATOM     15  C   UNL     1      -5.891  14.517  23.836  0.00  0.00    +0.000 A 
ATOM     16  C   UNL     1      -5.212  13.329  23.580  0.00  0.00    +0.000 A 
ATOM     17  C   UNL     1      -3.814  13.329  23.444  0.00  0.00    +0.000 A 
ATOM     18  C   UNL     1      -3.120  12.137  23.221  0.00  0.00    +0.000 A 
ENDBRANCH   4   8
BRANCH   1  20
ATOM     19  N   UNL     1      -0.960  11.494  18.005  0.00  0.00    +0.000 N 
ATOM     20  C   UNL     1      -0.426  10.264  18.284  0.00  0.00    +0.000 C 
ATOM     21  O   UNL     1      -0.263   9.399  17.431  0.00  0.00    +0.000 OA
ATOM     22  H   UNL     1      -1.297  11.717  17.082  0.00  0.00    +0.000 HD
ATOM     23  H   UNL     1      -1.108  12.145  18.771  0.00  0.00    +0.000 HD
ENDBRANCH   1  20
BRANCH   6  24
ATOM     24  N   UNL     1       1.944   8.613  19.536  0.00  0.00    +0.000 N 
ATOM     25  C   UNL     1       2.157   7.256  19.720  0.00  0.00    +0.000 C 
ATOM     26  O   UNL     1       1.464   6.509  20.406  0.00  0.00    +0.000 OA
ATOM     27  H   UNL     1       2.480   9.129  18.846  0.00  0.00    +0.000 HD
BRANCH  25  28
ATOM     28  C   UNL     1       3.326   6.615  19.060  0.00  0.00    +0.000 A 
ATOM     29  C   UNL     1       3.859   5.487  19.707  0.00  0.00    +0.000 A 
ATOM     30  C   UNL     1       4.899   4.756  19.139  0.00  0.00    +0.000 A 
ATOM     31  C   UNL     1       5.436   5.140  17.907  0.00  0.00    +0.000 A 
ATOM     32  C   UNL     1       4.904   6.269  17.258  0.00  0.00    +0.000 A 
ATOM     33  C   UNL     1       3.856   7.009  17.831  0.00  0.00    +0.000 A 
BRANCH  31  34
ATOM     34  C   UNL     1       6.567   4.341  17.311  0.00  0.00    +0.000 C 
BRANCH  34  35
ATOM     35  N   UNL     1       6.523   4.302  15.860  0.00  0.00    +0.000 N 
ATOM     36  C   UNL     1       7.321   5.006  14.998  0.00  0.00    +0.000 A 
ATOM     37  C   UNL     1       6.786   4.779  13.751  0.00  0.00    +0.000 A 
ATOM     38  N   UNL     1       5.695   3.952  13.835  0.00  0.00    +0.000 NA
ATOM     39  C   UNL     1       5.563   3.680  15.113  0.00  0.00    +0.000 A 
ENDBRANCH  34  35
ENDBRANCH  31  34
ENDBRANCH  25  28
ENDBRANCH   6  24
TORSDOF 6
ENDMDL
MODEL 9
REMARK VINA RESULT:      -8.3      2.677      3.594
REMARK  Name = 
REMARK  6 active torsions:
REMARK  status: ('A' for Active; 'I' for Inactive)
REMARK    1  A    between atoms: C_2  and  C_4
REMARK    2  A    between atoms: N_7  and  C_8
REMARK    3  A    between atoms: C_20  and  N_21
REMARK    4  A    between atoms: C_22  and  C_24
REMARK    5  A    between atoms: C_27  and  C_28
REMARK    6  A    between atoms: C_28  and  N_29
REMARK                            x       y       z     vdW  Elec       q    Type
REMARK                         _______ _______ _______ _____ _____    ______ ____
ROOT
ATOM      1  C   UNL     1      -0.146  10.613  20.218  0.00  0.00    +0.000 A 
ATOM      2  N   UNL     1       0.718   9.522  20.138  0.00  0.00    +0.000 NA
ATOM      3  C   UNL     1       0.899   8.979  21.319  0.00  0.00    +0.000 A 
ATOM      4  N   UNL     1       1.685   7.907  21.565  0.00  0.00    +0.000 N 
ATOM      5  S   UNL     1       0.044   9.739  22.581  0.00  0.00    +0.000 S 
ATOM      6  C   UNL     1      -0.619  10.882  21.492  0.00  0.00    +0.000 A 
ATOM      7  H   UNL     1       1.899   7.667  22.525  0.00  0.00    +0.000 HD
ENDROOT
BRANCH   4   8
ATOM      8  C   UNL     1       1.957   6.901  20.622  0.00  0.00    +0.000 A 
ATOM      9  C   UNL     1       2.436   7.248  19.358  0.00  0.00    +0.000 A 
ATOM     10  C   UNL     1       2.595   6.274  18.367  0.00  0.00    +0.000 A 
ATOM     11  C   UNL     1       2.282   4.929  18.625  0.00  0.00    +0.000 A 
ATOM     12  C   UNL     1       2.401   3.936  17.643  0.00  0.00    +0.000 A 
ATOM     13  C   UNL     1       2.067   2.617  17.939  0.00  0.00    +0.000 A 
ATOM     14  F   UNL     1       2.172   1.682  16.986  0.00  0.00    +0.000 F 
ATOM     15  C   UNL     1       1.620   2.252  19.201  0.00  0.00    +0.000 A 
ATOM     16  C   UNL     1       1.500   3.225  20.189  0.00  0.00    +0.000 A 
ATOM     17  C   UNL     1       1.819   4.563  19.907  0.00  0.00    +0.000 A 
ATOM     18  C   UNL     1       1.668   5.553  20.882  0.00  0.00    +0.000 A 
ENDBRANCH   4   8
BRANCH   1  20
ATOM     19  N   UNL     1      -0.247  10.641  17.859  0.00  0.00    +0.000 N 
ATOM     20  C   UNL     1      -0.439  11.368  19.004  0.00  0.00    +0.000 C 
ATOM     21  O   UNL     1      -0.811  12.536  18.998  0.00  0.00    +0.000 OA
ATOM     22  H   UNL     1      -0.353  11.064  16.951  0.00  0.00    +0.000 HD
ATOM     23  H   UNL     1       0.106   9.691  17.940  0.00  0.00    +0.000 HD
ENDBRANCH   1  20
BRANCH   6  24
ATOM     24  N   UNL     1      -1.515  11.863  21.921  0.00  0.00    +0.000 N 
ATOM     25  C   UNL     1      -1.117  13.082  22.448  0.00  0.00    +0.000 C 
ATOM     26  O   UNL     1       0.040  13.486  22.519  0.00  0.00    +0.000 OA
ATOM     27  H   UNL     1      -2.499  11.662  21.774  0.00  0.00    +0.000 HD
BRANCH  25  28
ATOM     28  C   UNL     1      -2.151  13.999  22.999  0.00  0.00    +0.000 A 
ATOM     29  C   UNL     1      -3.287  14.201  22.196  0.00  0.00    +0.000 A 
ATOM     30  C   UNL     1      -4.357  14.971  22.645  0.00  0.00    +0.000 A 
ATOM     31  C   UNL     1      -4.314  15.563  23.911  0.00  0.00    +0.000 A 
ATOM     32  C   UNL     1      -3.178  15.361  24.715  0.00  0.00    +0.000 A 
ATOM     33  C   UNL     1      -2.096  14.586  24.262  0.00  0.00    +0.000 A 
BRANCH  31  34
ATOM     34  C   UNL     1      -5.478  16.400  24.377  0.00  0.00    +0.000 C 
BRANCH  34  35
ATOM     35  N   UNL     1      -6.147  17.086  23.286  0.00  0.00    +0.000 N 
ATOM     36  C   UNL     1      -5.742  18.243  22.677  0.00  0.00    +0.000 A 
ATOM     37  C   UNL     1      -6.779  18.588  21.842  0.00  0.00    +0.000 A 
ATOM     38  N   UNL     1      -7.793  17.669  21.922  0.00  0.00    +0.000 NA
ATOM     39  C   UNL     1      -7.384  16.776  22.794  0.00  0.00    +0.000 A 
ENDBRANCH  34  35
ENDBRANCH  31  34
ENDBRANCH  25  28
ENDBRANCH   6  24
TORSDOF 6
ENDMDL
