MODEL 1
REMARK VINA RESULT:      -9.3      0.000      0.000
REMARK  Name = 
REMARK  7 active torsions:
REMARK  status: ('A' for Active; 'I' for Inactive)
REMARK    1  A    between atoms: C_2  and  C_3
REMARK    2  A    between atoms: C_3  and  N_4
REMARK    3  A    between atoms: C_9  and  C_10
REMARK    4  A    between atoms: C_11  and  C_12
REMARK    5  A    between atoms: N_20  and  C_21
REMARK    6  A    between atoms: C_26  and  C_27
REMARK    7  A    between atoms: C_27  and  O_29
REMARK                            x       y       z     vdW  Elec       q    Type
REMARK                         _______ _______ _______ _____ _____    ______ ____
ROOT
ATOM      1  N   UNL     1       6.048   5.262  16.882  0.00  0.00    +0.000 N 
ATOM      2  C   UNL     1       6.816   4.852  17.936  0.00  0.00    +0.000 C 
ATOM      3  O   UNL     1       6.847   3.736  18.427  0.00  0.00    +0.000 OA
ATOM      4  S   UNL     1       7.738   6.192  18.586  0.00  0.00    +0.000 S 
ATOM      5  C   UNL     1       7.074   7.316  17.454  0.00  0.00    +0.000 C 
ATOM      6  C   UNL     1       7.382   8.610  17.330  0.00  0.00    +0.000 C 
ATOM      7  C   UNL     1       6.064   6.608  16.598  0.00  0.00    +0.000 C 
ATOM      8  O   UNL     1       5.337   7.183  15.802  0.00  0.00    +0.000 OA
ENDROOT
BRANCH   6   9
ATOM      9  C   UNL     1       8.391   9.318  18.106  0.00  0.00    +0.000 C 
ATOM     10  C   UNL     1       8.696  10.617  17.957  0.00  0.00    +0.000 C 
BRANCH  10  11
ATOM     11  C   UNL     1       9.802  11.207  18.728  0.00  0.00    +0.000 A 
ATOM     12  C   UNL     1      11.031  11.439  18.104  0.00  0.00    +0.000 A 
ATOM     13  C   UNL     1      12.105  11.960  18.831  0.00  0.00    +0.000 A 
ATOM     14  C   UNL     1      11.953  12.252  20.185  0.00  0.00    +0.000 A 
ATOM     15  C   UNL     1      10.729  12.023  20.812  0.00  0.00    +0.000 A 
ATOM     16  C   UNL     1       9.654  11.498  20.087  0.00  0.00    +0.000 A 
ENDBRANCH  10  11
ENDBRANCH   6   9
BRANCH   1  17
ATOM     17  C   UNL     1       5.189   4.309  16.176  0.00  0.00    +0.000 C 
BRANCH  17  19
ATOM     18  O   UNL     1       3.038   3.281  16.520  0.00  0.00    +0.000 OA
ATOM     19  C   UNL     1       3.946   3.949  17.015  0.00  0.00    +0.000 C 
ATOM     20  N   UNL     1       3.952   4.435  18.330  0.00  0.00    +0.000 N 
ATOM     21  H   UNL     1       4.607   5.182  18.576  0.00  0.00    +0.000 HD
BRANCH  20  22
ATOM     22  C   UNL     1       3.051   4.036  19.375  0.00  0.00    +0.000 A 
ATOM     23  C   UNL     1       1.973   4.860  19.731  0.00  0.00    +0.000 A 
ATOM     24  C   UNL     1       1.058   4.498  20.723  0.00  0.00    +0.000 A 
ATOM     25  C   UNL     1       1.153   3.268  21.348  0.00  0.00    +0.000 A 
ATOM     26  C   UNL     1       2.190   2.407  21.002  0.00  0.00    +0.000 A 
ATOM     27  C   UNL     1       3.170   2.799  20.059  0.00  0.00    +0.000 A 
BRANCH  27  28
ATOM     28  C   UNL     1       4.323   1.889  19.832  0.00  0.00    +0.000 C 
ATOM     29  O   UNL     1       5.215   1.737  20.649  0.00  0.00    +0.000 OA
BRANCH  28  30
ATOM     30  O   UNL     1       4.272   1.199  18.666  0.00  0.00    +0.000 OA
ATOM     31  H   UNL     1       5.116   1.063  18.197  0.00  0.00    +0.000 HD
ENDBRANCH  28  30
ENDBRANCH  27  28
ENDBRANCH  20  22
ENDBRANCH  17  19
ENDBRANCH   1  17
TORSDOF 7
ENDMDL
MODEL 2
REMARK VINA RESULT:      -8.7      1.350      2.121
REMARK  Name = 
REMARK  7 active torsions:
REMARK  status: ('A' for Active; 'I' for Inactive)
REMARK    1  A    between atoms: C_2  and  C_3
REMARK    2  A    between atoms: C_3  and  N_4
REMARK    3  A    between atoms: C_9  and  C_10
REMARK    4  A    between atoms: C_11  and  C_12
REMARK    5  A    between atoms: N_20  and  C_21
REMARK    6  A    between atoms: C_26  and  C_27
REMARK    7  A    between atoms: C_27  and  O_29
REMARK                            x       y       z     vdW  Elec       q    Type
REMARK                         _______ _______ _______ _____ _____    ______ ____
ROOT
ATOM      1  N   UNL     1       6.385   5.291  16.981  0.00  0.00    +0.000 N 
ATOM      2  C   UNL     1       7.192   4.936  18.026  0.00  0.00    +0.000 C 
ATOM      3  O   UNL     1       7.305   3.825  18.517  0.00  0.00    +0.000 OA
ATOM      4  S   UNL     1       8.027   6.337  18.664  0.00  0.00    +0.000 S 
ATOM      5  C   UNL     1       7.274   7.410  17.540  0.00  0.00    +0.000 C 
ATOM      6  C   UNL     1       7.492   8.722  17.412  0.00  0.00    +0.000 C 
ATOM      7  C   UNL     1       6.305   6.634  16.697  0.00  0.00    +0.000 C 
ATOM      8  O   UNL     1       5.531   7.157  15.909  0.00  0.00    +0.000 OA
ENDROOT
BRANCH   6   9
ATOM      9  C   UNL     1       8.459   9.499  18.175  0.00  0.00    +0.000 C 
ATOM     10  C   UNL     1       8.957  10.686  17.794  0.00  0.00    +0.000 C 
BRANCH  10  11
ATOM     11  C   UNL     1      10.004  11.338  18.597  0.00  0.00    +0.000 A 
ATOM     12  C   UNL     1      11.159  11.813  17.970  0.00  0.00    +0.000 A 
ATOM     13  C   UNL     1      12.182  12.397  18.721  0.00  0.00    +0.000 A 
ATOM     14  C   UNL     1      12.053  12.510  20.104  0.00  0.00    +0.000 A 
ATOM     15  C   UNL     1      10.902  12.038  20.735  0.00  0.00    +0.000 A 
ATOM     16  C   UNL     1       9.880  11.449  19.985  0.00  0.00    +0.000 A 
ENDBRANCH  10  11
ENDBRANCH   6   9
BRANCH   1  17
ATOM     17  C   UNL     1       5.584   4.280  16.286  0.00  0.00    +0.000 C 
BRANCH  17  19
ATOM     18  O   UNL     1       3.243   3.715  16.321  0.00  0.00    +0.000 OA
ATOM     19  C   UNL     1       4.221   4.074  16.977  0.00  0.00    +0.000 C 
ATOM     20  N   UNL     1       4.207   4.326  18.356  0.00  0.00    +0.000 N 
ATOM     21  H   UNL     1       4.978   4.859  18.768  0.00  0.00    +0.000 HD
BRANCH  20  22
ATOM     22  C   UNL     1       3.149   3.973  19.262  0.00  0.00    +0.000 A 
ATOM     23  C   UNL     1       2.928   2.628  19.598  0.00  0.00    +0.000 A 
ATOM     24  C   UNL     1       1.928   2.243  20.495  0.00  0.00    +0.000 A 
ATOM     25  C   UNL     1       1.157   3.196  21.136  0.00  0.00    +0.000 A 
ATOM     26  C   UNL     1       1.365   4.542  20.853  0.00  0.00    +0.000 A 
ATOM     27  C   UNL     1       2.318   4.938  19.885  0.00  0.00    +0.000 A 
BRANCH  27  28
ATOM     28  C   UNL     1       2.398   6.380  19.534  0.00  0.00    +0.000 C 
ATOM     29  O   UNL     1       2.528   6.775  18.387  0.00  0.00    +0.000 OA
BRANCH  28  30
ATOM     30  O   UNL     1       2.259   7.223  20.588  0.00  0.00    +0.000 OA
ATOM     31  H   UNL     1       2.088   8.160  20.382  0.00  0.00    +0.000 HD
ENDBRANCH  28  30
ENDBRANCH  27  28
ENDBRANCH  20  22
ENDBRANCH  17  19
ENDBRANCH   1  17
TORSDOF 7
ENDMDL
MODEL 3
REMARK VINA RESULT:      -8.6      1.454      2.186
REMARK  Name = 
REMARK  7 active torsions:
REMARK  status: ('A' for Active; 'I' for Inactive)
REMARK    1  A    between atoms: C_2  and  C_3
REMARK    2  A    between atoms: C_3  and  N_4
REMARK    3  A    between atoms: C_9  and  C_10
REMARK    4  A    between atoms: C_11  and  C_12
REMARK    5  A    between atoms: N_20  and  C_21
REMARK    6  A    between atoms: C_26  and  C_27
REMARK    7  A    between atoms: C_27  and  O_29
REMARK                            x       y       z     vdW  Elec       q    Type
REMARK                         _______ _______ _______ _____ _____    ______ ____
ROOT
ATOM      1  N   UNL     1       6.102   5.223  16.754  0.00  0.00    +0.000 N 
ATOM      2  C   UNL     1       6.813   4.803  17.844  0.00  0.00    +0.000 C 
ATOM      3  O   UNL     1       6.819   3.682  18.325  0.00  0.00    +0.000 OA
ATOM      4  S   UNL     1       7.698   6.138  18.554  0.00  0.00    +0.000 S 
ATOM      5  C   UNL     1       7.094   7.271  17.399  0.00  0.00    +0.000 C 
ATOM      6  C   UNL     1       7.408   8.566  17.304  0.00  0.00    +0.000 C 
ATOM      7  C   UNL     1       6.132   6.571  16.484  0.00  0.00    +0.000 C 
ATOM      8  O   UNL     1       5.447   7.154  15.656  0.00  0.00    +0.000 OA
ENDROOT
BRANCH   6   9
ATOM      9  C   UNL     1       8.373   9.268  18.138  0.00  0.00    +0.000 C 
ATOM     10  C   UNL     1       8.717  10.557  17.990  0.00  0.00    +0.000 C 
BRANCH  10  11
ATOM     11  C   UNL     1       9.777  11.138  18.829  0.00  0.00    +0.000 A 
ATOM     12  C   UNL     1       9.500  11.475  20.156  0.00  0.00    +0.000 A 
ATOM     13  C   UNL     1      10.481  12.067  20.955  0.00  0.00    +0.000 A 
ATOM     14  C   UNL     1      11.747  12.323  20.430  0.00  0.00    +0.000 A 
ATOM     15  C   UNL     1      12.029  11.988  19.106  0.00  0.00    +0.000 A 
ATOM     16  C   UNL     1      11.046  11.400  18.304  0.00  0.00    +0.000 A 
ENDBRANCH  10  11
ENDBRANCH   6   9
BRANCH   1  17
ATOM     17  C   UNL     1       5.282   4.276  15.995  0.00  0.00    +0.000 C 
BRANCH  17  19
ATOM     18  O   UNL     1       4.356   2.387  17.167  0.00  0.00    +0.000 OA
ATOM     19  C   UNL     1       4.244   3.584  16.900  0.00  0.00    +0.000 C 
ATOM     20  N   UNL     1       3.210   4.410  17.363  0.00  0.00    +0.000 N 
ATOM     21  H   UNL     1       3.049   5.306  16.897  0.00  0.00    +0.000 HD
BRANCH  20  22
ATOM     22  C   UNL     1       2.277   4.080  18.404  0.00  0.00    +0.000 A 
ATOM     23  C   UNL     1       1.497   2.917  18.310  0.00  0.00    +0.000 A 
ATOM     24  C   UNL     1       0.596   2.545  19.312  0.00  0.00    +0.000 A 
ATOM     25  C   UNL     1       0.492   3.291  20.473  0.00  0.00    +0.000 A 
ATOM     26  C   UNL     1       1.271   4.434  20.619  0.00  0.00    +0.000 A 
ATOM     27  C   UNL     1       2.124   4.865  19.575  0.00  0.00    +0.000 A 
BRANCH  27  28
ATOM     28  C   UNL     1       2.828   6.165  19.741  0.00  0.00    +0.000 C 
ATOM     29  O   UNL     1       2.239   7.212  19.950  0.00  0.00    +0.000 OA
BRANCH  28  30
ATOM     30  O   UNL     1       4.180   6.079  19.697  0.00  0.00    +0.000 OA
ATOM     31  H   UNL     1       4.627   5.757  20.501  0.00  0.00    +0.000 HD
ENDBRANCH  28  30
ENDBRANCH  27  28
ENDBRANCH  20  22
ENDBRANCH  17  19
ENDBRANCH   1  17
TORSDOF 7
ENDMDL
MODEL 4
REMARK VINA RESULT:      -8.2      7.616     10.217
REMARK  Name = 
REMARK  7 active torsions:
REMARK  status: ('A' for Active; 'I' for Inactive)
REMARK    1  A    between atoms: C_2  and  C_3
REMARK    2  A    between atoms: C_3  and  N_4
REMARK    3  A    between atoms: C_9  and  C_10
REMARK    4  A    between atoms: C_11  and  C_12
REMARK    5  A    between atoms: N_20  and  C_21
REMARK    6  A    between atoms: C_26  and  C_27
REMARK    7  A    between atoms: C_27  and  O_29
REMARK                            x       y       z     vdW  Elec       q    Type
REMARK                         _______ _______ _______ _____ _____    ______ ____
ROOT
ATOM      1  N   UNL     1       0.073  11.677  20.815  0.00  0.00    +0.000 N 
ATOM      2  C   UNL     1       0.226  10.613  21.661  0.00  0.00    +0.000 C 
ATOM      3  O   UNL     1      -0.018  10.588  22.856  0.00  0.00    +0.000 OA
ATOM      4  S   UNL     1       0.918   9.246  20.813  0.00  0.00    +0.000 S 
ATOM      5  C   UNL     1       1.026  10.110  19.321  0.00  0.00    +0.000 C 
ATOM      6  C   UNL     1       1.452   9.637  18.147  0.00  0.00    +0.000 C 
ATOM      7  C   UNL     1       0.558  11.520  19.538  0.00  0.00    +0.000 C 
ATOM      8  O   UNL     1       0.651  12.397  18.692  0.00  0.00    +0.000 OA
ENDROOT
BRANCH   6   9
ATOM      9  C   UNL     1       1.866   8.265  17.886  0.00  0.00    +0.000 C 
ATOM     10  C   UNL     1       3.126   7.815  17.987  0.00  0.00    +0.000 C 
BRANCH  10  11
ATOM     11  C   UNL     1       3.447   6.430  17.605  0.00  0.00    +0.000 A 
ATOM     12  C   UNL     1       2.628   5.387  18.042  0.00  0.00    +0.000 A 
ATOM     13  C   UNL     1       2.940   4.062  17.725  0.00  0.00    +0.000 A 
ATOM     14  C   UNL     1       4.074   3.776  16.967  0.00  0.00    +0.000 A 
ATOM     15  C   UNL     1       4.896   4.814  16.528  0.00  0.00    +0.000 A 
ATOM     16  C   UNL     1       4.586   6.139  16.849  0.00  0.00    +0.000 A 
ENDBRANCH  10  11
ENDBRANCH   6   9
BRANCH   1  17
ATOM     17  C   UNL     1      -0.490  12.938  21.305  0.00  0.00    +0.000 C 
BRANCH  17  19
ATOM     18  O   UNL     1      -2.101  14.424  20.307  0.00  0.00    +0.000 OA
ATOM     19  C   UNL     1      -1.826  13.262  20.607  0.00  0.00    +0.000 C 
ATOM     20  N   UNL     1      -2.655  12.158  20.362  0.00  0.00    +0.000 N 
ATOM     21  H   UNL     1      -2.473  11.284  20.863  0.00  0.00    +0.000 HD
BRANCH  20  22
ATOM     22  C   UNL     1      -3.816  12.153  19.516  0.00  0.00    +0.000 A 
ATOM     23  C   UNL     1      -5.059  12.564  20.021  0.00  0.00    +0.000 A 
ATOM     24  C   UNL     1      -6.208  12.601  19.226  0.00  0.00    +0.000 A 
ATOM     25  C   UNL     1      -6.138  12.288  17.880  0.00  0.00    +0.000 A 
ATOM     26  C   UNL     1      -4.918  11.905  17.333  0.00  0.00    +0.000 A 
ATOM     27  C   UNL     1      -3.767  11.785  18.148  0.00  0.00    +0.000 A 
BRANCH  27  28
ATOM     28  C   UNL     1      -2.527  11.244  17.529  0.00  0.00    +0.000 C 
ATOM     29  O   UNL     1      -2.339  10.051  17.362  0.00  0.00    +0.000 OA
BRANCH  28  30
ATOM     30  O   UNL     1      -1.649  12.191  17.115  0.00  0.00    +0.000 OA
ATOM     31  H   UNL     1      -2.026  13.029  16.790  0.00  0.00    +0.000 HD
ENDBRANCH  28  30
ENDBRANCH  27  28
ENDBRANCH  20  22
ENDBRANCH  17  19
ENDBRANCH   1  17
TORSDOF 7
ENDMDL
MODEL 5
REMARK VINA RESULT:      -8.1      1.295      1.651
REMARK  Name = 
REMARK  7 active torsions:
REMARK  status: ('A' for Active; 'I' for Inactive)
REMARK    1  A    between atoms: C_2  and  C_3
REMARK    2  A    between atoms: C_3  and  N_4
REMARK    3  A    between atoms: C_9  and  C_10
REMARK    4  A    between atoms: C_11  and  C_12
REMARK    5  A    between atoms: N_20  and  C_21
REMARK    6  A    between atoms: C_26  and  C_27
REMARK    7  A    between atoms: C_27  and  O_29
REMARK                            x       y       z     vdW  Elec       q    Type
REMARK                         _______ _______ _______ _____ _____    ______ ____
ROOT
ATOM      1  N   UNL     1       7.170   5.803  17.658  0.00  0.00    +0.000 N 
ATOM      2  C   UNL     1       7.864   5.748  18.835  0.00  0.00    +0.000 C 
ATOM      3  O   UNL     1       8.008   4.772  19.553  0.00  0.00    +0.000 OA
ATOM      4  S   UNL     1       8.487   7.329  19.259  0.00  0.00    +0.000 S 
ATOM      5  C   UNL     1       7.795   8.076  17.863  0.00  0.00    +0.000 C 
ATOM      6  C   UNL     1       7.913   9.354  17.493  0.00  0.00    +0.000 C 
ATOM      7  C   UNL     1       7.012   7.049  17.097  0.00  0.00    +0.000 C 
ATOM      8  O   UNL     1       6.303   7.322  16.139  0.00  0.00    +0.000 OA
ENDROOT
BRANCH   6   9
ATOM      9  C   UNL     1       8.704  10.365  18.181  0.00  0.00    +0.000 C 
ATOM     10  C   UNL     1       8.748  11.662  17.839  0.00  0.00    +0.000 C 
BRANCH  10  11
ATOM     11  C   UNL     1       9.658  12.579  18.545  0.00  0.00    +0.000 A 
ATOM     12  C   UNL     1      10.026  12.307  19.865  0.00  0.00    +0.000 A 
ATOM     13  C   UNL     1      10.855  13.188  20.564  0.00  0.00    +0.000 A 
ATOM     14  C   UNL     1      11.321  14.346  19.945  0.00  0.00    +0.000 A 
ATOM     15  C   UNL     1      10.957  14.623  18.627  0.00  0.00    +0.000 A 
ATOM     16  C   UNL     1      10.124  13.744  17.928  0.00  0.00    +0.000 A 
ENDBRANCH  10  11
ENDBRANCH   6   9
BRANCH   1  17
ATOM     17  C   UNL     1       6.555   4.595  17.102  0.00  0.00    +0.000 C 
BRANCH  17  19
ATOM     18  O   UNL     1       4.203   4.331  16.659  0.00  0.00    +0.000 OA
ATOM     19  C   UNL     1       5.074   4.481  17.516  0.00  0.00    +0.000 C 
ATOM     20  N   UNL     1       4.831   4.563  18.894  0.00  0.00    +0.000 N 
ATOM     21  H   UNL     1       5.563   4.938  19.502  0.00  0.00    +0.000 HD
BRANCH  20  22
ATOM     22  C   UNL     1       3.593   4.238  19.547  0.00  0.00    +0.000 A 
ATOM     23  C   UNL     1       2.745   5.260  20.000  0.00  0.00    +0.000 A 
ATOM     24  C   UNL     1       1.520   4.989  20.616  0.00  0.00    +0.000 A 
ATOM     25  C   UNL     1       1.072   3.686  20.741  0.00  0.00    +0.000 A 
ATOM     26  C   UNL     1       1.870   2.645  20.277  0.00  0.00    +0.000 A 
ATOM     27  C   UNL     1       3.148   2.904  19.727  0.00  0.00    +0.000 A 
BRANCH  27  28
ATOM     28  C   UNL     1       4.003   1.741  19.373  0.00  0.00    +0.000 C 
ATOM     29  O   UNL     1       3.730   0.971  18.467  0.00  0.00    +0.000 OA
BRANCH  28  30
ATOM     30  O   UNL     1       5.142   1.639  20.102  0.00  0.00    +0.000 OA
ATOM     31  H   UNL     1       5.801   0.988  19.800  0.00  0.00    +0.000 HD
ENDBRANCH  28  30
ENDBRANCH  27  28
ENDBRANCH  20  22
ENDBRANCH  17  19
ENDBRANCH   1  17
TORSDOF 7
ENDMDL
MODEL 6
REMARK VINA RESULT:      -8.1      8.596     11.418
REMARK  Name = 
REMARK  7 active torsions:
REMARK  status: ('A' for Active; 'I' for Inactive)
REMARK    1  A    between atoms: C_2  and  C_3
REMARK    2  A    between atoms: C_3  and  N_4
REMARK    3  A    between atoms: C_9  and  C_10
REMARK    4  A    between atoms: C_11  and  C_12
REMARK    5  A    between atoms: N_20  and  C_21
REMARK    6  A    between atoms: C_26  and  C_27
REMARK    7  A    between atoms: C_27  and  O_29
REMARK                            x       y       z     vdW  Elec       q    Type
REMARK                         _______ _______ _______ _____ _____    ______ ____
ROOT
ATOM      1  N   UNL     1      -0.657  11.404  21.783  0.00  0.00    +0.000 N 
ATOM      2  C   UNL     1      -0.787  11.439  20.422  0.00  0.00    +0.000 C 
ATOM      3  O   UNL     1      -1.398  12.267  19.767  0.00  0.00    +0.000 OA
ATOM      4  S   UNL     1      -0.006  10.051  19.692  0.00  0.00    +0.000 S 
ATOM      5  C   UNL     1       0.478   9.406  21.220  0.00  0.00    +0.000 C 
ATOM      6  C   UNL     1       1.203   8.305  21.434  0.00  0.00    +0.000 C 
ATOM      7  C   UNL     1      -0.050  10.289  22.313  0.00  0.00    +0.000 C 
ATOM      8  O   UNL     1       0.022  10.006  23.499  0.00  0.00    +0.000 OA
ENDROOT
BRANCH   6   9
ATOM      9  C   UNL     1       1.776   7.453  20.401  0.00  0.00    +0.000 C 
ATOM     10  C   UNL     1       1.834   6.113  20.462  0.00  0.00    +0.000 C 
BRANCH  10  11
ATOM     11  C   UNL     1       2.523   5.357  19.403  0.00  0.00    +0.000 A 
ATOM     12  C   UNL     1       3.914   5.426  19.300  0.00  0.00    +0.000 A 
ATOM     13  C   UNL     1       4.582   4.748  18.276  0.00  0.00    +0.000 A 
ATOM     14  C   UNL     1       3.859   3.997  17.351  0.00  0.00    +0.000 A 
ATOM     15  C   UNL     1       2.470   3.926  17.450  0.00  0.00    +0.000 A 
ATOM     16  C   UNL     1       1.800   4.607  18.471  0.00  0.00    +0.000 A 
ENDBRANCH  10  11
ENDBRANCH   6   9
BRANCH   1  17
ATOM     17  C   UNL     1      -1.233  12.467  22.610  0.00  0.00    +0.000 C 
BRANCH  17  19
ATOM     18  O   UNL     1      -3.077  11.506  23.824  0.00  0.00    +0.000 OA
ATOM     19  C   UNL     1      -2.730  12.216  22.880  0.00  0.00    +0.000 C 
ATOM     20  N   UNL     1      -3.611  12.842  21.988  0.00  0.00    +0.000 N 
ATOM     21  H   UNL     1      -3.246  13.193  21.098  0.00  0.00    +0.000 HD
BRANCH  20  22
ATOM     22  C   UNL     1      -5.031  12.973  22.165  0.00  0.00    +0.000 A 
ATOM     23  C   UNL     1      -5.549  13.465  23.373  0.00  0.00    +0.000 A 
ATOM     24  C   UNL     1      -6.921  13.633  23.578  0.00  0.00    +0.000 A 
ATOM     25  C   UNL     1      -7.818  13.375  22.557  0.00  0.00    +0.000 A 
ATOM     26  C   UNL     1      -7.343  12.915  21.334  0.00  0.00    +0.000 A 
ATOM     27  C   UNL     1      -5.964  12.663  21.143  0.00  0.00    +0.000 A 
BRANCH  27  28
ATOM     28  C   UNL     1      -5.538  12.047  19.858  0.00  0.00    +0.000 C 
ATOM     29  O   UNL     1      -6.135  11.119  19.341  0.00  0.00    +0.000 OA
BRANCH  28  30
ATOM     30  O   UNL     1      -4.464  12.642  19.281  0.00  0.00    +0.000 OA
ATOM     31  H   UNL     1      -4.606  13.525  18.894  0.00  0.00    +0.000 HD
ENDBRANCH  28  30
ENDBRANCH  27  28
ENDBRANCH  20  22
ENDBRANCH  17  19
ENDBRANCH   1  17
TORSDOF 7
ENDMDL
MODEL 7
REMARK VINA RESULT:      -8.0      7.313     10.451
REMARK  Name = 
REMARK  7 active torsions:
REMARK  status: ('A' for Active; 'I' for Inactive)
REMARK    1  A    between atoms: C_2  and  C_3
REMARK    2  A    between atoms: C_3  and  N_4
REMARK    3  A    between atoms: C_9  and  C_10
REMARK    4  A    between atoms: C_11  and  C_12
REMARK    5  A    between atoms: N_20  and  C_21
REMARK    6  A    between atoms: C_26  and  C_27
REMARK    7  A    between atoms: C_27  and  O_29
REMARK                            x       y       z     vdW  Elec       q    Type
REMARK                         _______ _______ _______ _____ _____    ______ ____
ROOT
ATOM      1  N   UNL     1       0.543  10.837  20.776  0.00  0.00    +0.000 N 
ATOM      2  C   UNL     1       0.562   9.983  21.844  0.00  0.00    +0.000 C 
ATOM      3  O   UNL     1       0.222  10.235  22.988  0.00  0.00    +0.000 OA
ATOM      4  S   UNL     1       1.234   8.433  21.381  0.00  0.00    +0.000 S 
ATOM      5  C   UNL     1       1.514   8.939  19.753  0.00  0.00    +0.000 C 
ATOM      6  C   UNL     1       2.003   8.198  18.754  0.00  0.00    +0.000 C 
ATOM      7  C   UNL     1       1.118  10.380  19.614  0.00  0.00    +0.000 C 
ATOM      8  O   UNL     1       1.333  11.041  18.609  0.00  0.00    +0.000 OA
ENDROOT
BRANCH   6   9
ATOM      9  C   UNL     1       2.350   6.786  18.838  0.00  0.00    +0.000 C 
ATOM     10  C   UNL     1       2.110   5.883  17.874  0.00  0.00    +0.000 C 
BRANCH  10  11
ATOM     11  C   UNL     1       2.415   4.462  18.104  0.00  0.00    +0.000 A 
ATOM     12  C   UNL     1       3.659   3.952  17.722  0.00  0.00    +0.000 A 
ATOM     13  C   UNL     1       3.951   2.596  17.894  0.00  0.00    +0.000 A 
ATOM     14  C   UNL     1       2.999   1.744  18.451  0.00  0.00    +0.000 A 
ATOM     15  C   UNL     1       1.756   2.248  18.834  0.00  0.00    +0.000 A 
ATOM     16  C   UNL     1       1.461   3.603  18.658  0.00  0.00    +0.000 A 
ENDBRANCH  10  11
ENDBRANCH   6   9
BRANCH   1  17
ATOM     17  C   UNL     1       0.022  12.198  20.926  0.00  0.00    +0.000 C 
BRANCH  17  19
ATOM     18  O   UNL     1      -1.044  13.659  19.334  0.00  0.00    +0.000 OA
ATOM     19  C   UNL     1      -1.003  12.529  19.822  0.00  0.00    +0.000 C 
ATOM     20  N   UNL     1      -1.843  11.470  19.451  0.00  0.00    +0.000 N 
ATOM     21  H   UNL     1      -1.917  10.659  20.071  0.00  0.00    +0.000 HD
BRANCH  20  22
ATOM     22  C   UNL     1      -2.696  11.442  18.295  0.00  0.00    +0.000 A 
ATOM     23  C   UNL     1      -2.201  10.986  17.064  0.00  0.00    +0.000 A 
ATOM     24  C   UNL     1      -3.003  10.917  15.922  0.00  0.00    +0.000 A 
ATOM     25  C   UNL     1      -4.346  11.243  15.988  0.00  0.00    +0.000 A 
ATOM     26  C   UNL     1      -4.883  11.672  17.198  0.00  0.00    +0.000 A 
ATOM     27  C   UNL     1      -4.061  11.823  18.340  0.00  0.00    +0.000 A 
BRANCH  27  28
ATOM     28  C   UNL     1      -4.668  12.410  19.564  0.00  0.00    +0.000 C 
ATOM     29  O   UNL     1      -5.595  11.886  20.158  0.00  0.00    +0.000 OA
BRANCH  28  30
ATOM     30  O   UNL     1      -4.069  13.547  19.997  0.00  0.00    +0.000 OA
ATOM     31  H   UNL     1      -3.182  13.739  19.643  0.00  0.00    +0.000 HD
ENDBRANCH  28  30
ENDBRANCH  27  28
ENDBRANCH  20  22
ENDBRANCH  17  19
ENDBRANCH   1  17
TORSDOF 7
ENDMDL
MODEL 8
REMARK VINA RESULT:      -8.0      1.270      1.869
REMARK  Name = 
REMARK  7 active torsions:
REMARK  status: ('A' for Active; 'I' for Inactive)
REMARK    1  A    between atoms: C_2  and  C_3
REMARK    2  A    between atoms: C_3  and  N_4
REMARK    3  A    between atoms: C_9  and  C_10
REMARK    4  A    between atoms: C_11  and  C_12
REMARK    5  A    between atoms: N_20  and  C_21
REMARK    6  A    between atoms: C_26  and  C_27
REMARK    7  A    between atoms: C_27  and  O_29
REMARK                            x       y       z     vdW  Elec       q    Type
REMARK                         _______ _______ _______ _____ _____    ______ ____
ROOT
ATOM      1  N   UNL     1       6.450   5.477  17.061  0.00  0.00    +0.000 N 
ATOM      2  C   UNL     1       5.919   6.527  16.364  0.00  0.00    +0.000 C 
ATOM      3  O   UNL     1       5.101   6.465  15.461  0.00  0.00    +0.000 OA
ATOM      4  S   UNL     1       6.635   8.038  16.885  0.00  0.00    +0.000 S 
ATOM      5  C   UNL     1       7.670   7.259  18.027  0.00  0.00    +0.000 C 
ATOM      6  C   UNL     1       8.522   7.846  18.872  0.00  0.00    +0.000 C 
ATOM      7  C   UNL     1       7.471   5.774  17.934  0.00  0.00    +0.000 C 
ATOM      8  O   UNL     1       8.168   4.964  18.527  0.00  0.00    +0.000 OA
ENDROOT
BRANCH   6   9
ATOM      9  C   UNL     1       8.705   9.283  19.027  0.00  0.00    +0.000 C 
ATOM     10  C   UNL     1       9.418  10.056  18.193  0.00  0.00    +0.000 C 
BRANCH  10  11
ATOM     11  C   UNL     1       9.618  11.482  18.500  0.00  0.00    +0.000 A 
ATOM     12  C   UNL     1       8.900  12.448  17.790  0.00  0.00    +0.000 A 
ATOM     13  C   UNL     1       9.108  13.807  18.038  0.00  0.00    +0.000 A 
ATOM     14  C   UNL     1      10.033  14.206  19.001  0.00  0.00    +0.000 A 
ATOM     15  C   UNL     1      10.752  13.246  19.713  0.00  0.00    +0.000 A 
ATOM     16  C   UNL     1      10.548  11.886  19.462  0.00  0.00    +0.000 A 
ENDBRANCH  10  11
ENDBRANCH   6   9
BRANCH   1  17
ATOM     17  C   UNL     1       6.002   4.108  16.795  0.00  0.00    +0.000 C 
BRANCH  17  19
ATOM     18  O   UNL     1       3.762   3.224  16.830  0.00  0.00    +0.000 OA
ATOM     19  C   UNL     1       4.635   3.830  17.452  0.00  0.00    +0.000 C 
ATOM     20  N   UNL     1       4.492   4.313  18.760  0.00  0.00    +0.000 N 
ATOM     21  H   UNL     1       5.154   5.014  19.102  0.00  0.00    +0.000 HD
BRANCH  20  22
ATOM     22  C   UNL     1       3.432   3.972  19.668  0.00  0.00    +0.000 A 
ATOM     23  C   UNL     1       2.343   4.841  19.839  0.00  0.00    +0.000 A 
ATOM     24  C   UNL     1       1.278   4.536  20.691  0.00  0.00    +0.000 A 
ATOM     25  C   UNL     1       1.235   3.321  21.352  0.00  0.00    +0.000 A 
ATOM     26  C   UNL     1       2.280   2.419  21.185  0.00  0.00    +0.000 A 
ATOM     27  C   UNL     1       3.402   2.752  20.390  0.00  0.00    +0.000 A 
BRANCH  27  28
ATOM     28  C   UNL     1       4.543   1.799  20.360  0.00  0.00    +0.000 C 
ATOM     29  O   UNL     1       5.249   1.582  21.330  0.00  0.00    +0.000 OA
BRANCH  28  30
ATOM     30  O   UNL     1       4.700   1.149  19.179  0.00  0.00    +0.000 OA
ATOM     31  H   UNL     1       5.324   1.540  18.541  0.00  0.00    +0.000 HD
ENDBRANCH  28  30
ENDBRANCH  27  28
ENDBRANCH  20  22
ENDBRANCH  17  19
ENDBRANCH   1  17
TORSDOF 7
ENDMDL
MODEL 9
REMARK VINA RESULT:      -8.0      5.137      7.801
REMARK  Name = 
REMARK  7 active torsions:
REMARK  status: ('A' for Active; 'I' for Inactive)
REMARK    1  A    between atoms: C_2  and  C_3
REMARK    2  A    between atoms: C_3  and  N_4
REMARK    3  A    between atoms: C_9  and  C_10
REMARK    4  A    between atoms: C_11  and  C_12
REMARK    5  A    between atoms: N_20  and  C_21
REMARK    6  A    between atoms: C_26  and  C_27
REMARK    7  A    between atoms: C_27  and  O_29
REMARK                            x       y       z     vdW  Elec       q    Type
REMARK                         _______ _______ _______ _____ _____    ______ ____
ROOT
ATOM      1  N   UNL     1       3.358   4.208  19.661  0.00  0.00    +0.000 N 
ATOM      2  C   UNL     1       2.944   3.007  19.155  0.00  0.00    +0.000 C 
ATOM      3  O   UNL     1       2.168   2.223  19.675  0.00  0.00    +0.000 OA
ATOM      4  S   UNL     1       3.751   2.666  17.638  0.00  0.00    +0.000 S 
ATOM      5  C   UNL     1       4.667   4.129  17.692  0.00  0.00    +0.000 C 
ATOM      6  C   UNL     1       5.522   4.577  16.768  0.00  0.00    +0.000 C 
ATOM      7  C   UNL     1       4.357   4.853  18.970  0.00  0.00    +0.000 C 
ATOM      8  O   UNL     1       4.960   5.850  19.341  0.00  0.00    +0.000 OA
ENDROOT
BRANCH   6   9
ATOM      9  C   UNL     1       5.810   3.929  15.495  0.00  0.00    +0.000 C 
ATOM     10  C   UNL     1       5.600   4.485  14.292  0.00  0.00    +0.000 C 
BRANCH  10  11
ATOM     11  C   UNL     1       5.836   3.703  13.068  0.00  0.00    +0.000 A 
ATOM     12  C   UNL     1       4.749   3.181  12.363  0.00  0.00    +0.000 A 
ATOM     13  C   UNL     1       4.955   2.400  11.222  0.00  0.00    +0.000 A 
ATOM     14  C   UNL     1       6.251   2.140  10.781  0.00  0.00    +0.000 A 
ATOM     15  C   UNL     1       7.340   2.659  11.481  0.00  0.00    +0.000 A 
ATOM     16  C   UNL     1       7.135   3.437  12.625  0.00  0.00    +0.000 A 
ENDBRANCH  10  11
ENDBRANCH   6   9
BRANCH   1  17
ATOM     17  C   UNL     1       2.817   4.704  20.928  0.00  0.00    +0.000 C 
BRANCH  17  19
ATOM     18  O   UNL     1       0.556   5.455  20.571  0.00  0.00    +0.000 OA
ATOM     19  C   UNL     1       1.737   5.780  20.692  0.00  0.00    +0.000 C 
ATOM     20  N   UNL     1       2.212   7.098  20.631  0.00  0.00    +0.000 N 
ATOM     21  H   UNL     1       3.212   7.256  20.485  0.00  0.00    +0.000 HD
BRANCH  20  22
ATOM     22  C   UNL     1       1.400   8.283  20.672  0.00  0.00    +0.000 A 
ATOM     23  C   UNL     1       0.746   8.649  21.858  0.00  0.00    +0.000 A 
ATOM     24  C   UNL     1      -0.030   9.808  21.950  0.00  0.00    +0.000 A 
ATOM     25  C   UNL     1      -0.127  10.673  20.875  0.00  0.00    +0.000 A 
ATOM     26  C   UNL     1       0.532  10.361  19.690  0.00  0.00    +0.000 A 
ATOM     27  C   UNL     1       1.253   9.151  19.560  0.00  0.00    +0.000 A 
BRANCH  27  28
ATOM     28  C   UNL     1       1.822   8.816  18.228  0.00  0.00    +0.000 C 
ATOM     29  O   UNL     1       2.094   7.676  17.893  0.00  0.00    +0.000 OA
BRANCH  28  30
ATOM     30  O   UNL     1       1.959   9.877  17.395  0.00  0.00    +0.000 OA
ATOM     31  H   UNL     1       2.314  10.698  17.782  0.00  0.00    +0.000 HD
ENDBRANCH  28  30
ENDBRANCH  27  28
ENDBRANCH  20  22
ENDBRANCH  17  19
ENDBRANCH   1  17
TORSDOF 7
ENDMDL
