MODEL 1
REMARK VINA RESULT:      -7.3      0.000      0.000
REMARK  Name = 
REMARK  4 active torsions:
REMARK  status: ('A' for Active; 'I' for Inactive)
REMARK    1  A    between atoms: N_1  and  S_2
REMARK    2  A    between atoms: S_2  and  C_5
REMARK    3  A    between atoms: C_7  and  C_8
REMARK    4  A    between atoms: C_14  and  S_15
REMARK                            x       y       z     vdW  Elec       q    Type
REMARK                         _______ _______ _______ _____ _____    ______ ____
ROOT
ATOM      1  C   UNL     1       5.546   5.199  17.560  0.00  0.00    +0.000 A 
ATOM      2  C   UNL     1       4.771   5.873  18.520  0.00  0.00    +0.000 A 
ATOM      3  C   UNL     1       3.405   5.595  18.628  0.00  0.00    +0.000 A 
ATOM      4  C   UNL     1       2.827   4.624  17.801  0.00  0.00    +0.000 A 
ATOM      5  C   UNL     1       3.605   3.953  16.853  0.00  0.00    +0.000 A 
ATOM      6  C   UNL     1       4.965   4.243  16.721  0.00  0.00    +0.000 A 
ATOM      7 CL   UNL     1       5.828   3.361  15.512  0.00  0.00    +0.000 Cl
ENDROOT
BRANCH   3   8
ATOM      8  C   UNL     1       2.534   6.292  19.612  0.00  0.00    +0.000 C 
ATOM      9  O   UNL     1       2.072   5.636  20.535  0.00  0.00    +0.000 OA
ATOM     10  N   UNL     1       2.282   7.614  19.325  0.00  0.00    +0.000 N 
ATOM     11  C   UNL     1       1.460   8.368  20.119  0.00  0.00    +0.000 A 
ATOM     12  N   UNL     1       0.953   8.113  21.300  0.00  0.00    +0.000 NA
ATOM     13  N   UNL     1       0.121   9.134  21.729  0.00  0.00    +0.000 NA
ATOM     14  C   UNL     1       0.038  10.098  20.839  0.00  0.00    +0.000 A 
ATOM     15  S   UNL     1       1.013   9.873  19.449  0.00  0.00    +0.000 S 
ATOM     16  H   UNL     1       2.569   8.030  18.452  0.00  0.00    +0.000 HD
BRANCH  14  17
ATOM     17  S   UNL     1      -1.001  11.473  21.084  0.00  0.00    +0.000 S 
ATOM     18  H   UNL     1      -2.146  10.829  20.813  0.00  0.00    +0.000 HD
ENDBRANCH  14  17
ENDBRANCH   3   8
BRANCH   1  19
ATOM     19  S   UNL     1       7.249   5.638  17.406  0.00  0.00    +0.000 S 
ATOM     20  O   UNL     1       7.610   6.464  18.536  0.00  0.00    +0.000 OA
ATOM     21  O   UNL     1       7.504   6.061  16.050  0.00  0.00    +0.000 OA
BRANCH  19  22
ATOM     22  N   UNL     1       8.050   4.187  17.648  0.00  0.00    +0.000 NA
ATOM     23  H   UNL     1       8.042   3.631  16.792  0.00  0.00    +0.000 HD
ATOM     24  H   UNL     1       7.668   3.699  18.461  0.00  0.00    +0.000 HD
ENDBRANCH  19  22
ENDBRANCH   1  19
TORSDOF 4
ENDMDL
MODEL 2
REMARK VINA RESULT:      -6.9      2.689      3.034
REMARK  Name = 
REMARK  4 active torsions:
REMARK  status: ('A' for Active; 'I' for Inactive)
REMARK    1  A    between atoms: N_1  and  S_2
REMARK    2  A    between atoms: S_2  and  C_5
REMARK    3  A    between atoms: C_7  and  C_8
REMARK    4  A    between atoms: C_14  and  S_15
REMARK                            x       y       z     vdW  Elec       q    Type
REMARK                         _______ _______ _______ _____ _____    ______ ____
ROOT
ATOM      1  C   UNL     1       4.111   4.893  17.986  0.00  0.00    +0.000 A 
ATOM      2  C   UNL     1       3.183   5.878  18.368  0.00  0.00    +0.000 A 
ATOM      3  C   UNL     1       3.272   7.163  17.824  0.00  0.00    +0.000 A 
ATOM      4  C   UNL     1       4.265   7.449  16.879  0.00  0.00    +0.000 A 
ATOM      5  C   UNL     1       5.180   6.463  16.499  0.00  0.00    +0.000 A 
ATOM      6  C   UNL     1       5.115   5.184  17.057  0.00  0.00    +0.000 A 
ATOM      7 CL   UNL     1       6.300   4.047  16.523  0.00  0.00    +0.000 Cl
ENDROOT
BRANCH   3   8
ATOM      8  C   UNL     1       2.330   8.249  18.206  0.00  0.00    +0.000 C 
ATOM      9  O   UNL     1       2.146   9.156  17.408  0.00  0.00    +0.000 OA
ATOM     10  N   UNL     1       1.812   8.142  19.477  0.00  0.00    +0.000 N 
ATOM     11  C   UNL     1       0.966   9.094  19.980  0.00  0.00    +0.000 A 
ATOM     12  N   UNL     1       0.357  10.090  19.383  0.00  0.00    +0.000 NA
ATOM     13  N   UNL     1      -0.371  10.852  20.281  0.00  0.00    +0.000 NA
ATOM     14  C   UNL     1      -0.260  10.395  21.508  0.00  0.00    +0.000 A 
ATOM     15  S   UNL     1       0.678   8.970  21.658  0.00  0.00    +0.000 S 
ATOM     16  H   UNL     1       2.148   7.450  20.128  0.00  0.00    +0.000 HD
BRANCH  14  17
ATOM     17  S   UNL     1      -1.011  11.210  22.851  0.00  0.00    +0.000 S 
ATOM     18  H   UNL     1      -0.805  10.227  23.740  0.00  0.00    +0.000 HD
ENDBRANCH  14  17
ENDBRANCH   3   8
BRANCH   1  19
ATOM     19  S   UNL     1       4.008   3.308  18.757  0.00  0.00    +0.000 S 
ATOM     20  O   UNL     1       5.161   3.143  19.614  0.00  0.00    +0.000 OA
ATOM     21  O   UNL     1       3.661   2.324  17.761  0.00  0.00    +0.000 OA
BRANCH  19  22
ATOM     22  N   UNL     1       2.705   3.464  19.797  0.00  0.00    +0.000 NA
ATOM     23  H   UNL     1       2.124   2.625  19.767  0.00  0.00    +0.000 HD
ATOM     24  H   UNL     1       2.193   4.327  19.603  0.00  0.00    +0.000 HD
ENDBRANCH  19  22
ENDBRANCH   1  19
TORSDOF 4
ENDMDL
MODEL 3
REMARK VINA RESULT:      -6.9      2.639      3.120
REMARK  Name = 
REMARK  4 active torsions:
REMARK  status: ('A' for Active; 'I' for Inactive)
REMARK    1  A    between atoms: N_1  and  S_2
REMARK    2  A    between atoms: S_2  and  C_5
REMARK    3  A    between atoms: C_7  and  C_8
REMARK    4  A    between atoms: C_14  and  S_15
REMARK                            x       y       z     vdW  Elec       q    Type
REMARK                         _______ _______ _______ _____ _____    ______ ____
ROOT
ATOM      1  C   UNL     1       3.881   4.777  17.985  0.00  0.00    +0.000 A 
ATOM      2  C   UNL     1       3.022   5.820  18.376  0.00  0.00    +0.000 A 
ATOM      3  C   UNL     1       3.186   7.095  17.826  0.00  0.00    +0.000 A 
ATOM      4  C   UNL     1       4.183   7.315  16.868  0.00  0.00    +0.000 A 
ATOM      5  C   UNL     1       5.028   6.272  16.479  0.00  0.00    +0.000 A 
ATOM      6  C   UNL     1       4.889   5.001  17.042  0.00  0.00    +0.000 A 
ATOM      7 CL   UNL     1       5.993   3.790  16.496  0.00  0.00    +0.000 Cl
ENDROOT
BRANCH   3   8
ATOM      8  C   UNL     1       2.320   8.239  18.217  0.00  0.00    +0.000 C 
ATOM      9  O   UNL     1       2.251   9.194  17.455  0.00  0.00    +0.000 OA
ATOM     10  N   UNL     1       1.734   8.122  19.457  0.00  0.00    +0.000 N 
ATOM     11  C   UNL     1       0.946   9.120  19.966  0.00  0.00    +0.000 A 
ATOM     12  N   UNL     1       0.452  10.189  19.391  0.00  0.00    +0.000 NA
ATOM     13  N   UNL     1      -0.253  10.971  20.290  0.00  0.00    +0.000 NA
ATOM     14  C   UNL     1      -0.240  10.453  21.498  0.00  0.00    +0.000 A 
ATOM     15  S   UNL     1       0.567   8.948  21.622  0.00  0.00    +0.000 S 
ATOM     16  H   UNL     1       1.979   7.376  20.089  0.00  0.00    +0.000 HD
BRANCH  14  17
ATOM     17  S   UNL     1      -0.985  11.269  22.843  0.00  0.00    +0.000 S 
ATOM     18  H   UNL     1       0.040  11.100  23.691  0.00  0.00    +0.000 HD
ENDBRANCH  14  17
ENDBRANCH   3   8
BRANCH   1  19
ATOM     19  S   UNL     1       3.688   3.204  18.763  0.00  0.00    +0.000 S 
ATOM     20  O   UNL     1       3.552   2.200  17.732  0.00  0.00    +0.000 OA
ATOM     21  O   UNL     1       2.725   3.324  19.831  0.00  0.00    +0.000 OA
BRANCH  19  22
ATOM     22  N   UNL     1       5.187   2.924  19.456  0.00  0.00    +0.000 NA
ATOM     23  H   UNL     1       5.379   3.620  20.178  0.00  0.00    +0.000 HD
ATOM     24  H   UNL     1       5.909   2.868  18.735  0.00  0.00    +0.000 HD
ENDBRANCH  19  22
ENDBRANCH   1  19
TORSDOF 4
ENDMDL
MODEL 4
REMARK VINA RESULT:      -6.8      2.127      2.349
REMARK  Name = 
REMARK  4 active torsions:
REMARK  status: ('A' for Active; 'I' for Inactive)
REMARK    1  A    between atoms: N_1  and  S_2
REMARK    2  A    between atoms: S_2  and  C_5
REMARK    3  A    between atoms: C_7  and  C_8
REMARK    4  A    between atoms: C_14  and  S_15
REMARK                            x       y       z     vdW  Elec       q    Type
REMARK                         _______ _______ _______ _____ _____    ______ ____
ROOT
ATOM      1  C   UNL     1       4.861   5.988  17.347  0.00  0.00    +0.000 A 
ATOM      2  C   UNL     1       4.229   7.213  17.624  0.00  0.00    +0.000 A 
ATOM      3  C   UNL     1       2.869   7.233  17.952  0.00  0.00    +0.000 A 
ATOM      4  C   UNL     1       2.158   6.030  18.033  0.00  0.00    +0.000 A 
ATOM      5  C   UNL     1       2.794   4.816  17.763  0.00  0.00    +0.000 A 
ATOM      6  C   UNL     1       4.145   4.788  17.409  0.00  0.00    +0.000 A 
ATOM      7 CL   UNL     1       4.828   3.235  17.087  0.00  0.00    +0.000 Cl
ENDROOT
BRANCH   3   8
ATOM      8  C   UNL     1       2.145   8.501  18.236  0.00  0.00    +0.000 C 
ATOM      9  O   UNL     1       2.230   9.406  17.418  0.00  0.00    +0.000 OA
ATOM     10  N   UNL     1       1.502   8.538  19.452  0.00  0.00    +0.000 N 
ATOM     11  C   UNL     1       0.832   9.658  19.866  0.00  0.00    +0.000 A 
ATOM     12  N   UNL     1       0.503  10.743  19.208  0.00  0.00    +0.000 NA
ATOM     13  N   UNL     1      -0.129  11.664  20.027  0.00  0.00    +0.000 NA
ATOM     14  C   UNL     1      -0.230  11.226  21.262  0.00  0.00    +0.000 A 
ATOM     15  S   UNL     1       0.370   9.641  21.509  0.00  0.00    +0.000 S 
ATOM     16  H   UNL     1       1.623   7.808  20.137  0.00  0.00    +0.000 HD
BRANCH  14  17
ATOM     17  S   UNL     1      -0.913  12.213  22.522  0.00  0.00    +0.000 S 
ATOM     18  H   UNL     1      -1.039  11.224  23.418  0.00  0.00    +0.000 HD
ENDBRANCH  14  17
ENDBRANCH   3   8
BRANCH   1  19
ATOM     19  S   UNL     1       6.558   6.019  16.861  0.00  0.00    +0.000 S 
ATOM     20  O   UNL     1       6.629   5.773  15.438  0.00  0.00    +0.000 OA
ATOM     21  O   UNL     1       7.328   5.240  17.801  0.00  0.00    +0.000 OA
BRANCH  19  22
ATOM     22  N   UNL     1       6.990   7.625  17.053  0.00  0.00    +0.000 NA
ATOM     23  H   UNL     1       6.755   8.158  16.215  0.00  0.00    +0.000 HD
ATOM     24  H   UNL     1       7.972   7.701  17.328  0.00  0.00    +0.000 HD
ENDBRANCH  19  22
ENDBRANCH   1  19
TORSDOF 4
ENDMDL
MODEL 5
REMARK VINA RESULT:      -6.8      3.392      3.901
REMARK  Name = 
REMARK  4 active torsions:
REMARK  status: ('A' for Active; 'I' for Inactive)
REMARK    1  A    between atoms: N_1  and  S_2
REMARK    2  A    between atoms: S_2  and  C_5
REMARK    3  A    between atoms: C_7  and  C_8
REMARK    4  A    between atoms: C_14  and  S_15
REMARK                            x       y       z     vdW  Elec       q    Type
REMARK                         _______ _______ _______ _____ _____    ______ ____
ROOT
ATOM      1  C   UNL     1       2.500   4.614  19.643  0.00  0.00    +0.000 A 
ATOM      2  C   UNL     1       2.024   5.698  20.403  0.00  0.00    +0.000 A 
ATOM      3  C   UNL     1       2.068   6.991  19.870  0.00  0.00    +0.000 A 
ATOM      4  C   UNL     1       2.555   7.190  18.572  0.00  0.00    +0.000 A 
ATOM      5  C   UNL     1       3.020   6.107  17.820  0.00  0.00    +0.000 A 
ATOM      6  C   UNL     1       3.004   4.816  18.355  0.00  0.00    +0.000 A 
ATOM      7 CL   UNL     1       3.611   3.555  17.343  0.00  0.00    +0.000 Cl
ENDROOT
BRANCH   3   8
ATOM      8  C   UNL     1       1.596   8.176  20.635  0.00  0.00    +0.000 C 
ATOM      9  O   UNL     1       1.511   8.077  21.851  0.00  0.00    +0.000 OA
ATOM     10  N   UNL     1       1.234   9.255  19.861  0.00  0.00    +0.000 N 
ATOM     11  C   UNL     1       0.739  10.399  20.428  0.00  0.00    +0.000 A 
ATOM     12  N   UNL     1       0.696  10.775  21.683  0.00  0.00    +0.000 NA
ATOM     13  N   UNL     1       0.055  11.994  21.827  0.00  0.00    +0.000 NA
ATOM     14  C   UNL     1      -0.361  12.464  20.672  0.00  0.00    +0.000 A 
ATOM     15  S   UNL     1       0.052  11.499  19.318  0.00  0.00    +0.000 S 
ATOM     16  H   UNL     1       1.179   9.191  18.856  0.00  0.00    +0.000 HD
BRANCH  14  17
ATOM     17  S   UNL     1      -1.268  13.946  20.568  0.00  0.00    +0.000 S 
ATOM     18  H   UNL     1      -0.253  14.752  20.910  0.00  0.00    +0.000 HD
ENDBRANCH  14  17
ENDBRANCH   3   8
BRANCH   1  19
ATOM     19  S   UNL     1       2.498   3.013  20.386  0.00  0.00    +0.000 S 
ATOM     20  O   UNL     1       3.860   2.528  20.426  0.00  0.00    +0.000 OA
ATOM     21  O   UNL     1       1.434   2.229  19.807  0.00  0.00    +0.000 OA
BRANCH  19  22
ATOM     22  N   UNL     1       2.094   3.323  21.982  0.00  0.00    +0.000 NA
ATOM     23  H   UNL     1       2.301   4.295  22.217  0.00  0.00    +0.000 HD
ATOM     24  H   UNL     1       2.540   2.644  22.602  0.00  0.00    +0.000 HD
ENDBRANCH  19  22
ENDBRANCH   1  19
TORSDOF 4
ENDMDL
MODEL 6
REMARK VINA RESULT:      -6.8      3.180      3.644
REMARK  Name = 
REMARK  4 active torsions:
REMARK  status: ('A' for Active; 'I' for Inactive)
REMARK    1  A    between atoms: N_1  and  S_2
REMARK    2  A    between atoms: S_2  and  C_5
REMARK    3  A    between atoms: C_7  and  C_8
REMARK    4  A    between atoms: C_14  and  S_15
REMARK                            x       y       z     vdW  Elec       q    Type
REMARK                         _______ _______ _______ _____ _____    ______ ____
ROOT
ATOM      1  C   UNL     1       2.991   4.995  18.048  0.00  0.00    +0.000 A 
ATOM      2  C   UNL     1       2.245   6.144  18.367  0.00  0.00    +0.000 A 
ATOM      3  C   UNL     1       2.720   7.405  17.992  0.00  0.00    +0.000 A 
ATOM      4  C   UNL     1       3.918   7.510  17.275  0.00  0.00    +0.000 A 
ATOM      5  C   UNL     1       4.650   6.364  16.955  0.00  0.00    +0.000 A 
ATOM      6  C   UNL     1       4.197   5.102  17.348  0.00  0.00    +0.000 A 
ATOM      7 CL   UNL     1       5.185   3.756  16.908  0.00  0.00    +0.000 Cl
ENDROOT
BRANCH   3   8
ATOM      8  C   UNL     1       1.983   8.655  18.320  0.00  0.00    +0.000 C 
ATOM      9  O   UNL     1       2.058   9.589  17.535  0.00  0.00    +0.000 OA
ATOM     10  N   UNL     1       1.341   8.643  19.538  0.00  0.00    +0.000 N 
ATOM     11  C   UNL     1       0.660   9.741  19.990  0.00  0.00    +0.000 A 
ATOM     12  N   UNL     1       0.319  10.845  19.371  0.00  0.00    +0.000 NA
ATOM     13  N   UNL     1      -0.321  11.730  20.222  0.00  0.00    +0.000 NA
ATOM     14  C   UNL     1      -0.416  11.248  21.441  0.00  0.00    +0.000 A 
ATOM     15  S   UNL     1       0.200   9.662  21.633  0.00  0.00    +0.000 S 
ATOM     16  H   UNL     1       1.470   7.891  20.196  0.00  0.00    +0.000 HD
BRANCH  14  17
ATOM     17  S   UNL     1      -1.109  12.184  22.735  0.00  0.00    +0.000 S 
ATOM     18  H   UNL     1      -0.413  11.594  23.718  0.00  0.00    +0.000 HD
ENDBRANCH  14  17
ENDBRANCH   3   8
BRANCH   1  19
ATOM     19  S   UNL     1       2.393   3.432  18.608  0.00  0.00    +0.000 S 
ATOM     20  O   UNL     1       3.329   2.908  19.578  0.00  0.00    +0.000 OA
ATOM     21  O   UNL     1       1.972   2.655  17.468  0.00  0.00    +0.000 OA
BRANCH  19  22
ATOM     22  N   UNL     1       1.024   3.830  19.488  0.00  0.00    +0.000 NA
ATOM     23  H   UNL     1       0.194   3.772  18.897  0.00  0.00    +0.000 HD
ATOM     24  H   UNL     1       1.144   4.737  19.944  0.00  0.00    +0.000 HD
ENDBRANCH  19  22
ENDBRANCH   1  19
TORSDOF 4
ENDMDL
MODEL 7
REMARK VINA RESULT:      -6.7      2.152      2.295
REMARK  Name = 
REMARK  4 active torsions:
REMARK  status: ('A' for Active; 'I' for Inactive)
REMARK    1  A    between atoms: N_1  and  S_2
REMARK    2  A    between atoms: S_2  and  C_5
REMARK    3  A    between atoms: C_7  and  C_8
REMARK    4  A    between atoms: C_14  and  S_15
REMARK                            x       y       z     vdW  Elec       q    Type
REMARK                         _______ _______ _______ _____ _____    ______ ____
ROOT
ATOM      1  C   UNL     1       4.500   5.287  17.407  0.00  0.00    +0.000 A 
ATOM      2  C   UNL     1       4.058   6.616  17.526  0.00  0.00    +0.000 A 
ATOM      3  C   UNL     1       2.765   6.878  17.992  0.00  0.00    +0.000 A 
ATOM      4  C   UNL     1       1.934   5.815  18.366  0.00  0.00    +0.000 A 
ATOM      5  C   UNL     1       2.383   4.496  18.252  0.00  0.00    +0.000 A 
ATOM      6  C   UNL     1       3.663   4.224  17.763  0.00  0.00    +0.000 A 
ATOM      7 CL   UNL     1       4.110   2.559  17.654  0.00  0.00    +0.000 Cl
ENDROOT
BRANCH   3   8
ATOM      8  C   UNL     1       2.238   8.263  18.119  0.00  0.00    +0.000 C 
ATOM      9  O   UNL     1       2.489   9.057  17.224  0.00  0.00    +0.000 OA
ATOM     10  N   UNL     1       1.570   8.520  19.295  0.00  0.00    +0.000 N 
ATOM     11  C   UNL     1       1.070   9.765  19.568  0.00  0.00    +0.000 A 
ATOM     12  N   UNL     1       0.935  10.814  18.796  0.00  0.00    +0.000 NA
ATOM     13  N   UNL     1       0.429  11.899  19.493  0.00  0.00    +0.000 NA
ATOM     14  C   UNL     1       0.222  11.608  20.758  0.00  0.00    +0.000 A 
ATOM     15  S   UNL     1       0.559   9.984  21.183  0.00  0.00    +0.000 S 
ATOM     16  H   UNL     1       1.555   7.853  20.051  0.00  0.00    +0.000 HD
BRANCH  14  17
ATOM     17  S   UNL     1      -0.339  12.810  21.885  0.00  0.00    +0.000 S 
ATOM     18  H   UNL     1       0.530  12.502  22.858  0.00  0.00    +0.000 HD
ENDBRANCH  14  17
ENDBRANCH   3   8
BRANCH   1  19
ATOM     19  S   UNL     1       6.110   5.001  16.741  0.00  0.00    +0.000 S 
ATOM     20  O   UNL     1       6.737   6.282  16.501  0.00  0.00    +0.000 OA
ATOM     21  O   UNL     1       6.018   4.000  15.706  0.00  0.00    +0.000 OA
BRANCH  19  22
ATOM     22  N   UNL     1       6.951   4.333  18.026  0.00  0.00    +0.000 NA
ATOM     23  H   UNL     1       7.183   3.358  17.829  0.00  0.00    +0.000 HD
ATOM     24  H   UNL     1       6.436   4.466  18.899  0.00  0.00    +0.000 HD
ENDBRANCH  19  22
ENDBRANCH   1  19
TORSDOF 4
ENDMDL
MODEL 8
REMARK VINA RESULT:      -6.7      2.557      3.005
REMARK  Name = 
REMARK  4 active torsions:
REMARK  status: ('A' for Active; 'I' for Inactive)
REMARK    1  A    between atoms: N_1  and  S_2
REMARK    2  A    between atoms: S_2  and  C_5
REMARK    3  A    between atoms: C_7  and  C_8
REMARK    4  A    between atoms: C_14  and  S_15
REMARK                            x       y       z     vdW  Elec       q    Type
REMARK                         _______ _______ _______ _____ _____    ______ ____
ROOT
ATOM      1  C   UNL     1       4.286   5.861  17.763  0.00  0.00    +0.000 A 
ATOM      2  C   UNL     1       3.613   7.087  17.611  0.00  0.00    +0.000 A 
ATOM      3  C   UNL     1       2.652   7.472  18.552  0.00  0.00    +0.000 A 
ATOM      4  C   UNL     1       2.391   6.649  19.654  0.00  0.00    +0.000 A 
ATOM      5  C   UNL     1       3.068   5.435  19.803  0.00  0.00    +0.000 A 
ATOM      6  C   UNL     1       4.011   5.030  18.854  0.00  0.00    +0.000 A 
ATOM      7 CL   UNL     1       4.780   3.509  19.131  0.00  0.00    +0.000 Cl
ENDROOT
BRANCH   3   8
ATOM      8  C   UNL     1       1.896   8.747  18.430  0.00  0.00    +0.000 C 
ATOM      9  O   UNL     1       1.984   9.369  17.381  0.00  0.00    +0.000 OA
ATOM     10  N   UNL     1       1.223   9.129  19.568  0.00  0.00    +0.000 N 
ATOM     11  C   UNL     1       0.521  10.304  19.616  0.00  0.00    +0.000 A 
ATOM     12  N   UNL     1       0.188  11.134  18.658  0.00  0.00    +0.000 NA
ATOM     13  N   UNL     1      -0.481  12.241  19.153  0.00  0.00    +0.000 NA
ATOM     14  C   UNL     1      -0.604  12.189  20.460  0.00  0.00    +0.000 A 
ATOM     15  S   UNL     1       0.020  10.767  21.181  0.00  0.00    +0.000 S 
ATOM     16  H   UNL     1       1.341   8.640  20.442  0.00  0.00    +0.000 HD
BRANCH  14  17
ATOM     17  S   UNL     1      -1.337  13.490  21.355  0.00  0.00    +0.000 S 
ATOM     18  H   UNL     1      -0.655  13.277  22.490  0.00  0.00    +0.000 HD
ENDBRANCH  14  17
ENDBRANCH   3   8
BRANCH   1  19
ATOM     19  S   UNL     1       5.433   5.380  16.511  0.00  0.00    +0.000 S 
ATOM     20  O   UNL     1       4.908   4.215  15.836  0.00  0.00    +0.000 OA
ATOM     21  O   UNL     1       6.765   5.395  17.066  0.00  0.00    +0.000 OA
BRANCH  19  22
ATOM     22  N   UNL     1       5.332   6.621  15.391  0.00  0.00    +0.000 NA
ATOM     23  H   UNL     1       4.367   6.944  15.306  0.00  0.00    +0.000 HD
ATOM     24  H   UNL     1       5.752   6.338  14.504  0.00  0.00    +0.000 HD
ENDBRANCH  19  22
ENDBRANCH   1  19
TORSDOF 4
ENDMDL
MODEL 9
REMARK VINA RESULT:      -6.7      2.295      2.769
REMARK  Name = 
REMARK  4 active torsions:
REMARK  status: ('A' for Active; 'I' for Inactive)
REMARK    1  A    between atoms: N_1  and  S_2
REMARK    2  A    between atoms: S_2  and  C_5
REMARK    3  A    between atoms: C_7  and  C_8
REMARK    4  A    between atoms: C_14  and  S_15
REMARK                            x       y       z     vdW  Elec       q    Type
REMARK                         _______ _______ _______ _____ _____    ______ ____
ROOT
ATOM      1  C   UNL     1       4.276   5.047  18.936  0.00  0.00    +0.000 A 
ATOM      2  C   UNL     1       3.678   6.320  18.913  0.00  0.00    +0.000 A 
ATOM      3  C   UNL     1       2.521   6.557  19.663  0.00  0.00    +0.000 A 
ATOM      4  C   UNL     1       1.987   5.534  20.455  0.00  0.00    +0.000 A 
ATOM      5  C   UNL     1       2.589   4.273  20.479  0.00  0.00    +0.000 A 
ATOM      6  C   UNL     1       3.730   4.020  19.713  0.00  0.00    +0.000 A 
ATOM      7 CL   UNL     1       4.386   2.425  19.810  0.00  0.00    +0.000 Cl
ENDROOT
BRANCH   3   8
ATOM      8  C   UNL     1       1.837   7.877  19.660  0.00  0.00    +0.000 C 
ATOM      9  O   UNL     1       2.021   8.618  18.705  0.00  0.00    +0.000 OA
ATOM     10  N   UNL     1       1.111   8.152  20.797  0.00  0.00    +0.000 N 
ATOM     11  C   UNL     1       0.464   9.350  20.952  0.00  0.00    +0.000 A 
ATOM     12  N   UNL     1       0.233  10.308  20.089  0.00  0.00    +0.000 NA
ATOM     13  N   UNL     1      -0.413  11.381  20.681  0.00  0.00    +0.000 NA
ATOM     14  C   UNL     1      -0.622  11.175  21.962  0.00  0.00    +0.000 A 
ATOM     15  S   UNL     1      -0.114   9.642  22.532  0.00  0.00    +0.000 S 
ATOM     16  H   UNL     1       1.149   7.553  21.607  0.00  0.00    +0.000 HD
BRANCH  14  17
ATOM     17  S   UNL     1      -1.348  12.394  22.971  0.00  0.00    +0.000 S 
ATOM     18  H   UNL     1      -0.195  12.881  23.450  0.00  0.00    +0.000 HD
ENDBRANCH  14  17
ENDBRANCH   3   8
BRANCH   1  19
ATOM     19  S   UNL     1       5.688   4.772  17.914  0.00  0.00    +0.000 S 
ATOM     20  O   UNL     1       5.295   3.917  16.816  0.00  0.00    +0.000 OA
ATOM     21  O   UNL     1       6.818   4.452  18.753  0.00  0.00    +0.000 OA
BRANCH  19  22
ATOM     22  N   UNL     1       5.971   6.272  17.226  0.00  0.00    +0.000 NA
ATOM     23  H   UNL     1       5.649   6.284  16.257  0.00  0.00    +0.000 HD
ATOM     24  H   UNL     1       6.951   6.539  17.338  0.00  0.00    +0.000 HD
ENDBRANCH  19  22
ENDBRANCH   1  19
TORSDOF 4
ENDMDL
