MODEL 1
REMARK VINA RESULT:      -6.8      0.000      0.000
REMARK  Name = 
REMARK  10 active torsions:
REMARK  status: ('A' for Active; 'I' for Inactive)
REMARK    1  A    between atoms: C_1  and  C_2
REMARK    2  A    between atoms: C_2  and  C_3
REMARK    3  A    between atoms: C_4  and  C_5
REMARK    4  A    between atoms: C_4  and  C_6
REMARK    5  A    between atoms: C_6  and  O_7
REMARK    6  A    between atoms: O_7  and  C_8
REMARK    7  A    between atoms: C_11  and  O_12
REMARK    8  A    between atoms: O_12  and  C_13
REMARK    9  A    between atoms: C_13  and  C_14
REMARK   10  A    between atoms: C_14  and  O_16
REMARK                            x       y       z     vdW  Elec       q    Type
REMARK                         _______ _______ _______ _____ _____    ______ ____
ROOT
ATOM      1  C   UNL     1       3.511   4.336  16.939  0.00  0.00    +0.000 A 
ATOM      2  C   UNL     1       4.625   3.840  16.262  0.00  0.00    +0.000 A 
ATOM      3  C   UNL     1       5.820   4.558  16.259  0.00  0.00    +0.000 A 
ATOM      4  C   UNL     1       5.901   5.796  16.894  0.00  0.00    +0.000 A 
ATOM      5  C   UNL     1       4.784   6.314  17.547  0.00  0.00    +0.000 A 
ATOM      6  C   UNL     1       3.588   5.587  17.558  0.00  0.00    +0.000 A 
ENDROOT
BRANCH   1   7
ATOM      7  O   UNL     1       2.316   3.678  17.063  0.00  0.00    +0.000 OA
BRANCH   7   8
ATOM      8  C   UNL     1       1.398   4.277  17.984  0.00  0.00    +0.000 C 
BRANCH   8  12
ATOM      9  C   UNL     1       1.945   5.154  20.800  0.00  0.00    +0.000 C 
ATOM     10  C   UNL     1       1.492   3.755  20.457  0.00  0.00    +0.000 C 
ATOM     11  C   UNL     1       1.373   2.815  21.629  0.00  0.00    +0.000 C 
ATOM     12  C   UNL     1       1.212   3.370  19.185  0.00  0.00    +0.000 C 
ATOM     13  C   UNL     1       0.739   1.986  18.814  0.00  0.00    +0.000 C 
ENDBRANCH   8  12
ENDBRANCH   7   8
ENDBRANCH   1   7
BRANCH   4  14
ATOM     14  O   UNL     1       7.132   6.385  16.829  0.00  0.00    +0.000 OA
BRANCH  14  15
ATOM     15  C   UNL     1       7.694   6.792  18.081  0.00  0.00    +0.000 C 
BRANCH  15  16
ATOM     16  C   UNL     1       7.764   5.562  18.969  0.00  0.00    +0.000 C 
ATOM     17  O   UNL     1       7.331   5.517  20.111  0.00  0.00    +0.000 OA
BRANCH  16  18
ATOM     18  O   UNL     1       8.368   4.503  18.378  0.00  0.00    +0.000 OA
ATOM     19  H   UNL     1       8.975   4.071  19.020  0.00  0.00    +0.000 HD
ENDBRANCH  16  18
ENDBRANCH  15  16
ENDBRANCH  14  15
ENDBRANCH   4  14
TORSDOF 7
ENDMDL
MODEL 2
REMARK VINA RESULT:      -6.8      2.630      3.947
REMARK  Name = 
REMARK  10 active torsions:
REMARK  status: ('A' for Active; 'I' for Inactive)
REMARK    1  A    between atoms: C_1  and  C_2
REMARK    2  A    between atoms: C_2  and  C_3
REMARK    3  A    between atoms: C_4  and  C_5
REMARK    4  A    between atoms: C_4  and  C_6
REMARK    5  A    between atoms: C_6  and  O_7
REMARK    6  A    between atoms: O_7  and  C_8
REMARK    7  A    between atoms: C_11  and  O_12
REMARK    8  A    between atoms: O_12  and  C_13
REMARK    9  A    between atoms: C_13  and  C_14
REMARK   10  A    between atoms: C_14  and  O_16
REMARK                            x       y       z     vdW  Elec       q    Type
REMARK                         _______ _______ _______ _____ _____    ______ ____
ROOT
ATOM      1  C   UNL     1       4.699   5.492  18.261  0.00  0.00    +0.000 A 
ATOM      2  C   UNL     1       5.274   4.270  17.912  0.00  0.00    +0.000 A 
ATOM      3  C   UNL     1       5.808   4.087  16.638  0.00  0.00    +0.000 A 
ATOM      4  C   UNL     1       5.734   5.103  15.688  0.00  0.00    +0.000 A 
ATOM      5  C   UNL     1       5.133   6.317  16.018  0.00  0.00    +0.000 A 
ATOM      6  C   UNL     1       4.607   6.503  17.301  0.00  0.00    +0.000 A 
ENDROOT
BRANCH   1   7
ATOM      7  O   UNL     1       4.211   5.799  19.504  0.00  0.00    +0.000 OA
BRANCH   7   8
ATOM      8  C   UNL     1       2.791   5.974  19.562  0.00  0.00    +0.000 C 
BRANCH   8  12
ATOM      9  C   UNL     1       1.453   4.294  17.468  0.00  0.00    +0.000 C 
ATOM     10  C   UNL     1       1.488   3.902  18.925  0.00  0.00    +0.000 C 
ATOM     11  C   UNL     1       0.765   2.623  19.261  0.00  0.00    +0.000 C 
ATOM     12  C   UNL     1       2.125   4.647  19.866  0.00  0.00    +0.000 C 
ATOM     13  C   UNL     1       2.194   4.269  21.326  0.00  0.00    +0.000 C 
ENDBRANCH   8  12
ENDBRANCH   7   8
ENDBRANCH   1   7
BRANCH   4  14
ATOM     14  O   UNL     1       6.309   4.799  14.487  0.00  0.00    +0.000 OA
BRANCH  14  15
ATOM     15  C   UNL     1       5.542   3.953  13.624  0.00  0.00    +0.000 C 
BRANCH  15  16
ATOM     16  C   UNL     1       6.432   3.570  12.454  0.00  0.00    +0.000 C 
ATOM     17  O   UNL     1       7.244   4.322  11.937  0.00  0.00    +0.000 OA
BRANCH  16  18
ATOM     18  O   UNL     1       6.236   2.301  12.020  0.00  0.00    +0.000 OA
ATOM     19  H   UNL     1       6.968   2.045  11.415  0.00  0.00    +0.000 HD
ENDBRANCH  16  18
ENDBRANCH  15  16
ENDBRANCH  14  15
ENDBRANCH   4  14
TORSDOF 7
ENDMDL
MODEL 3
REMARK VINA RESULT:      -6.7      2.262      3.487
REMARK  Name = 
REMARK  10 active torsions:
REMARK  status: ('A' for Active; 'I' for Inactive)
REMARK    1  A    between atoms: C_1  and  C_2
REMARK    2  A    between atoms: C_2  and  C_3
REMARK    3  A    between atoms: C_4  and  C_5
REMARK    4  A    between atoms: C_4  and  C_6
REMARK    5  A    between atoms: C_6  and  O_7
REMARK    6  A    between atoms: O_7  and  C_8
REMARK    7  A    between atoms: C_11  and  O_12
REMARK    8  A    between atoms: O_12  and  C_13
REMARK    9  A    between atoms: C_13  and  C_14
REMARK   10  A    between atoms: C_14  and  O_16
REMARK                            x       y       z     vdW  Elec       q    Type
REMARK                         _______ _______ _______ _____ _____    ______ ____
ROOT
ATOM      1  C   UNL     1       4.461   5.526  18.442  0.00  0.00    +0.000 A 
ATOM      2  C   UNL     1       4.976   4.367  17.861  0.00  0.00    +0.000 A 
ATOM      3  C   UNL     1       5.463   4.396  16.555  0.00  0.00    +0.000 A 
ATOM      4  C   UNL     1       5.399   5.567  15.803  0.00  0.00    +0.000 A 
ATOM      5  C   UNL     1       4.858   6.722  16.364  0.00  0.00    +0.000 A 
ATOM      6  C   UNL     1       4.380   6.694  17.679  0.00  0.00    +0.000 A 
ENDROOT
BRANCH   1   7
ATOM      7  O   UNL     1       4.025   5.624  19.737  0.00  0.00    +0.000 OA
BRANCH   7   8
ATOM      8  C   UNL     1       2.604   5.715  19.883  0.00  0.00    +0.000 C 
BRANCH   8  12
ATOM      9  C   UNL     1       1.341   4.318  17.548  0.00  0.00    +0.000 C 
ATOM     10  C   UNL     1       1.406   3.704  18.925  0.00  0.00    +0.000 C 
ATOM     11  C   UNL     1       0.752   2.352  19.055  0.00  0.00    +0.000 C 
ATOM     12  C   UNL     1       2.008   4.324  19.973  0.00  0.00    +0.000 C 
ATOM     13  C   UNL     1       2.106   3.726  21.355  0.00  0.00    +0.000 C 
ENDBRANCH   8  12
ENDBRANCH   7   8
ENDBRANCH   1   7
BRANCH   4  14
ATOM     14  O   UNL     1       5.925   5.461  14.547  0.00  0.00    +0.000 OA
BRANCH  14  15
ATOM     15  C   UNL     1       7.121   4.683  14.434  0.00  0.00    +0.000 C 
BRANCH  15  16
ATOM     16  C   UNL     1       7.849   5.148  13.184  0.00  0.00    +0.000 C 
ATOM     17  O   UNL     1       8.738   5.986  13.182  0.00  0.00    +0.000 OA
BRANCH  16  18
ATOM     18  O   UNL     1       7.411   4.549  12.051  0.00  0.00    +0.000 OA
ATOM     19  H   UNL     1       8.138   4.012  11.662  0.00  0.00    +0.000 HD
ENDBRANCH  16  18
ENDBRANCH  15  16
ENDBRANCH  14  15
ENDBRANCH   4  14
TORSDOF 7
ENDMDL
MODEL 4
REMARK VINA RESULT:      -6.7      2.273      3.695
REMARK  Name = 
REMARK  10 active torsions:
REMARK  status: ('A' for Active; 'I' for Inactive)
REMARK    1  A    between atoms: C_1  and  C_2
REMARK    2  A    between atoms: C_2  and  C_3
REMARK    3  A    between atoms: C_4  and  C_5
REMARK    4  A    between atoms: C_4  and  C_6
REMARK    5  A    between atoms: C_6  and  O_7
REMARK    6  A    between atoms: O_7  and  C_8
REMARK    7  A    between atoms: C_11  and  O_12
REMARK    8  A    between atoms: O_12  and  C_13
REMARK    9  A    between atoms: C_13  and  C_14
REMARK   10  A    between atoms: C_14  and  O_16
REMARK                            x       y       z     vdW  Elec       q    Type
REMARK                         _______ _______ _______ _____ _____    ______ ____
ROOT
ATOM      1  C   UNL     1       4.658   5.496  18.549  0.00  0.00    +0.000 A 
ATOM      2  C   UNL     1       4.729   6.676  17.809  0.00  0.00    +0.000 A 
ATOM      3  C   UNL     1       5.171   6.647  16.487  0.00  0.00    +0.000 A 
ATOM      4  C   UNL     1       5.586   5.451  15.907  0.00  0.00    +0.000 A 
ATOM      5  C   UNL     1       5.546   4.271  16.648  0.00  0.00    +0.000 A 
ATOM      6  C   UNL     1       5.093   4.300  17.972  0.00  0.00    +0.000 A 
ENDROOT
BRANCH   1   7
ATOM      7  O   UNL     1       4.173   5.404  19.827  0.00  0.00    +0.000 OA
BRANCH   7   8
ATOM      8  C   UNL     1       2.762   5.608  19.946  0.00  0.00    +0.000 C 
BRANCH   8  12
ATOM      9  C   UNL     1       1.554   4.325  17.519  0.00  0.00    +0.000 C 
ATOM     10  C   UNL     1       1.475   3.703  18.892  0.00  0.00    +0.000 C 
ATOM     11  C   UNL     1       0.708   2.407  18.965  0.00  0.00    +0.000 C 
ATOM     12  C   UNL     1       2.052   4.269  19.984  0.00  0.00    +0.000 C 
ATOM     13  C   UNL     1       2.007   3.660  21.364  0.00  0.00    +0.000 C 
ENDBRANCH   8  12
ENDBRANCH   7   8
ENDBRANCH   1   7
BRANCH   4  14
ATOM     14  O   UNL     1       5.978   5.560  14.603  0.00  0.00    +0.000 OA
BRANCH  14  15
ATOM     15  C   UNL     1       6.751   4.470  14.090  0.00  0.00    +0.000 C 
BRANCH  15  16
ATOM     16  C   UNL     1       7.675   5.031  13.023  0.00  0.00    +0.000 C 
ATOM     17  O   UNL     1       8.559   5.846  13.242  0.00  0.00    +0.000 OA
BRANCH  16  18
ATOM     18  O   UNL     1       7.422   4.548  11.783  0.00  0.00    +0.000 OA
ATOM     19  H   UNL     1       8.087   4.903  11.151  0.00  0.00    +0.000 HD
ENDBRANCH  16  18
ENDBRANCH  15  16
ENDBRANCH  14  15
ENDBRANCH   4  14
TORSDOF 7
ENDMDL
MODEL 5
REMARK VINA RESULT:      -6.7      1.073      1.820
REMARK  Name = 
REMARK  10 active torsions:
REMARK  status: ('A' for Active; 'I' for Inactive)
REMARK    1  A    between atoms: C_1  and  C_2
REMARK    2  A    between atoms: C_2  and  C_3
REMARK    3  A    between atoms: C_4  and  C_5
REMARK    4  A    between atoms: C_4  and  C_6
REMARK    5  A    between atoms: C_6  and  O_7
REMARK    6  A    between atoms: O_7  and  C_8
REMARK    7  A    between atoms: C_11  and  O_12
REMARK    8  A    between atoms: O_12  and  C_13
REMARK    9  A    between atoms: C_13  and  C_14
REMARK   10  A    between atoms: C_14  and  O_16
REMARK                            x       y       z     vdW  Elec       q    Type
REMARK                         _______ _______ _______ _____ _____    ______ ____
ROOT
ATOM      1  C   UNL     1       3.428   4.233  17.004  0.00  0.00    +0.000 A 
ATOM      2  C   UNL     1       3.573   5.472  17.627  0.00  0.00    +0.000 A 
ATOM      3  C   UNL     1       4.769   6.179  17.509  0.00  0.00    +0.000 A 
ATOM      4  C   UNL     1       5.843   5.638  16.806  0.00  0.00    +0.000 A 
ATOM      5  C   UNL     1       5.717   4.386  16.205  0.00  0.00    +0.000 A 
ATOM      6  C   UNL     1       4.513   3.682  16.317  0.00  0.00    +0.000 A 
ENDROOT
BRANCH   1   7
ATOM      7  O   UNL     1       2.275   3.492  16.998  0.00  0.00    +0.000 OA
BRANCH   7   8
ATOM      8  C   UNL     1       2.333   2.293  17.779  0.00  0.00    +0.000 C 
BRANCH   8  12
ATOM      9  C   UNL     1       4.322   2.328  20.024  0.00  0.00    +0.000 C 
ATOM     10  C   UNL     1       2.849   2.581  20.237  0.00  0.00    +0.000 C 
ATOM     11  C   UNL     1       2.440   2.812  21.670  0.00  0.00    +0.000 C 
ATOM     12  C   UNL     1       1.955   2.599  19.215  0.00  0.00    +0.000 C 
ATOM     13  C   UNL     1       0.481   2.868  19.395  0.00  0.00    +0.000 C 
ENDBRANCH   8  12
ENDBRANCH   7   8
ENDBRANCH   1   7
BRANCH   4  14
ATOM     14  O   UNL     1       6.947   6.440  16.753  0.00  0.00    +0.000 OA
BRANCH  14  15
ATOM     15  C   UNL     1       7.536   6.773  18.014  0.00  0.00    +0.000 C 
BRANCH  15  16
ATOM     16  C   UNL     1       7.811   5.471  18.746  0.00  0.00    +0.000 C 
ATOM     17  O   UNL     1       8.383   4.513  18.247  0.00  0.00    +0.000 OA
BRANCH  16  18
ATOM     18  O   UNL     1       7.349   5.460  20.020  0.00  0.00    +0.000 OA
ATOM     19  H   UNL     1       6.824   4.642  20.170  0.00  0.00    +0.000 HD
ENDBRANCH  16  18
ENDBRANCH  15  16
ENDBRANCH  14  15
ENDBRANCH   4  14
TORSDOF 7
ENDMDL
MODEL 6
REMARK VINA RESULT:      -6.6      2.355      3.706
REMARK  Name = 
REMARK  10 active torsions:
REMARK  status: ('A' for Active; 'I' for Inactive)
REMARK    1  A    between atoms: C_1  and  C_2
REMARK    2  A    between atoms: C_2  and  C_3
REMARK    3  A    between atoms: C_4  and  C_5
REMARK    4  A    between atoms: C_4  and  C_6
REMARK    5  A    between atoms: C_6  and  O_7
REMARK    6  A    between atoms: O_7  and  C_8
REMARK    7  A    between atoms: C_11  and  O_12
REMARK    8  A    between atoms: O_12  and  C_13
REMARK    9  A    between atoms: C_13  and  C_14
REMARK   10  A    between atoms: C_14  and  O_16
REMARK                            x       y       z     vdW  Elec       q    Type
REMARK                         _______ _______ _______ _____ _____    ______ ____
ROOT
ATOM      1  C   UNL     1       4.596   5.838  18.332  0.00  0.00    +0.000 A 
ATOM      2  C   UNL     1       4.369   6.375  17.064  0.00  0.00    +0.000 A 
ATOM      3  C   UNL     1       5.343   6.262  16.073  0.00  0.00    +0.000 A 
ATOM      4  C   UNL     1       6.565   5.653  16.349  0.00  0.00    +0.000 A 
ATOM      5  C   UNL     1       6.812   5.141  17.621  0.00  0.00    +0.000 A 
ATOM      6  C   UNL     1       5.830   5.246  18.612  0.00  0.00    +0.000 A 
ENDROOT
BRANCH   1   7
ATOM      7  O   UNL     1       3.681   5.832  19.352  0.00  0.00    +0.000 OA
BRANCH   7   8
ATOM      8  C   UNL     1       3.621   4.608  20.092  0.00  0.00    +0.000 C 
BRANCH   8  12
ATOM      9  C   UNL     1       3.342   2.282  18.218  0.00  0.00    +0.000 C 
ATOM     10  C   UNL     1       2.167   2.882  18.952  0.00  0.00    +0.000 C 
ATOM     11  C   UNL     1       0.832   2.253  18.644  0.00  0.00    +0.000 C 
ATOM     12  C   UNL     1       2.300   3.913  19.826  0.00  0.00    +0.000 C 
ATOM     13  C   UNL     1       1.148   4.519  20.588  0.00  0.00    +0.000 C 
ENDBRANCH   8  12
ENDBRANCH   7   8
ENDBRANCH   1   7
BRANCH   4  14
ATOM     14  O   UNL     1       7.421   5.595  15.286  0.00  0.00    +0.000 OA
BRANCH  14  15
ATOM     15  C   UNL     1       7.056   4.687  14.241  0.00  0.00    +0.000 C 
BRANCH  15  16
ATOM     16  C   UNL     1       7.787   5.125  12.983  0.00  0.00    +0.000 C 
ATOM     17  O   UNL     1       7.482   4.767  11.855  0.00  0.00    +0.000 OA
BRANCH  16  18
ATOM     18  O   UNL     1       8.831   5.953  13.227  0.00  0.00    +0.000 OA
ATOM     19  H   UNL     1       8.891   6.624  12.510  0.00  0.00    +0.000 HD
ENDBRANCH  16  18
ENDBRANCH  15  16
ENDBRANCH  14  15
ENDBRANCH   4  14
TORSDOF 7
ENDMDL
MODEL 7
REMARK VINA RESULT:      -6.6      0.384      1.188
REMARK  Name = 
REMARK  10 active torsions:
REMARK  status: ('A' for Active; 'I' for Inactive)
REMARK    1  A    between atoms: C_1  and  C_2
REMARK    2  A    between atoms: C_2  and  C_3
REMARK    3  A    between atoms: C_4  and  C_5
REMARK    4  A    between atoms: C_4  and  C_6
REMARK    5  A    between atoms: C_6  and  O_7
REMARK    6  A    between atoms: O_7  and  C_8
REMARK    7  A    between atoms: C_11  and  O_12
REMARK    8  A    between atoms: O_12  and  C_13
REMARK    9  A    between atoms: C_13  and  C_14
REMARK   10  A    between atoms: C_14  and  O_16
REMARK                            x       y       z     vdW  Elec       q    Type
REMARK                         _______ _______ _______ _____ _____    ______ ____
ROOT
ATOM      1  C   UNL     1       3.357   4.310  17.093  0.00  0.00    +0.000 A 
ATOM      2  C   UNL     1       3.576   5.611  17.548  0.00  0.00    +0.000 A 
ATOM      3  C   UNL     1       4.844   6.183  17.448  0.00  0.00    +0.000 A 
ATOM      4  C   UNL     1       5.911   5.449  16.934  0.00  0.00    +0.000 A 
ATOM      5  C   UNL     1       5.708   4.139  16.505  0.00  0.00    +0.000 A 
ATOM      6  C   UNL     1       4.433   3.569  16.597  0.00  0.00    +0.000 A 
ENDROOT
BRANCH   1   7
ATOM      7  O   UNL     1       2.139   3.683  17.080  0.00  0.00    +0.000 OA
BRANCH   7   8
ATOM      8  C   UNL     1       1.227   4.129  18.088  0.00  0.00    +0.000 C 
BRANCH   8  12
ATOM      9  C   UNL     1       1.680   5.475  20.730  0.00  0.00    +0.000 C 
ATOM     10  C   UNL     1       1.711   3.975  20.565  0.00  0.00    +0.000 C 
ATOM     11  C   UNL     1       2.028   3.200  21.819  0.00  0.00    +0.000 C 
ATOM     12  C   UNL     1       1.472   3.366  19.375  0.00  0.00    +0.000 C 
ATOM     13  C   UNL     1       1.477   1.869  19.184  0.00  0.00    +0.000 C 
ENDBRANCH   8  12
ENDBRANCH   7   8
ENDBRANCH   1   7
BRANCH   4  14
ATOM     14  O   UNL     1       7.092   6.133  16.877  0.00  0.00    +0.000 OA
BRANCH  14  15
ATOM     15  C   UNL     1       7.564   6.667  18.118  0.00  0.00    +0.000 C 
BRANCH  15  16
ATOM     16  C   UNL     1       7.814   5.495  19.051  0.00  0.00    +0.000 C 
ATOM     17  O   UNL     1       7.540   5.498  20.242  0.00  0.00    +0.000 OA
BRANCH  16  18
ATOM     18  O   UNL     1       8.386   4.430  18.439  0.00  0.00    +0.000 OA
ATOM     19  H   UNL     1       8.206   3.616  18.961  0.00  0.00    +0.000 HD
ENDBRANCH  16  18
ENDBRANCH  15  16
ENDBRANCH  14  15
ENDBRANCH   4  14
TORSDOF 7
ENDMDL
MODEL 8
REMARK VINA RESULT:      -6.6      2.280      3.649
REMARK  Name = 
REMARK  10 active torsions:
REMARK  status: ('A' for Active; 'I' for Inactive)
REMARK    1  A    between atoms: C_1  and  C_2
REMARK    2  A    between atoms: C_2  and  C_3
REMARK    3  A    between atoms: C_4  and  C_5
REMARK    4  A    between atoms: C_4  and  C_6
REMARK    5  A    between atoms: C_6  and  O_7
REMARK    6  A    between atoms: O_7  and  C_8
REMARK    7  A    between atoms: C_11  and  O_12
REMARK    8  A    between atoms: O_12  and  C_13
REMARK    9  A    between atoms: C_13  and  C_14
REMARK   10  A    between atoms: C_14  and  O_16
REMARK                            x       y       z     vdW  Elec       q    Type
REMARK                         _______ _______ _______ _____ _____    ______ ____
ROOT
ATOM      1  C   UNL     1       5.166   5.345  18.819  0.00  0.00    +0.000 A 
ATOM      2  C   UNL     1       6.535   5.076  18.852  0.00  0.00    +0.000 A 
ATOM      3  C   UNL     1       7.270   5.045  17.668  0.00  0.00    +0.000 A 
ATOM      4  C   UNL     1       6.640   5.239  16.440  0.00  0.00    +0.000 A 
ATOM      5  C   UNL     1       5.267   5.479  16.396  0.00  0.00    +0.000 A 
ATOM      6  C   UNL     1       4.533   5.519  17.586  0.00  0.00    +0.000 A 
ENDROOT
BRANCH   1   7
ATOM      7  O   UNL     1       4.369   5.468  19.927  0.00  0.00    +0.000 OA
BRANCH   7   8
ATOM      8  C   UNL     1       2.979   5.660  19.642  0.00  0.00    +0.000 C 
BRANCH   8  12
ATOM      9  C   UNL     1       1.442   4.121  17.577  0.00  0.00    +0.000 C 
ATOM     10  C   UNL     1       1.487   3.712  19.030  0.00  0.00    +0.000 C 
ATOM     11  C   UNL     1       0.669   2.495  19.378  0.00  0.00    +0.000 C 
ATOM     12  C   UNL     1       2.212   4.391  19.957  0.00  0.00    +0.000 C 
ATOM     13  C   UNL     1       2.292   3.995  21.411  0.00  0.00    +0.000 C 
ENDBRANCH   8  12
ENDBRANCH   7   8
ENDBRANCH   1   7
BRANCH   4  14
ATOM     14  O   UNL     1       7.478   5.201  15.362  0.00  0.00    +0.000 OA
BRANCH  14  15
ATOM     15  C   UNL     1       6.881   4.805  14.122  0.00  0.00    +0.000 C 
BRANCH  15  16
ATOM     16  C   UNL     1       7.833   5.211  13.010  0.00  0.00    +0.000 C 
ATOM     17  O   UNL     1       8.769   5.982  13.158  0.00  0.00    +0.000 OA
BRANCH  16  18
ATOM     18  O   UNL     1       7.542   4.640  11.816  0.00  0.00    +0.000 OA
ATOM     19  H   UNL     1       6.986   3.842  11.961  0.00  0.00    +0.000 HD
ENDBRANCH  16  18
ENDBRANCH  15  16
ENDBRANCH  14  15
ENDBRANCH   4  14
TORSDOF 7
ENDMDL
MODEL 9
REMARK VINA RESULT:      -6.5      1.585      2.296
REMARK  Name = 
REMARK  10 active torsions:
REMARK  status: ('A' for Active; 'I' for Inactive)
REMARK    1  A    between atoms: C_1  and  C_2
REMARK    2  A    between atoms: C_2  and  C_3
REMARK    3  A    between atoms: C_4  and  C_5
REMARK    4  A    between atoms: C_4  and  C_6
REMARK    5  A    between atoms: C_6  and  O_7
REMARK    6  A    between atoms: O_7  and  C_8
REMARK    7  A    between atoms: C_11  and  O_12
REMARK    8  A    between atoms: O_12  and  C_13
REMARK    9  A    between atoms: C_13  and  C_14
REMARK   10  A    between atoms: C_14  and  O_16
REMARK                            x       y       z     vdW  Elec       q    Type
REMARK                         _______ _______ _______ _____ _____    ______ ____
ROOT
ATOM      1  C   UNL     1       3.476   4.196  16.965  0.00  0.00    +0.000 A 
ATOM      2  C   UNL     1       3.392   5.467  17.532  0.00  0.00    +0.000 A 
ATOM      3  C   UNL     1       4.473   6.343  17.449  0.00  0.00    +0.000 A 
ATOM      4  C   UNL     1       5.661   5.944  16.839  0.00  0.00    +0.000 A 
ATOM      5  C   UNL     1       5.764   4.664  16.296  0.00  0.00    +0.000 A 
ATOM      6  C   UNL     1       4.674   3.790  16.372  0.00  0.00    +0.000 A 
ENDROOT
BRANCH   1   7
ATOM      7  O   UNL     1       2.451   3.287  16.930  0.00  0.00    +0.000 OA
BRANCH   7   8
ATOM      8  C   UNL     1       2.626   2.156  17.789  0.00  0.00    +0.000 C 
BRANCH   8  12
ATOM      9  C   UNL     1       4.380   2.377  20.213  0.00  0.00    +0.000 C 
ATOM     10  C   UNL     1       2.880   2.542  20.275  0.00  0.00    +0.000 C 
ATOM     11  C   UNL     1       2.320   2.787  21.654  0.00  0.00    +0.000 C 
ATOM     12  C   UNL     1       2.092   2.476  19.171  0.00  0.00    +0.000 C 
ATOM     13  C   UNL     1       0.594   2.657  19.201  0.00  0.00    +0.000 C 
ENDBRANCH   8  12
ENDBRANCH   7   8
ENDBRANCH   1   7
BRANCH   4  14
ATOM     14  O   UNL     1       6.633   6.903  16.810  0.00  0.00    +0.000 OA
BRANCH  14  15
ATOM     15  C   UNL     1       7.608   6.834  17.855  0.00  0.00    +0.000 C 
BRANCH  15  16
ATOM     16  C   UNL     1       8.059   8.255  18.150  0.00  0.00    +0.000 C 
ATOM     17  O   UNL     1       7.669   9.238  17.539  0.00  0.00    +0.000 OA
BRANCH  16  18
ATOM     18  O   UNL     1       8.957   8.336  19.162  0.00  0.00    +0.000 OA
ATOM     19  H   UNL     1       9.323   7.442  19.348  0.00  0.00    +0.000 HD
ENDBRANCH  16  18
ENDBRANCH  15  16
ENDBRANCH  14  15
ENDBRANCH   4  14
TORSDOF 7
ENDMDL
