MODEL 1
REMARK VINA RESULT:      -6.3      0.000      0.000
REMARK  Name = 
REMARK  0 active torsions:
REMARK  status: ('A' for Active; 'I' for Inactive)
REMARK                            x       y       z     vdW  Elec       q    Type
REMARK                         _______ _______ _______ _____ _____    ______ ____
ROOT
ATOM      1  O   UNL     1       1.370   3.993  17.625  0.00  0.00    +0.000 OA
ATOM      2  C   UNL     1       1.796   3.909  18.774  0.00  0.00    +0.000 C 
ATOM      3  C   UNL     1       0.862   3.771  19.953  0.00  0.00    +0.000 C 
ATOM      4  C   UNL     1       1.307   2.641  20.873  0.00  0.00    +0.000 C 
ATOM      5  C   UNL     1       2.752   2.814  21.324  0.00  0.00    +0.000 C 
ATOM      6  C   UNL     1       3.670   2.917  20.126  0.00  0.00    +0.000 C 
ATOM      7  O   UNL     1       4.672   2.217  20.022  0.00  0.00    +0.000 OA
ATOM      8  C   UNL     1       3.257   3.913  19.092  0.00  0.00    +0.000 C 
ATOM      9  C   UNL     1       4.105   4.835  18.592  0.00  0.00    +0.000 C 
ATOM     10  S   UNL     1       3.596   6.147  17.547  0.00  0.00    +0.000 S 
ATOM     11  C   UNL     1       5.214   6.364  16.766  0.00  0.00    +0.000 C 
ATOM     12  C   UNL     1       6.266   6.246  17.850  0.00  0.00    +0.000 C 
ATOM     13  S   UNL     1       5.815   4.894  18.979  0.00  0.00    +0.000 S 
ENDROOT
TORSDOF 0
ENDMDL
MODEL 2
REMARK VINA RESULT:      -5.9      1.769      2.395
REMARK  Name = 
REMARK  0 active torsions:
REMARK  status: ('A' for Active; 'I' for Inactive)
REMARK                            x       y       z     vdW  Elec       q    Type
REMARK                         _______ _______ _______ _____ _____    ______ ____
ROOT
ATOM      1  O   UNL     1       2.784   6.123  20.177  0.00  0.00    +0.000 OA
ATOM      2  C   UNL     1       2.625   4.935  19.908  0.00  0.00    +0.000 C 
ATOM      3  C   UNL     1       1.889   4.007  20.845  0.00  0.00    +0.000 C 
ATOM      4  C   UNL     1       0.847   3.187  20.095  0.00  0.00    +0.000 C 
ATOM      5  C   UNL     1       1.460   2.427  18.925  0.00  0.00    +0.000 C 
ATOM      6  C   UNL     1       2.163   3.382  17.985  0.00  0.00    +0.000 C 
ATOM      7  O   UNL     1       1.940   3.376  16.779  0.00  0.00    +0.000 OA
ATOM      8  C   UNL     1       3.121   4.324  18.637  0.00  0.00    +0.000 C 
ATOM      9  C   UNL     1       4.382   4.501  18.192  0.00  0.00    +0.000 C 
ATOM     10  S   UNL     1       5.589   5.430  19.059  0.00  0.00    +0.000 S 
ATOM     11  C   UNL     1       6.574   5.820  17.591  0.00  0.00    +0.000 C 
ATOM     12  C   UNL     1       6.638   4.570  16.736  0.00  0.00    +0.000 C 
ATOM     13  S   UNL     1       5.008   3.765  16.728  0.00  0.00    +0.000 S 
ENDROOT
TORSDOF 0
ENDMDL
MODEL 3
REMARK VINA RESULT:      -5.9      1.756      3.080
REMARK  Name = 
REMARK  0 active torsions:
REMARK  status: ('A' for Active; 'I' for Inactive)
REMARK                            x       y       z     vdW  Elec       q    Type
REMARK                         _______ _______ _______ _____ _____    ______ ____
ROOT
ATOM      1  O   UNL     1       4.997   2.806  19.738  0.00  0.00    +0.000 OA
ATOM      2  C   UNL     1       4.176   3.115  18.879  0.00  0.00    +0.000 C 
ATOM      3  C   UNL     1       3.231   2.095  18.289  0.00  0.00    +0.000 C 
ATOM      4  C   UNL     1       1.799   2.615  18.284  0.00  0.00    +0.000 C 
ATOM      5  C   UNL     1       1.687   3.957  17.571  0.00  0.00    +0.000 C 
ATOM      6  C   UNL     1       2.619   4.969  18.201  0.00  0.00    +0.000 C 
ATOM      7  O   UNL     1       2.223   6.076  18.551  0.00  0.00    +0.000 OA
ATOM      8  C   UNL     1       4.031   4.514  18.371  0.00  0.00    +0.000 C 
ATOM      9  C   UNL     1       5.086   5.250  17.966  0.00  0.00    +0.000 C 
ATOM     10  S   UNL     1       6.733   4.650  17.954  0.00  0.00    +0.000 S 
ATOM     11  C   UNL     1       7.498   6.286  18.074  0.00  0.00    +0.000 C 
ATOM     12  C   UNL     1       6.725   7.222  17.166  0.00  0.00    +0.000 C 
ATOM     13  S   UNL     1       4.947   6.877  17.325  0.00  0.00    +0.000 S 
ENDROOT
TORSDOF 0
ENDMDL
MODEL 4
REMARK VINA RESULT:      -5.9      1.954      4.621
REMARK  Name = 
REMARK  0 active torsions:
REMARK  status: ('A' for Active; 'I' for Inactive)
REMARK                            x       y       z     vdW  Elec       q    Type
REMARK                         _______ _______ _______ _____ _____    ______ ____
ROOT
ATOM      1  O   UNL     1       3.520   7.206  17.562  0.00  0.00    +0.000 OA
ATOM      2  C   UNL     1       4.472   6.441  17.436  0.00  0.00    +0.000 C 
ATOM      3  C   UNL     1       5.513   6.649  16.361  0.00  0.00    +0.000 C 
ATOM      4  C   UNL     1       6.920   6.553  16.938  0.00  0.00    +0.000 C 
ATOM      5  C   UNL     1       7.139   5.240  17.679  0.00  0.00    +0.000 C 
ATOM      6  C   UNL     1       6.104   5.070  18.770  0.00  0.00    +0.000 C 
ATOM      7  O   UNL     1       6.425   4.800  19.923  0.00  0.00    +0.000 OA
ATOM      8  C   UNL     1       4.688   5.269  18.339  0.00  0.00    +0.000 C 
ATOM      9  C   UNL     1       3.711   4.386  18.625  0.00  0.00    +0.000 C 
ATOM     10  S   UNL     1       2.095   4.483  17.952  0.00  0.00    +0.000 S 
ATOM     11  C   UNL     1       1.306   3.572  19.302  0.00  0.00    +0.000 C 
ATOM     12  C   UNL     1       2.213   2.414  19.667  0.00  0.00    +0.000 C 
ATOM     13  S   UNL     1       3.942   2.978  19.646  0.00  0.00    +0.000 S 
ENDROOT
TORSDOF 0
ENDMDL
MODEL 5
REMARK VINA RESULT:      -5.7      1.402      2.560
REMARK  Name = 
REMARK  0 active torsions:
REMARK  status: ('A' for Active; 'I' for Inactive)
REMARK                            x       y       z     vdW  Elec       q    Type
REMARK                         _______ _______ _______ _____ _____    ______ ____
ROOT
ATOM      1  O   UNL     1       4.761   2.607  19.931  0.00  0.00    +0.000 OA
ATOM      2  C   UNL     1       3.619   3.020  19.751  0.00  0.00    +0.000 C 
ATOM      3  C   UNL     1       2.417   2.128  19.957  0.00  0.00    +0.000 C 
ATOM      4  C   UNL     1       1.360   2.823  20.806  0.00  0.00    +0.000 C 
ATOM      5  C   UNL     1       0.960   4.171  20.219  0.00  0.00    +0.000 C 
ATOM      6  C   UNL     1       2.176   5.057  20.053  0.00  0.00    +0.000 C 
ATOM      7  O   UNL     1       2.200   6.203  20.489  0.00  0.00    +0.000 OA
ATOM      8  C   UNL     1       3.327   4.428  19.340  0.00  0.00    +0.000 C 
ATOM      9  C   UNL     1       3.961   5.028  18.312  0.00  0.00    +0.000 C 
ATOM     10  S   UNL     1       5.166   4.227  17.322  0.00  0.00    +0.000 S 
ATOM     11  C   UNL     1       5.995   5.754  16.815  0.00  0.00    +0.000 C 
ATOM     12  C   UNL     1       4.921   6.783  16.520  0.00  0.00    +0.000 C 
ATOM     13  S   UNL     1       3.613   6.662  17.777  0.00  0.00    +0.000 S 
ENDROOT
TORSDOF 0
ENDMDL
MODEL 6
REMARK VINA RESULT:      -5.4      2.283      2.842
REMARK  Name = 
REMARK  0 active torsions:
REMARK  status: ('A' for Active; 'I' for Inactive)
REMARK                            x       y       z     vdW  Elec       q    Type
REMARK                         _______ _______ _______ _____ _____    ______ ____
ROOT
ATOM      1  O   UNL     1       2.374   7.902  17.767  0.00  0.00    +0.000 OA
ATOM      2  C   UNL     1       2.501   7.012  18.603  0.00  0.00    +0.000 C 
ATOM      3  C   UNL     1       2.249   7.267  20.071  0.00  0.00    +0.000 C 
ATOM      4  C   UNL     1       1.349   6.191  20.666  0.00  0.00    +0.000 C 
ATOM      5  C   UNL     1       1.908   4.794  20.432  0.00  0.00    +0.000 C 
ATOM      6  C   UNL     1       2.122   4.551  18.954  0.00  0.00    +0.000 C 
ATOM      7  O   UNL     1       1.680   3.552  18.396  0.00  0.00    +0.000 OA
ATOM      8  C   UNL     1       2.889   5.615  18.239  0.00  0.00    +0.000 C 
ATOM      9  C   UNL     1       3.940   5.340  17.440  0.00  0.00    +0.000 C 
ATOM     10  S   UNL     1       4.988   6.573  16.766  0.00  0.00    +0.000 S 
ATOM     11  C   UNL     1       5.521   5.575  15.353  0.00  0.00    +0.000 C 
ATOM     12  C   UNL     1       5.761   4.165  15.853  0.00  0.00    +0.000 C 
ATOM     13  S   UNL     1       4.448   3.712  17.027  0.00  0.00    +0.000 S 
ENDROOT
TORSDOF 0
ENDMDL
MODEL 7
REMARK VINA RESULT:      -5.4      1.734      2.251
REMARK  Name = 
REMARK  0 active torsions:
REMARK  status: ('A' for Active; 'I' for Inactive)
REMARK                            x       y       z     vdW  Elec       q    Type
REMARK                         _______ _______ _______ _____ _____    ______ ____
ROOT
ATOM      1  O   UNL     1       3.734   1.620  18.248  0.00  0.00    +0.000 OA
ATOM      2  C   UNL     1       2.880   2.471  18.481  0.00  0.00    +0.000 C 
ATOM      3  C   UNL     1       1.429   2.099  18.679  0.00  0.00    +0.000 C 
ATOM      4  C   UNL     1       0.861   2.763  19.927  0.00  0.00    +0.000 C 
ATOM      5  C   UNL     1       1.050   4.275  19.899  0.00  0.00    +0.000 C 
ATOM      6  C   UNL     1       2.513   4.622  19.732  0.00  0.00    +0.000 C 
ATOM      7  O   UNL     1       3.076   5.412  20.483  0.00  0.00    +0.000 OA
ATOM      8  C   UNL     1       3.207   3.925  18.608  0.00  0.00    +0.000 C 
ATOM      9  C   UNL     1       3.954   4.581  17.697  0.00  0.00    +0.000 C 
ATOM     10  S   UNL     1       4.596   3.826  16.251  0.00  0.00    +0.000 S 
ATOM     11  C   UNL     1       5.969   4.990  16.060  0.00  0.00    +0.000 C 
ATOM     12  C   UNL     1       5.439   6.378  16.362  0.00  0.00    +0.000 C 
ATOM     13  S   UNL     1       4.320   6.294  17.792  0.00  0.00    +0.000 S 
ENDROOT
TORSDOF 0
ENDMDL
MODEL 8
REMARK VINA RESULT:      -5.4      2.410      5.176
REMARK  Name = 
REMARK  0 active torsions:
REMARK  status: ('A' for Active; 'I' for Inactive)
REMARK                            x       y       z     vdW  Elec       q    Type
REMARK                         _______ _______ _______ _____ _____    ______ ____
ROOT
ATOM      1  O   UNL     1       5.591   3.329  15.762  0.00  0.00    +0.000 OA
ATOM      2  C   UNL     1       5.796   4.232  16.568  0.00  0.00    +0.000 C 
ATOM      3  C   UNL     1       7.197   4.701  16.888  0.00  0.00    +0.000 C 
ATOM      4  C   UNL     1       7.291   6.220  16.825  0.00  0.00    +0.000 C 
ATOM      5  C   UNL     1       6.261   6.889  17.726  0.00  0.00    +0.000 C 
ATOM      6  C   UNL     1       4.866   6.428  17.365  0.00  0.00    +0.000 C 
ATOM      7  O   UNL     1       3.959   7.227  17.155  0.00  0.00    +0.000 OA
ATOM      8  C   UNL     1       4.689   4.948  17.274  0.00  0.00    +0.000 C 
ATOM      9  C   UNL     1       3.688   4.295  17.899  0.00  0.00    +0.000 C 
ATOM     10  S   UNL     1       3.583   2.548  17.988  0.00  0.00    +0.000 S 
ATOM     11  C   UNL     1       1.787   2.508  18.210  0.00  0.00    +0.000 C 
ATOM     12  C   UNL     1       1.418   3.623  19.168  0.00  0.00    +0.000 C 
ATOM     13  S   UNL     1       2.398   5.103  18.771  0.00  0.00    +0.000 S 
ENDROOT
TORSDOF 0
ENDMDL
MODEL 9
REMARK VINA RESULT:      -5.4      2.182      5.137
REMARK  Name = 
REMARK  0 active torsions:
REMARK  status: ('A' for Active; 'I' for Inactive)
REMARK                            x       y       z     vdW  Elec       q    Type
REMARK                         _______ _______ _______ _____ _____    ______ ____
ROOT
ATOM      1  O   UNL     1       6.377   5.128  19.770  0.00  0.00    +0.000 OA
ATOM      2  C   UNL     1       6.101   5.392  18.603  0.00  0.00    +0.000 C 
ATOM      3  C   UNL     1       6.764   6.537  17.875  0.00  0.00    +0.000 C 
ATOM      4  C   UNL     1       7.269   6.096  16.508  0.00  0.00    +0.000 C 
ATOM      5  C   UNL     1       6.161   5.471  15.670  0.00  0.00    +0.000 C 
ATOM      6  C   UNL     1       5.535   4.307  16.406  0.00  0.00    +0.000 C 
ATOM      7  O   UNL     1       5.400   3.209  15.876  0.00  0.00    +0.000 OA
ATOM      8  C   UNL     1       5.114   4.596  17.810  0.00  0.00    +0.000 C 
ATOM      9  C   UNL     1       3.889   4.287  18.279  0.00  0.00    +0.000 C 
ATOM     10  S   UNL     1       3.296   4.806  19.845  0.00  0.00    +0.000 S 
ATOM     11  C   UNL     1       2.100   3.458  20.017  0.00  0.00    +0.000 C 
ATOM     12  C   UNL     1       1.438   3.258  18.669  0.00  0.00    +0.000 C 
ATOM     13  S   UNL     1       2.693   3.392  17.359  0.00  0.00    +0.000 S 
ENDROOT
TORSDOF 0
ENDMDL
