MODEL 1
REMARK VINA RESULT:      -9.0      0.000      0.000
REMARK  Name = 
REMARK  9 active torsions:
REMARK  status: ('A' for Active; 'I' for Inactive)
REMARK    1  A    between atoms: C_1  and  N_2
REMARK    2  A    between atoms: N_2  and  C_3
REMARK    3  A    between atoms: N_2  and  S_26
REMARK    4  A    between atoms: N_6  and  C_7
REMARK    5  A    between atoms: C_7  and  C_8
REMARK    6  A    between atoms: C_8  and  C_9
REMARK    7  A    between atoms: C_9  and  C_10
REMARK    8  A    between atoms: C_16  and  N_17
REMARK    9  A    between atoms: S_26  and  C_29
REMARK                            x       y       z     vdW  Elec       q    Type
REMARK                         _______ _______ _______ _____ _____    ______ ____
ROOT
ATOM      1  C   UNL     1       7.791   8.980  17.899  0.00  0.00    +0.000 C 
ENDROOT
BRANCH   1   5
ATOM      2  C   UNL     1       6.364   4.902  17.436  0.00  0.00    +0.000 C 
ATOM      3  C   UNL     1       7.721   5.154  18.120  0.00  0.00    +0.000 C 
ATOM      4  C   UNL     1       7.946   6.615  18.535  0.00  0.00    +0.000 C 
ATOM      5  N   UNL     1       7.663   7.578  17.456  0.00  0.00    +0.000 NA
ATOM      6  C   UNL     1       6.320   7.349  16.901  0.00  0.00    +0.000 C 
ATOM      7  C   UNL     1       6.263   5.940  16.316  0.00  0.00    +0.000 C 
BRANCH   2   9
ATOM      8  C   UNL     1       5.294   3.912  19.477  0.00  0.00    +0.000 C 
ATOM      9  N   UNL     1       5.177   4.950  18.406  0.00  0.00    +0.000 NA
BRANCH   9  10
ATOM     10  S   UNL     1       3.617   4.864  17.611  0.00  0.00    +0.000 S 
ATOM     11  O   UNL     1       3.099   6.200  17.409  0.00  0.00    +0.000 OA
ATOM     12  O   UNL     1       3.762   3.936  16.507  0.00  0.00    +0.000 OA
BRANCH  10  13
ATOM     13  C   UNL     1       2.570   4.126  18.834  0.00  0.00    +0.000 A 
ATOM     14  C   UNL     1       2.133   4.913  19.903  0.00  0.00    +0.000 A 
ATOM     15  C   UNL     1       1.391   4.323  20.921  0.00  0.00    +0.000 A 
ATOM     16  C   UNL     1       1.079   2.963  20.859  0.00  0.00    +0.000 A 
ATOM     17  C   UNL     1       1.485   2.194  19.764  0.00  0.00    +0.000 A 
ATOM     18  C   UNL     1       2.230   2.775  18.743  0.00  0.00    +0.000 A 
ENDBRANCH  10  13
ENDBRANCH   9  10
ENDBRANCH   2   9
ENDBRANCH   1   5
BRANCH   1  19
ATOM     19  C   UNL     1       9.027   9.192  18.776  0.00  0.00    +0.000 C 
BRANCH  19  20
ATOM     20  C   UNL     1       9.127  10.630  19.297  0.00  0.00    +0.000 C 
BRANCH  20  21
ATOM     21  C   UNL     1      10.150  11.430  18.553  0.00  0.00    +0.000 A 
ATOM     22  C   UNL     1      11.345  10.959  18.033  0.00  0.00    +0.000 A 
ATOM     23  N   UNL     1      12.001  12.004  17.443  0.00  0.00    +0.000 N 
ATOM     24  C   UNL     1      11.259  13.158  17.554  0.00  0.00    +0.000 A 
ATOM     25  C   UNL     1      11.533  14.458  17.108  0.00  0.00    +0.000 A 
ATOM     26  C   UNL     1      10.583  15.454  17.377  0.00  0.00    +0.000 A 
ATOM     27  C   UNL     1       9.399  15.165  18.069  0.00  0.00    +0.000 A 
ATOM     28  C   UNL     1       9.151  13.851  18.495  0.00  0.00    +0.000 A 
ATOM     29  C   UNL     1      10.094  12.829  18.239  0.00  0.00    +0.000 A 
ATOM     30  H   UNL     1      12.905  11.946  16.990  0.00  0.00    +0.000 HD
BRANCH  27  31
ATOM     31  N   UNL     1       8.455  16.189  18.351  0.00  0.00    +0.000 N 
ATOM     32  C   UNL     1       8.692  17.517  18.609  0.00  0.00    +0.000 A 
ATOM     33  N   UNL     1       7.564  18.157  18.823  0.00  0.00    +0.000 NA
ATOM     34  N   UNL     1       6.547  17.247  18.710  0.00  0.00    +0.000 NA
ATOM     35  C   UNL     1       7.087  16.084  18.430  0.00  0.00    +0.000 A 
ENDBRANCH  27  31
ENDBRANCH  20  21
ENDBRANCH  19  20
ENDBRANCH   1  19
TORSDOF 8
ENDMDL
MODEL 2
REMARK VINA RESULT:      -8.5      0.650      1.112
REMARK  Name = 
REMARK  9 active torsions:
REMARK  status: ('A' for Active; 'I' for Inactive)
REMARK    1  A    between atoms: C_1  and  N_2
REMARK    2  A    between atoms: N_2  and  C_3
REMARK    3  A    between atoms: N_2  and  S_26
REMARK    4  A    between atoms: N_6  and  C_7
REMARK    5  A    between atoms: C_7  and  C_8
REMARK    6  A    between atoms: C_8  and  C_9
REMARK    7  A    between atoms: C_9  and  C_10
REMARK    8  A    between atoms: C_16  and  N_17
REMARK    9  A    between atoms: S_26  and  C_29
REMARK                            x       y       z     vdW  Elec       q    Type
REMARK                         _______ _______ _______ _____ _____    ______ ____
ROOT
ATOM      1  C   UNL     1       7.885   9.087  17.821  0.00  0.00    +0.000 C 
ENDROOT
BRANCH   1   5
ATOM      2  C   UNL     1       6.378   5.031  17.423  0.00  0.00    +0.000 C 
ATOM      3  C   UNL     1       7.743   5.266  18.096  0.00  0.00    +0.000 C 
ATOM      4  C   UNL     1       7.998   6.729  18.489  0.00  0.00    +0.000 C 
ATOM      5  N   UNL     1       7.728   7.682  17.399  0.00  0.00    +0.000 NA
ATOM      6  C   UNL     1       6.377   7.471  16.854  0.00  0.00    +0.000 C 
ATOM      7  C   UNL     1       6.291   6.055  16.289  0.00  0.00    +0.000 C 
BRANCH   2   9
ATOM      8  C   UNL     1       5.350   4.160  19.538  0.00  0.00    +0.000 C 
ATOM      9  N   UNL     1       5.197   5.116  18.398  0.00  0.00    +0.000 NA
BRANCH   9  10
ATOM     10  S   UNL     1       3.634   4.933  17.626  0.00  0.00    +0.000 S 
ATOM     11  O   UNL     1       3.040   6.235  17.414  0.00  0.00    +0.000 OA
ATOM     12  O   UNL     1       3.816   3.999  16.532  0.00  0.00    +0.000 OA
BRANCH  10  13
ATOM     13  C   UNL     1       2.646   4.154  18.873  0.00  0.00    +0.000 A 
ATOM     14  C   UNL     1       2.380   2.787  18.757  0.00  0.00    +0.000 A 
ATOM     15  C   UNL     1       1.526   2.183  19.675  0.00  0.00    +0.000 A 
ATOM     16  C   UNL     1       0.960   2.939  20.704  0.00  0.00    +0.000 A 
ATOM     17  C   UNL     1       1.266   4.296  20.835  0.00  0.00    +0.000 A 
ATOM     18  C   UNL     1       2.117   4.910  19.921  0.00  0.00    +0.000 A 
ENDBRANCH  10  13
ENDBRANCH   9  10
ENDBRANCH   2   9
ENDBRANCH   1   5
BRANCH   1  19
ATOM     19  C   UNL     1       9.019   9.256  18.835  0.00  0.00    +0.000 C 
BRANCH  19  20
ATOM     20  C   UNL     1       9.084  10.680  19.399  0.00  0.00    +0.000 C 
BRANCH  20  21
ATOM     21  C   UNL     1       9.910  11.588  18.543  0.00  0.00    +0.000 A 
ATOM     22  C   UNL     1      10.977  11.218  17.740  0.00  0.00    +0.000 A 
ATOM     23  N   UNL     1      11.473  12.340  17.135  0.00  0.00    +0.000 N 
ATOM     24  C   UNL     1      10.749  13.447  17.516  0.00  0.00    +0.000 A 
ATOM     25  C   UNL     1      10.897  14.793  17.158  0.00  0.00    +0.000 A 
ATOM     26  C   UNL     1      10.006  15.720  17.718  0.00  0.00    +0.000 A 
ATOM     27  C   UNL     1       9.001  15.319  18.609  0.00  0.00    +0.000 A 
ATOM     28  C   UNL     1       8.875  13.961  18.941  0.00  0.00    +0.000 A 
ATOM     29  C   UNL     1       9.762  13.007  18.392  0.00  0.00    +0.000 A 
ATOM     30  H   UNL     1      12.261  12.361  16.501  0.00  0.00    +0.000 HD
BRANCH  27  31
ATOM     31  N   UNL     1       8.118  16.272  19.185  0.00  0.00    +0.000 N 
ATOM     32  C   UNL     1       7.551  16.260  20.435  0.00  0.00    +0.000 A 
ATOM     33  N   UNL     1       6.789  17.317  20.609  0.00  0.00    +0.000 NA
ATOM     34  N   UNL     1       6.839  18.055  19.457  0.00  0.00    +0.000 NA
ATOM     35  C   UNL     1       7.631  17.427  18.619  0.00  0.00    +0.000 A 
ENDBRANCH  27  31
ENDBRANCH  20  21
ENDBRANCH  19  20
ENDBRANCH   1  19
TORSDOF 8
ENDMDL
MODEL 3
REMARK VINA RESULT:      -8.2      0.879      1.222
REMARK  Name = 
REMARK  9 active torsions:
REMARK  status: ('A' for Active; 'I' for Inactive)
REMARK    1  A    between atoms: C_1  and  N_2
REMARK    2  A    between atoms: N_2  and  C_3
REMARK    3  A    between atoms: N_2  and  S_26
REMARK    4  A    between atoms: N_6  and  C_7
REMARK    5  A    between atoms: C_7  and  C_8
REMARK    6  A    between atoms: C_8  and  C_9
REMARK    7  A    between atoms: C_9  and  C_10
REMARK    8  A    between atoms: C_16  and  N_17
REMARK    9  A    between atoms: S_26  and  C_29
REMARK                            x       y       z     vdW  Elec       q    Type
REMARK                         _______ _______ _______ _____ _____    ______ ____
ROOT
ATOM      1  C   UNL     1       7.405   8.811  17.801  0.00  0.00    +0.000 C 
ENDROOT
BRANCH   1   5
ATOM      2  C   UNL     1       6.089   4.745  17.012  0.00  0.00    +0.000 C 
ATOM      3  C   UNL     1       7.491   4.984  17.603  0.00  0.00    +0.000 C 
ATOM      4  C   UNL     1       7.701   6.401  18.156  0.00  0.00    +0.000 C 
ATOM      5  N   UNL     1       7.289   7.461  17.218  0.00  0.00    +0.000 NA
ATOM      6  C   UNL     1       5.910   7.232  16.757  0.00  0.00    +0.000 C 
ATOM      7  C   UNL     1       5.852   5.892  16.026  0.00  0.00    +0.000 C 
BRANCH   2   9
ATOM      8  C   UNL     1       5.566   4.455  19.448  0.00  0.00    +0.000 C 
ATOM      9  N   UNL     1       4.992   4.637  18.079  0.00  0.00    +0.000 NA
BRANCH   9  10
ATOM     10  S   UNL     1       3.792   3.407  17.729  0.00  0.00    +0.000 S 
ATOM     11  O   UNL     1       2.939   3.852  16.648  0.00  0.00    +0.000 OA
ATOM     12  O   UNL     1       4.498   2.143  17.663  0.00  0.00    +0.000 OA
BRANCH  10  13
ATOM     13  C   UNL     1       2.768   3.406  19.175  0.00  0.00    +0.000 A 
ATOM     14  C   UNL     1       2.764   2.270  19.989  0.00  0.00    +0.000 A 
ATOM     15  C   UNL     1       1.894   2.216  21.073  0.00  0.00    +0.000 A 
ATOM     16  C   UNL     1       1.050   3.296  21.345  0.00  0.00    +0.000 A 
ATOM     17  C   UNL     1       1.093   4.444  20.549  0.00  0.00    +0.000 A 
ATOM     18  C   UNL     1       1.958   4.506  19.461  0.00  0.00    +0.000 A 
ENDBRANCH  10  13
ENDBRANCH   9  10
ENDBRANCH   2   9
ENDBRANCH   1   5
BRANCH   1  19
ATOM     19  C   UNL     1       8.819   9.379  17.649  0.00  0.00    +0.000 C 
BRANCH  19  20
ATOM     20  C   UNL     1       9.142  10.421  18.725  0.00  0.00    +0.000 C 
BRANCH  20  21
ATOM     21  C   UNL     1      10.065  11.485  18.220  0.00  0.00    +0.000 A 
ATOM     22  C   UNL     1      11.376  11.310  17.807  0.00  0.00    +0.000 A 
ATOM     23  N   UNL     1      11.879  12.526  17.435  0.00  0.00    +0.000 N 
ATOM     24  C   UNL     1      10.923  13.505  17.586  0.00  0.00    +0.000 A 
ATOM     25  C   UNL     1      10.988  14.882  17.337  0.00  0.00    +0.000 A 
ATOM     26  C   UNL     1       9.842  15.647  17.597  0.00  0.00    +0.000 A 
ATOM     27  C   UNL     1       8.669  15.061  18.091  0.00  0.00    +0.000 A 
ATOM     28  C   UNL     1       8.634  13.677  18.322  0.00  0.00    +0.000 A 
ATOM     29  C   UNL     1       9.776  12.883  18.070  0.00  0.00    +0.000 A 
ATOM     30  H   UNL     1      12.820  12.692  17.100  0.00  0.00    +0.000 HD
BRANCH  27  31
ATOM     31  N   UNL     1       7.522  15.853  18.368  0.00  0.00    +0.000 N 
ATOM     32  C   UNL     1       7.465  17.192  18.666  0.00  0.00    +0.000 A 
ATOM     33  N   UNL     1       6.222  17.572  18.859  0.00  0.00    +0.000 NA
ATOM     34  N   UNL     1       5.424  16.472  18.692  0.00  0.00    +0.000 NA
ATOM     35  C   UNL     1       6.206  15.458  18.400  0.00  0.00    +0.000 A 
ENDBRANCH  27  31
ENDBRANCH  20  21
ENDBRANCH  19  20
ENDBRANCH   1  19
TORSDOF 8
ENDMDL
MODEL 4
REMARK VINA RESULT:      -8.2      6.967     10.993
REMARK  Name = 
REMARK  9 active torsions:
REMARK  status: ('A' for Active; 'I' for Inactive)
REMARK    1  A    between atoms: C_1  and  N_2
REMARK    2  A    between atoms: N_2  and  C_3
REMARK    3  A    between atoms: N_2  and  S_26
REMARK    4  A    between atoms: N_6  and  C_7
REMARK    5  A    between atoms: C_7  and  C_8
REMARK    6  A    between atoms: C_8  and  C_9
REMARK    7  A    between atoms: C_9  and  C_10
REMARK    8  A    between atoms: C_16  and  N_17
REMARK    9  A    between atoms: S_26  and  C_29
REMARK                            x       y       z     vdW  Elec       q    Type
REMARK                         _______ _______ _______ _____ _____    ______ ____
ROOT
ATOM      1  C   UNL     1       1.147   9.906  17.920  0.00  0.00    +0.000 C 
ENDROOT
BRANCH   1   5
ATOM      2  C   UNL     1      -0.840  11.991  21.174  0.00  0.00    +0.000 C 
ATOM      3  C   UNL     1       0.640  12.294  20.876  0.00  0.00    +0.000 C 
ATOM      4  C   UNL     1       1.119  11.772  19.514  0.00  0.00    +0.000 C 
ATOM      5  N   UNL     1       0.765  10.363  19.270  0.00  0.00    +0.000 NA
ATOM      6  C   UNL     1      -0.676  10.151  19.482  0.00  0.00    +0.000 C 
ATOM      7  C   UNL     1      -1.016  10.490  20.931  0.00  0.00    +0.000 C 
BRANCH   2   9
ATOM      8  C   UNL     1      -1.213  14.169  19.987  0.00  0.00    +0.000 C 
ATOM      9  N   UNL     1      -1.812  12.848  20.353  0.00  0.00    +0.000 NA
BRANCH   9  10
ATOM     10  S   UNL     1      -3.379  13.054  21.112  0.00  0.00    +0.000 S 
ATOM     11  O   UNL     1      -3.461  12.223  22.293  0.00  0.00    +0.000 OA
ATOM     12  O   UNL     1      -3.629  14.480  21.173  0.00  0.00    +0.000 OA
BRANCH  10  13
ATOM     13  C   UNL     1      -4.501  12.335  19.944  0.00  0.00    +0.000 A 
ATOM     14  C   UNL     1      -5.857  12.270  20.274  0.00  0.00    +0.000 A 
ATOM     15  C   UNL     1      -6.735  11.622  19.410  0.00  0.00    +0.000 A 
ATOM     16  C   UNL     1      -6.258  11.060  18.223  0.00  0.00    +0.000 A 
ATOM     17  C   UNL     1      -4.906  11.168  17.883  0.00  0.00    +0.000 A 
ATOM     18  C   UNL     1      -4.021  11.812  18.742  0.00  0.00    +0.000 A 
ENDBRANCH  10  13
ENDBRANCH   9  10
ENDBRANCH   2   9
ENDBRANCH   1   5
BRANCH   1  19
ATOM     19  C   UNL     1       1.689   8.475  17.933  0.00  0.00    +0.000 C 
BRANCH  19  20
ATOM     20  C   UNL     1       2.317   8.106  19.282  0.00  0.00    +0.000 C 
BRANCH  20  21
ATOM     21  C   UNL     1       2.380   6.625  19.488  0.00  0.00    +0.000 A 
ATOM     22  C   UNL     1       1.680   5.895  20.434  0.00  0.00    +0.000 A 
ATOM     23  N   UNL     1       2.027   4.578  20.308  0.00  0.00    +0.000 N 
ATOM     24  C   UNL     1       2.939   4.420  19.289  0.00  0.00    +0.000 A 
ATOM     25  C   UNL     1       3.570   3.265  18.809  0.00  0.00    +0.000 A 
ATOM     26  C   UNL     1       4.476   3.409  17.749  0.00  0.00    +0.000 A 
ATOM     27  C   UNL     1       4.747   4.664  17.185  0.00  0.00    +0.000 A 
ATOM     28  C   UNL     1       4.092   5.800  17.684  0.00  0.00    +0.000 A 
ATOM     29  C   UNL     1       3.175   5.682  18.754  0.00  0.00    +0.000 A 
ATOM     30  H   UNL     1       1.671   3.823  20.880  0.00  0.00    +0.000 HD
BRANCH  27  31
ATOM     31  N   UNL     1       5.683   4.796  16.125  0.00  0.00    +0.000 N 
ATOM     32  C   UNL     1       6.892   5.448  16.133  0.00  0.00    +0.000 A 
ATOM     33  N   UNL     1       7.480   5.352  14.961  0.00  0.00    +0.000 NA
ATOM     34  N   UNL     1       6.654   4.626  14.145  0.00  0.00    +0.000 NA
ATOM     35  C   UNL     1       5.592   4.301  14.846  0.00  0.00    +0.000 A 
ENDBRANCH  27  31
ENDBRANCH  20  21
ENDBRANCH  19  20
ENDBRANCH   1  19
TORSDOF 8
ENDMDL
MODEL 5
REMARK VINA RESULT:      -8.2      1.724      2.326
REMARK  Name = 
REMARK  9 active torsions:
REMARK  status: ('A' for Active; 'I' for Inactive)
REMARK    1  A    between atoms: C_1  and  N_2
REMARK    2  A    between atoms: N_2  and  C_3
REMARK    3  A    between atoms: N_2  and  S_26
REMARK    4  A    between atoms: N_6  and  C_7
REMARK    5  A    between atoms: C_7  and  C_8
REMARK    6  A    between atoms: C_8  and  C_9
REMARK    7  A    between atoms: C_9  and  C_10
REMARK    8  A    between atoms: C_16  and  N_17
REMARK    9  A    between atoms: S_26  and  C_29
REMARK                            x       y       z     vdW  Elec       q    Type
REMARK                         _______ _______ _______ _____ _____    ______ ____
ROOT
ATOM      1  C   UNL     1       8.353   7.907  18.541  0.00  0.00    +0.000 C 
ENDROOT
BRANCH   1   5
ATOM      2  C   UNL     1       5.324   5.041  17.318  0.00  0.00    +0.000 C 
ATOM      3  C   UNL     1       6.798   4.599  17.389  0.00  0.00    +0.000 C 
ATOM      4  C   UNL     1       7.703   5.572  18.157  0.00  0.00    +0.000 C 
ATOM      5  N   UNL     1       7.549   6.974  17.729  0.00  0.00    +0.000 NA
ATOM      6  C   UNL     1       6.132   7.370  17.767  0.00  0.00    +0.000 C 
ATOM      7  C   UNL     1       5.347   6.483  16.804  0.00  0.00    +0.000 C 
BRANCH   2   9
ATOM      8  C   UNL     1       5.068   3.712  19.429  0.00  0.00    +0.000 C 
ATOM      9  N   UNL     1       4.581   4.893  18.652  0.00  0.00    +0.000 NA
BRANCH   9  10
ATOM     10  S   UNL     1       2.836   4.862  18.482  0.00  0.00    +0.000 S 
ATOM     11  O   UNL     1       2.485   4.660  17.093  0.00  0.00    +0.000 OA
ATOM     12  O   UNL     1       2.332   3.989  19.523  0.00  0.00    +0.000 OA
BRANCH  10  13
ATOM     13  C   UNL     1       2.355   6.525  18.860  0.00  0.00    +0.000 A 
ATOM     14  C   UNL     1       2.040   6.845  20.183  0.00  0.00    +0.000 A 
ATOM     15  C   UNL     1       1.569   8.120  20.478  0.00  0.00    +0.000 A 
ATOM     16  C   UNL     1       1.429   9.066  19.459  0.00  0.00    +0.000 A 
ATOM     17  C   UNL     1       1.787   8.747  18.146  0.00  0.00    +0.000 A 
ATOM     18  C   UNL     1       2.257   7.474  17.841  0.00  0.00    +0.000 A 
ENDBRANCH  10  13
ENDBRANCH   9  10
ENDBRANCH   2   9
ENDBRANCH   1   5
BRANCH   1  19
ATOM     19  C   UNL     1       8.317   9.330  17.978  0.00  0.00    +0.000 C 
BRANCH  19  20
ATOM     20  C   UNL     1       8.853  10.361  18.978  0.00  0.00    +0.000 C 
BRANCH  20  21
ATOM     21  C   UNL     1       9.720  11.388  18.320  0.00  0.00    +0.000 A 
ATOM     22  C   UNL     1      10.899  11.150  17.630  0.00  0.00    +0.000 A 
ATOM     23  N   UNL     1      11.395  12.349  17.196  0.00  0.00    +0.000 N 
ATOM     24  C   UNL     1      10.563  13.377  17.579  0.00  0.00    +0.000 A 
ATOM     25  C   UNL     1      10.671  14.757  17.364  0.00  0.00    +0.000 A 
ATOM     26  C   UNL     1       9.662  15.579  17.887  0.00  0.00    +0.000 A 
ATOM     27  C   UNL     1       8.582  15.045  18.603  0.00  0.00    +0.000 A 
ATOM     28  C   UNL     1       8.500  13.657  18.793  0.00  0.00    +0.000 A 
ATOM     29  C   UNL     1       9.505  12.806  18.278  0.00  0.00    +0.000 A 
ATOM     30  H   UNL     1      12.252  12.471  16.672  0.00  0.00    +0.000 HD
BRANCH  27  31
ATOM     31  N   UNL     1       7.579  15.894  19.143  0.00  0.00    +0.000 N 
ATOM     32  C   UNL     1       6.788  15.680  20.245  0.00  0.00    +0.000 A 
ATOM     33  N   UNL     1       5.975  16.696  20.437  0.00  0.00    +0.000 NA
ATOM     34  N   UNL     1       6.218  17.610  19.447  0.00  0.00    +0.000 NA
ATOM     35  C   UNL     1       7.171  17.124  18.686  0.00  0.00    +0.000 A 
ENDBRANCH  27  31
ENDBRANCH  20  21
ENDBRANCH  19  20
ENDBRANCH   1  19
TORSDOF 8
ENDMDL
MODEL 6
REMARK VINA RESULT:      -8.1      1.076      1.347
REMARK  Name = 
REMARK  9 active torsions:
REMARK  status: ('A' for Active; 'I' for Inactive)
REMARK    1  A    between atoms: C_1  and  N_2
REMARK    2  A    between atoms: N_2  and  C_3
REMARK    3  A    between atoms: N_2  and  S_26
REMARK    4  A    between atoms: N_6  and  C_7
REMARK    5  A    between atoms: C_7  and  C_8
REMARK    6  A    between atoms: C_8  and  C_9
REMARK    7  A    between atoms: C_9  and  C_10
REMARK    8  A    between atoms: C_16  and  N_17
REMARK    9  A    between atoms: S_26  and  C_29
REMARK                            x       y       z     vdW  Elec       q    Type
REMARK                         _______ _______ _______ _____ _____    ______ ____
ROOT
ATOM      1  C   UNL     1       8.522   8.107  17.885  0.00  0.00    +0.000 C 
ENDROOT
BRANCH   1   5
ATOM      2  C   UNL     1       4.902   5.751  17.405  0.00  0.00    +0.000 C 
ATOM      3  C   UNL     1       6.272   5.051  17.339  0.00  0.00    +0.000 C 
ATOM      4  C   UNL     1       7.434   5.907  17.865  0.00  0.00    +0.000 C 
ATOM      5  N   UNL     1       7.460   7.267  17.298  0.00  0.00    +0.000 NA
ATOM      6  C   UNL     1       6.153   7.921  17.469  0.00  0.00    +0.000 C 
ATOM      7  C   UNL     1       5.095   7.109  16.726  0.00  0.00    +0.000 C 
BRANCH   2   9
ATOM      8  C   UNL     1       4.674   4.661  19.652  0.00  0.00    +0.000 C 
ATOM      9  N   UNL     1       4.348   5.868  18.830  0.00  0.00    +0.000 NA
BRANCH   9  10
ATOM     10  S   UNL     1       2.634   6.228  18.889  0.00  0.00    +0.000 S 
ATOM     11  O   UNL     1       2.343   7.024  20.063  0.00  0.00    +0.000 OA
ATOM     12  O   UNL     1       2.254   6.672  17.563  0.00  0.00    +0.000 OA
BRANCH  10  13
ATOM     13  C   UNL     1       1.890   4.648  19.189  0.00  0.00    +0.000 A 
ATOM     14  C   UNL     1       1.468   4.343  20.486  0.00  0.00    +0.000 A 
ATOM     15  C   UNL     1       0.972   3.073  20.757  0.00  0.00    +0.000 A 
ATOM     16  C   UNL     1       0.885   2.125  19.734  0.00  0.00    +0.000 A 
ATOM     17  C   UNL     1       1.269   2.454  18.431  0.00  0.00    +0.000 A 
ATOM     18  C   UNL     1       1.770   3.722  18.151  0.00  0.00    +0.000 A 
ENDBRANCH  10  13
ENDBRANCH   9  10
ENDBRANCH   2   9
ENDBRANCH   1   5
BRANCH   1  19
ATOM     19  C   UNL     1       8.160   9.593  17.848  0.00  0.00    +0.000 C 
BRANCH  19  20
ATOM     20  C   UNL     1       8.908  10.397  18.918  0.00  0.00    +0.000 C 
BRANCH  20  21
ATOM     21  C   UNL     1       9.829  11.413  18.318  0.00  0.00    +0.000 A 
ATOM     22  C   UNL     1      11.110  11.184  17.841  0.00  0.00    +0.000 A 
ATOM     23  N   UNL     1      11.622  12.370  17.392  0.00  0.00    +0.000 N 
ATOM     24  C   UNL     1      10.702  13.380  17.555  0.00  0.00    +0.000 A 
ATOM     25  C   UNL     1      10.790  14.744  17.245  0.00  0.00    +0.000 A 
ATOM     26  C   UNL     1       9.680  15.551  17.536  0.00  0.00    +0.000 A 
ATOM     27  C   UNL     1       8.522  15.019  18.118  0.00  0.00    +0.000 A 
ATOM     28  C   UNL     1       8.463  13.647  18.408  0.00  0.00    +0.000 A 
ATOM     29  C   UNL     1       9.569  12.811  18.127  0.00  0.00    +0.000 A 
ATOM     30  H   UNL     1      12.547  12.495  16.998  0.00  0.00    +0.000 HD
BRANCH  27  31
ATOM     31  N   UNL     1       7.414  15.854  18.425  0.00  0.00    +0.000 N 
ATOM     32  C   UNL     1       7.415  17.196  18.717  0.00  0.00    +0.000 A 
ATOM     33  N   UNL     1       6.193  17.622  18.945  0.00  0.00    +0.000 NA
ATOM     34  N   UNL     1       5.351  16.552  18.808  0.00  0.00    +0.000 NA
ATOM     35  C   UNL     1       6.086  15.508  18.499  0.00  0.00    +0.000 A 
ENDBRANCH  27  31
ENDBRANCH  20  21
ENDBRANCH  19  20
ENDBRANCH   1  19
TORSDOF 8
ENDMDL
MODEL 7
REMARK VINA RESULT:      -8.1      6.547      8.661
REMARK  Name = 
REMARK  9 active torsions:
REMARK  status: ('A' for Active; 'I' for Inactive)
REMARK    1  A    between atoms: C_1  and  N_2
REMARK    2  A    between atoms: N_2  and  C_3
REMARK    3  A    between atoms: N_2  and  S_26
REMARK    4  A    between atoms: N_6  and  C_7
REMARK    5  A    between atoms: C_7  and  C_8
REMARK    6  A    between atoms: C_8  and  C_9
REMARK    7  A    between atoms: C_9  and  C_10
REMARK    8  A    between atoms: C_16  and  N_17
REMARK    9  A    between atoms: S_26  and  C_29
REMARK                            x       y       z     vdW  Elec       q    Type
REMARK                         _______ _______ _______ _____ _____    ______ ____
ROOT
ATOM      1  C   UNL     1       1.714   5.814  20.134  0.00  0.00    +0.000 C 
ENDROOT
BRANCH   1   5
ATOM      2  C   UNL     1       4.833   4.317  17.505  0.00  0.00    +0.000 C 
ATOM      3  C   UNL     1       3.361   4.210  17.067  0.00  0.00    +0.000 C 
ATOM      4  C   UNL     1       2.400   5.073  17.898  0.00  0.00    +0.000 C 
ATOM      5  N   UNL     1       2.576   4.908  19.352  0.00  0.00    +0.000 NA
ATOM      6  C   UNL     1       3.985   5.111  19.725  0.00  0.00    +0.000 C 
ATOM      7  C   UNL     1       4.837   4.063  19.015  0.00  0.00    +0.000 C 
BRANCH   2   9
ATOM      8  C   UNL     1       4.662   6.403  16.124  0.00  0.00    +0.000 C 
ATOM      9  N   UNL     1       5.485   5.651  17.122  0.00  0.00    +0.000 NA
BRANCH   9  10
ATOM     10  S   UNL     1       7.144   5.491  16.579  0.00  0.00    +0.000 S 
ATOM     11  O   UNL     1       7.737   6.802  16.429  0.00  0.00    +0.000 OA
ATOM     12  O   UNL     1       7.759   4.476  17.411  0.00  0.00    +0.000 OA
BRANCH  10  13
ATOM     13  C   UNL     1       6.981   4.850  14.935  0.00  0.00    +0.000 A 
ATOM     14  C   UNL     1       7.728   5.439  13.912  0.00  0.00    +0.000 A 
ATOM     15  C   UNL     1       7.538   5.010  12.602  0.00  0.00    +0.000 A 
ATOM     16  C   UNL     1       6.622   3.993  12.326  0.00  0.00    +0.000 A 
ATOM     17  C   UNL     1       5.911   3.382  13.363  0.00  0.00    +0.000 A 
ATOM     18  C   UNL     1       6.092   3.805  14.676  0.00  0.00    +0.000 A 
ENDBRANCH  10  13
ENDBRANCH   9  10
ENDBRANCH   2   9
ENDBRANCH   1   5
BRANCH   1  19
ATOM     19  C   UNL     1       2.337   7.204  20.289  0.00  0.00    +0.000 C 
BRANCH  19  20
ATOM     20  C   UNL     1       1.340   8.227  20.844  0.00  0.00    +0.000 C 
BRANCH  20  21
ATOM     21  C   UNL     1       1.009   9.291  19.845  0.00  0.00    +0.000 A 
ATOM     22  C   UNL     1       1.392   9.319  18.514  0.00  0.00    +0.000 A 
ATOM     23  N   UNL     1       0.904  10.464  17.947  0.00  0.00    +0.000 N 
ATOM     24  C   UNL     1       0.197  11.192  18.876  0.00  0.00    +0.000 A 
ATOM     25  C   UNL     1      -0.468  12.419  18.749  0.00  0.00    +0.000 A 
ATOM     26  C   UNL     1      -1.106  12.936  19.887  0.00  0.00    +0.000 A 
ATOM     27  C   UNL     1      -1.081  12.254  21.111  0.00  0.00    +0.000 A 
ATOM     28  C   UNL     1      -0.413  11.024  21.202  0.00  0.00    +0.000 A 
ATOM     29  C   UNL     1       0.240  10.481  20.071  0.00  0.00    +0.000 A 
ATOM     30  H   UNL     1       1.042  10.743  16.984  0.00  0.00    +0.000 HD
BRANCH  27  31
ATOM     31  N   UNL     1      -1.714  12.801  22.259  0.00  0.00    +0.000 N 
ATOM     32  C   UNL     1      -2.916  12.442  22.820  0.00  0.00    +0.000 A 
ATOM     33  N   UNL     1      -3.170  13.176  23.881  0.00  0.00    +0.000 NA
ATOM     34  N   UNL     1      -2.126  14.047  24.040  0.00  0.00    +0.000 NA
ATOM     35  C   UNL     1      -1.268  13.815  23.073  0.00  0.00    +0.000 A 
ENDBRANCH  27  31
ENDBRANCH  20  21
ENDBRANCH  19  20
ENDBRANCH   1  19
TORSDOF 8
ENDMDL
MODEL 8
REMARK VINA RESULT:      -8.1      8.269     12.171
REMARK  Name = 
REMARK  9 active torsions:
REMARK  status: ('A' for Active; 'I' for Inactive)
REMARK    1  A    between atoms: C_1  and  N_2
REMARK    2  A    between atoms: N_2  and  C_3
REMARK    3  A    between atoms: N_2  and  S_26
REMARK    4  A    between atoms: N_6  and  C_7
REMARK    5  A    between atoms: C_7  and  C_8
REMARK    6  A    between atoms: C_8  and  C_9
REMARK    7  A    between atoms: C_9  and  C_10
REMARK    8  A    between atoms: C_16  and  N_17
REMARK    9  A    between atoms: S_26  and  C_29
REMARK                            x       y       z     vdW  Elec       q    Type
REMARK                         _______ _______ _______ _____ _____    ______ ____
ROOT
ATOM      1  C   UNL     1      -0.340   9.980  23.216  0.00  0.00    +0.000 C 
ENDROOT
BRANCH   1   5
ATOM      2  C   UNL     1      -2.439  13.550  21.902  0.00  0.00    +0.000 C 
ATOM      3  C   UNL     1      -0.972  13.340  21.483  0.00  0.00    +0.000 C 
ATOM      4  C   UNL     1      -0.462  11.909  21.704  0.00  0.00    +0.000 C 
ATOM      5  N   UNL     1      -0.750  11.387  23.052  0.00  0.00    +0.000 NA
ATOM      6  C   UNL     1      -2.181  11.531  23.363  0.00  0.00    +0.000 C 
ATOM      7  C   UNL     1      -2.545  13.014  23.332  0.00  0.00    +0.000 C 
BRANCH   2   9
ATOM      8  C   UNL     1      -2.786  12.436  19.682  0.00  0.00    +0.000 C 
ATOM      9  N   UNL     1      -3.444  12.899  20.943  0.00  0.00    +0.000 NA
BRANCH   9  10
ATOM     10  S   UNL     1      -4.836  13.907  20.596  0.00  0.00    +0.000 S 
ATOM     11  O   UNL     1      -4.447  15.300  20.619  0.00  0.00    +0.000 OA
ATOM     12  O   UNL     1      -5.495  13.326  19.443  0.00  0.00    +0.000 OA
BRANCH  10  13
ATOM     13  C   UNL     1      -5.875  13.678  22.013  0.00  0.00    +0.000 A 
ATOM     14  C   UNL     1      -6.614  12.496  22.115  0.00  0.00    +0.000 A 
ATOM     15  C   UNL     1      -7.506  12.344  23.171  0.00  0.00    +0.000 A 
ATOM     16  C   UNL     1      -7.643  13.359  24.121  0.00  0.00    +0.000 A 
ATOM     17  C   UNL     1      -6.868  14.519  24.032  0.00  0.00    +0.000 A 
ATOM     18  C   UNL     1      -5.975  14.681  22.978  0.00  0.00    +0.000 A 
ENDBRANCH  10  13
ENDBRANCH   9  10
ENDBRANCH   2   9
ENDBRANCH   1   5
BRANCH   1  19
ATOM     19  C   UNL     1       0.775   9.592  22.242  0.00  0.00    +0.000 C 
BRANCH  19  20
ATOM     20  C   UNL     1       0.288   8.623  21.160  0.00  0.00    +0.000 C 
BRANCH  20  21
ATOM     21  C   UNL     1       1.111   8.710  19.913  0.00  0.00    +0.000 A 
ATOM     22  C   UNL     1       1.148   9.771  19.023  0.00  0.00    +0.000 A 
ATOM     23  N   UNL     1       2.009   9.455  18.008  0.00  0.00    +0.000 N 
ATOM     24  C   UNL     1       2.550   8.206  18.213  0.00  0.00    +0.000 A 
ATOM     25  C   UNL     1       3.464   7.477  17.441  0.00  0.00    +0.000 A 
ATOM     26  C   UNL     1       3.835   6.204  17.898  0.00  0.00    +0.000 A 
ATOM     27  C   UNL     1       3.311   5.673  19.084  0.00  0.00    +0.000 A 
ATOM     28  C   UNL     1       2.404   6.432  19.838  0.00  0.00    +0.000 A 
ATOM     29  C   UNL     1       2.012   7.718  19.399  0.00  0.00    +0.000 A 
ATOM     30  H   UNL     1       2.220  10.047  17.215  0.00  0.00    +0.000 HD
BRANCH  27  31
ATOM     31  N   UNL     1       3.681   4.373  19.523  0.00  0.00    +0.000 N 
ATOM     32  C   UNL     1       2.953   3.493  20.285  0.00  0.00    +0.000 A 
ATOM     33  N   UNL     1       3.629   2.383  20.486  0.00  0.00    +0.000 NA
ATOM     34  N   UNL     1       4.835   2.516  19.853  0.00  0.00    +0.000 NA
ATOM     35  C   UNL     1       4.856   3.699  19.285  0.00  0.00    +0.000 A 
ENDBRANCH  27  31
ENDBRANCH  20  21
ENDBRANCH  19  20
ENDBRANCH   1  19
TORSDOF 8
ENDMDL
MODEL 9
REMARK VINA RESULT:      -8.0      5.493     11.168
REMARK  Name = 
REMARK  9 active torsions:
REMARK  status: ('A' for Active; 'I' for Inactive)
REMARK    1  A    between atoms: C_1  and  N_2
REMARK    2  A    between atoms: N_2  and  C_3
REMARK    3  A    between atoms: N_2  and  S_26
REMARK    4  A    between atoms: N_6  and  C_7
REMARK    5  A    between atoms: C_7  and  C_8
REMARK    6  A    between atoms: C_8  and  C_9
REMARK    7  A    between atoms: C_9  and  C_10
REMARK    8  A    between atoms: C_16  and  N_17
REMARK    9  A    between atoms: S_26  and  C_29
REMARK                            x       y       z     vdW  Elec       q    Type
REMARK                         _______ _______ _______ _____ _____    ______ ____
ROOT
ATOM      1  C   UNL     1       1.503   8.716  20.968  0.00  0.00    +0.000 C 
ENDROOT
BRANCH   1   5
ATOM      2  C   UNL     1      -0.630  12.321  19.812  0.00  0.00    +0.000 C 
ATOM      3  C   UNL     1      -1.199  11.436  20.936  0.00  0.00    +0.000 C 
ATOM      4  C   UNL     1      -0.198  10.408  21.485  0.00  0.00    +0.000 C 
ATOM      5  N   UNL     1       0.476   9.629  20.431  0.00  0.00    +0.000 NA
ATOM      6  C   UNL     1       1.078  10.528  19.433  0.00  0.00    +0.000 C 
ATOM      7  C   UNL     1      -0.029  11.357  18.786  0.00  0.00    +0.000 C 
BRANCH   2   9
ATOM      8  C   UNL     1       0.286  13.557  21.793  0.00  0.00    +0.000 C 
ATOM      9  N   UNL     1       0.375  13.367  20.311  0.00  0.00    +0.000 NA
BRANCH   9  10
ATOM     10  S   UNL     1       0.269  14.901  19.470  0.00  0.00    +0.000 S 
ATOM     11  O   UNL     1      -0.638  14.780  18.349  0.00  0.00    +0.000 OA
ATOM     12  O   UNL     1       0.085  15.920  20.483  0.00  0.00    +0.000 OA
BRANCH  10  13
ATOM     13  C   UNL     1       1.881  15.095  18.761  0.00  0.00    +0.000 A 
ATOM     14  C   UNL     1       2.729  13.985  18.716  0.00  0.00    +0.000 A 
ATOM     15  C   UNL     1       4.031  14.145  18.252  0.00  0.00    +0.000 A 
ATOM     16  C   UNL     1       4.469  15.401  17.823  0.00  0.00    +0.000 A 
ATOM     17  C   UNL     1       3.599  16.494  17.833  0.00  0.00    +0.000 A 
ATOM     18  C   UNL     1       2.297  16.345  18.298  0.00  0.00    +0.000 A 
ENDBRANCH  10  13
ENDBRANCH   9  10
ENDBRANCH   2   9
ENDBRANCH   1   5
BRANCH   1  19
ATOM     19  C   UNL     1       1.694   7.485  20.079  0.00  0.00    +0.000 C 
BRANCH  19  20
ATOM     20  C   UNL     1       1.702   6.183  20.887  0.00  0.00    +0.000 C 
BRANCH  20  21
ATOM     21  C   UNL     1       1.717   4.973  20.007  0.00  0.00    +0.000 A 
ATOM     22  C   UNL     1       0.813   3.923  20.035  0.00  0.00    +0.000 A 
ATOM     23  N   UNL     1       1.182   3.009  19.086  0.00  0.00    +0.000 N 
ATOM     24  C   UNL     1       2.311   3.437  18.425  0.00  0.00    +0.000 A 
ATOM     25  C   UNL     1       3.040   2.832  17.393  0.00  0.00    +0.000 A 
ATOM     26  C   UNL     1       4.172   3.506  16.912  0.00  0.00    +0.000 A 
ATOM     27  C   UNL     1       4.567   4.742  17.443  0.00  0.00    +0.000 A 
ATOM     28  C   UNL     1       3.809   5.324  18.471  0.00  0.00    +0.000 A 
ATOM     29  C   UNL     1       2.665   4.665  18.975  0.00  0.00    +0.000 A 
ATOM     30  H   UNL     1       0.702   2.139  18.896  0.00  0.00    +0.000 HD
BRANCH  27  31
ATOM     31  N   UNL     1       5.728   5.402  16.959  0.00  0.00    +0.000 N 
ATOM     32  C   UNL     1       6.466   5.114  15.837  0.00  0.00    +0.000 A 
ATOM     33  N   UNL     1       7.472   5.950  15.716  0.00  0.00    +0.000 NA
ATOM     34  N   UNL     1       7.417   6.818  16.774  0.00  0.00    +0.000 NA
ATOM     35  C   UNL     1       6.378   6.484  17.504  0.00  0.00    +0.000 A 
ENDBRANCH  27  31
ENDBRANCH  20  21
ENDBRANCH  19  20
ENDBRANCH   1  19
TORSDOF 8
ENDMDL
