MODEL 1
REMARK VINA RESULT:      -8.3      0.000      0.000
REMARK  Name = 
REMARK  4 active torsions:
REMARK  status: ('A' for Active; 'I' for Inactive)
REMARK    1  A    between atoms: C_2  and  C_12
REMARK    2  A    between atoms: N_3  and  C_4
REMARK    3  A    between atoms: N_14  and  C_15
REMARK    4  A    between atoms: C_15  and  C_16
REMARK                            x       y       z     vdW  Elec       q    Type
REMARK                         _______ _______ _______ _____ _____    ______ ____
ROOT
ATOM      1  C   UNL     1       2.914   7.171  18.034  0.00  0.00    +0.000 A 
ATOM      2  C   UNL     1       2.466   5.910  18.159  0.00  0.00    +0.000 A 
ATOM      3  N   UNL     1       3.079   4.753  17.666  0.00  0.00    +0.000 N 
ATOM      4  C   UNL     1       4.282   4.911  16.953  0.00  0.00    +0.000 A 
ATOM      5  C   UNL     1       4.999   3.769  16.379  0.00  0.00    +0.000 A 
ATOM      6  C   UNL     1       6.124   3.919  15.662  0.00  0.00    +0.000 A 
ATOM      7  C   UNL     1       6.691   5.266  15.441  0.00  0.00    +0.000 A 
ATOM      8  O   UNL     1       7.708   5.429  14.779  0.00  0.00    +0.000 OA
ATOM      9  N   UNL     1       5.996   6.294  16.018  0.00  0.00    +0.000 N 
ATOM     10  C   UNL     1       4.837   6.126  16.741  0.00  0.00    +0.000 A 
ATOM     11  C   UNL     1       4.168   7.352  17.272  0.00  0.00    +0.000 A 
ATOM     12  O   UNL     1       4.638   8.468  17.049  0.00  0.00    +0.000 OA
ATOM     13  H   UNL     1       6.349   7.236  15.880  0.00  0.00    +0.000 HD
ENDROOT
BRANCH   1  15
ATOM     14  O   UNL     1       1.742   8.201  19.807  0.00  0.00    +0.000 OA
ATOM     15  C   UNL     1       2.110   8.269  18.636  0.00  0.00    +0.000 C 
ATOM     16  N   UNL     1       1.730   9.270  17.762  0.00  0.00    +0.000 N 
ATOM     17  H   UNL     1       1.770   9.050  16.766  0.00  0.00    +0.000 HD
BRANCH  16  18
ATOM     18  C   UNL     1       0.846  10.299  18.156  0.00  0.00    +0.000 A 
ATOM     19  C   UNL     1       1.274  11.474  18.780  0.00  0.00    +0.000 A 
ATOM     20  F   UNL     1       2.582  11.743  18.913  0.00  0.00    +0.000 F 
ATOM     21  C   UNL     1       0.357  12.434  19.206  0.00  0.00    +0.000 A 
ATOM     22  C   UNL     1      -1.010  12.220  19.027  0.00  0.00    +0.000 A 
ATOM     23  C   UNL     1      -1.449  11.063  18.382  0.00  0.00    +0.000 A 
ATOM     24  C   UNL     1      -0.520  10.128  17.929  0.00  0.00    +0.000 A 
ATOM     25  F   UNL     1      -0.962   9.010  17.333  0.00  0.00    +0.000 F 
ENDBRANCH  16  18
ENDBRANCH   1  15
BRANCH   3  26
ATOM     26  C   UNL     1       2.389   3.451  17.866  0.00  0.00    +0.000 C 
BRANCH  26  27
ATOM     27  C   UNL     1       2.328   3.033  19.311  0.00  0.00    +0.000 A 
ATOM     28  C   UNL     1       3.462   2.588  19.995  0.00  0.00    +0.000 A 
ATOM     29  F   UNL     1       4.652   2.561  19.383  0.00  0.00    +0.000 F 
ATOM     30  C   UNL     1       3.409   2.193  21.331  0.00  0.00    +0.000 A 
ATOM     31  C   UNL     1       2.204   2.261  22.026  0.00  0.00    +0.000 A 
ATOM     32  C   UNL     1       1.068   2.740  21.379  0.00  0.00    +0.000 A 
ATOM     33  C   UNL     1       1.141   3.122  20.039  0.00  0.00    +0.000 A 
ATOM     34  F   UNL     1       0.034   3.603  19.456  0.00  0.00    +0.000 F 
ENDBRANCH  26  27
ENDBRANCH   3  26
TORSDOF 4
ENDMDL
MODEL 2
REMARK VINA RESULT:      -8.3      2.517      4.908
REMARK  Name = 
REMARK  4 active torsions:
REMARK  status: ('A' for Active; 'I' for Inactive)
REMARK    1  A    between atoms: C_2  and  C_12
REMARK    2  A    between atoms: N_3  and  C_4
REMARK    3  A    between atoms: N_14  and  C_15
REMARK    4  A    between atoms: C_15  and  C_16
REMARK                            x       y       z     vdW  Elec       q    Type
REMARK                         _______ _______ _______ _____ _____    ______ ____
ROOT
ATOM      1  C   UNL     1       2.092   7.419  19.095  0.00  0.00    +0.000 A 
ATOM      2  C   UNL     1       3.055   6.870  18.335  0.00  0.00    +0.000 A 
ATOM      3  N   UNL     1       3.557   5.568  18.434  0.00  0.00    +0.000 N 
ATOM      4  C   UNL     1       3.016   4.740  19.436  0.00  0.00    +0.000 A 
ATOM      5  C   UNL     1       3.479   3.365  19.640  0.00  0.00    +0.000 A 
ATOM      6  C   UNL     1       2.996   2.586  20.622  0.00  0.00    +0.000 A 
ATOM      7  C   UNL     1       1.952   3.100  21.532  0.00  0.00    +0.000 A 
ATOM      8  O   UNL     1       1.505   2.414  22.443  0.00  0.00    +0.000 OA
ATOM      9  N   UNL     1       1.538   4.380  21.284  0.00  0.00    +0.000 N 
ATOM     10  C   UNL     1       2.050   5.171  20.280  0.00  0.00    +0.000 A 
ATOM     11  C   UNL     1       1.528   6.566  20.162  0.00  0.00    +0.000 A 
ATOM     12  O   UNL     1       0.681   6.986  20.951  0.00  0.00    +0.000 OA
ATOM     13  H   UNL     1       0.828   4.772  21.894  0.00  0.00    +0.000 HD
ENDROOT
BRANCH   1  15
ATOM     14  O   UNL     1       2.435   9.567  18.175  0.00  0.00    +0.000 OA
ATOM     15  C   UNL     1       1.698   8.829  18.825  0.00  0.00    +0.000 C 
ATOM     16  N   UNL     1       0.536   9.246  19.446  0.00  0.00    +0.000 N 
ATOM     17  H   UNL     1       0.210   8.686  20.235  0.00  0.00    +0.000 HD
BRANCH  16  18
ATOM     18  C   UNL     1       0.116  10.594  19.400  0.00  0.00    +0.000 A 
ATOM     19  C   UNL     1       0.538  11.555  20.324  0.00  0.00    +0.000 A 
ATOM     20  F   UNL     1       1.485  11.266  21.230  0.00  0.00    +0.000 F 
ATOM     21  C   UNL     1       0.048  12.860  20.275  0.00  0.00    +0.000 A 
ATOM     22  C   UNL     1      -0.890  13.215  19.305  0.00  0.00    +0.000 A 
ATOM     23  C   UNL     1      -1.300  12.271  18.362  0.00  0.00    +0.000 A 
ATOM     24  C   UNL     1      -0.775  10.981  18.400  0.00  0.00    +0.000 A 
ATOM     25  F   UNL     1      -1.200  10.081  17.500  0.00  0.00    +0.000 F 
ENDBRANCH  16  18
ENDBRANCH   1  15
BRANCH   3  26
ATOM     26  C   UNL     1       4.667   5.169  17.528  0.00  0.00    +0.000 C 
BRANCH  26  27
ATOM     27  C   UNL     1       5.948   5.908  17.808  0.00  0.00    +0.000 A 
ATOM     28  C   UNL     1       6.355   6.994  17.029  0.00  0.00    +0.000 A 
ATOM     29  F   UNL     1       5.583   7.432  16.027  0.00  0.00    +0.000 F 
ATOM     30  C   UNL     1       7.545   7.676  17.281  0.00  0.00    +0.000 A 
ATOM     31  C   UNL     1       8.351   7.293  18.349  0.00  0.00    +0.000 A 
ATOM     32  C   UNL     1       7.947   6.240  19.167  0.00  0.00    +0.000 A 
ATOM     33  C   UNL     1       6.757   5.564  18.892  0.00  0.00    +0.000 A 
ATOM     34  F   UNL     1       6.387   4.573  19.715  0.00  0.00    +0.000 F 
ENDBRANCH  26  27
ENDBRANCH   3  26
TORSDOF 4
ENDMDL
MODEL 3
REMARK VINA RESULT:      -8.3      2.519      4.854
REMARK  Name = 
REMARK  4 active torsions:
REMARK  status: ('A' for Active; 'I' for Inactive)
REMARK    1  A    between atoms: C_2  and  C_12
REMARK    2  A    between atoms: N_3  and  C_4
REMARK    3  A    between atoms: N_14  and  C_15
REMARK    4  A    between atoms: C_15  and  C_16
REMARK                            x       y       z     vdW  Elec       q    Type
REMARK                         _______ _______ _______ _____ _____    ______ ____
ROOT
ATOM      1  C   UNL     1       2.061   7.457  19.100  0.00  0.00    +0.000 A 
ATOM      2  C   UNL     1       3.023   6.912  18.336  0.00  0.00    +0.000 A 
ATOM      3  N   UNL     1       3.531   5.612  18.433  0.00  0.00    +0.000 N 
ATOM      4  C   UNL     1       2.996   4.781  19.435  0.00  0.00    +0.000 A 
ATOM      5  C   UNL     1       3.466   3.408  19.636  0.00  0.00    +0.000 A 
ATOM      6  C   UNL     1       2.989   2.626  20.618  0.00  0.00    +0.000 A 
ATOM      7  C   UNL     1       1.946   3.134  21.533  0.00  0.00    +0.000 A 
ATOM      8  O   UNL     1       1.505   2.445  22.444  0.00  0.00    +0.000 OA
ATOM      9  N   UNL     1       1.526   4.413  21.287  0.00  0.00    +0.000 N 
ATOM     10  C   UNL     1       2.032   5.207  20.283  0.00  0.00    +0.000 A 
ATOM     11  C   UNL     1       1.504   6.600  20.168  0.00  0.00    +0.000 A 
ATOM     12  O   UNL     1       0.658   7.016  20.960  0.00  0.00    +0.000 OA
ATOM     13  H   UNL     1       0.816   4.801  21.900  0.00  0.00    +0.000 HD
ENDROOT
BRANCH   1  15
ATOM     14  O   UNL     1       2.382   9.601  18.163  0.00  0.00    +0.000 OA
ATOM     15  C   UNL     1       1.660   8.865  18.833  0.00  0.00    +0.000 C 
ATOM     16  N   UNL     1       0.513   9.285  19.479  0.00  0.00    +0.000 N 
ATOM     17  H   UNL     1       0.206   8.728  20.278  0.00  0.00    +0.000 HD
BRANCH  16  18
ATOM     18  C   UNL     1       0.092  10.633  19.437  0.00  0.00    +0.000 A 
ATOM     19  C   UNL     1       0.521  11.594  20.357  0.00  0.00    +0.000 A 
ATOM     20  F   UNL     1       1.476  11.306  21.255  0.00  0.00    +0.000 F 
ATOM     21  C   UNL     1       0.029  12.898  20.312  0.00  0.00    +0.000 A 
ATOM     22  C   UNL     1      -0.917  13.253  19.351  0.00  0.00    +0.000 A 
ATOM     23  C   UNL     1      -1.334  12.309  18.411  0.00  0.00    +0.000 A 
ATOM     24  C   UNL     1      -0.808  11.019  18.445  0.00  0.00    +0.000 A 
ATOM     25  F   UNL     1      -1.240  10.119  17.548  0.00  0.00    +0.000 F 
ENDBRANCH  16  18
ENDBRANCH   1  15
BRANCH   3  26
ATOM     26  C   UNL     1       4.640   5.219  17.523  0.00  0.00    +0.000 C 
BRANCH  26  27
ATOM     27  C   UNL     1       5.928   5.940  17.819  0.00  0.00    +0.000 A 
ATOM     28  C   UNL     1       6.753   5.562  18.881  0.00  0.00    +0.000 A 
ATOM     29  F   UNL     1       6.431   4.512  19.646  0.00  0.00    +0.000 F 
ATOM     30  C   UNL     1       7.943   6.232  19.163  0.00  0.00    +0.000 A 
ATOM     31  C   UNL     1       8.348   7.294  18.359  0.00  0.00    +0.000 A 
ATOM     32  C   UNL     1       7.565   7.663  17.268  0.00  0.00    +0.000 A 
ATOM     33  C   UNL     1       6.372   6.986  17.009  0.00  0.00    +0.000 A 
ATOM     34  F   UNL     1       5.656   7.351  15.936  0.00  0.00    +0.000 F 
ENDBRANCH  26  27
ENDBRANCH   3  26
TORSDOF 4
ENDMDL
MODEL 4
REMARK VINA RESULT:      -8.3      0.072      1.456
REMARK  Name = 
REMARK  4 active torsions:
REMARK  status: ('A' for Active; 'I' for Inactive)
REMARK    1  A    between atoms: C_2  and  C_12
REMARK    2  A    between atoms: N_3  and  C_4
REMARK    3  A    between atoms: N_14  and  C_15
REMARK    4  A    between atoms: C_15  and  C_16
REMARK                            x       y       z     vdW  Elec       q    Type
REMARK                         _______ _______ _______ _____ _____    ______ ____
ROOT
ATOM      1  C   UNL     1       2.947   7.163  18.020  0.00  0.00    +0.000 A 
ATOM      2  C   UNL     1       2.500   5.902  18.146  0.00  0.00    +0.000 A 
ATOM      3  N   UNL     1       3.113   4.745  17.652  0.00  0.00    +0.000 N 
ATOM      4  C   UNL     1       4.315   4.904  16.938  0.00  0.00    +0.000 A 
ATOM      5  C   UNL     1       5.032   3.762  16.363  0.00  0.00    +0.000 A 
ATOM      6  C   UNL     1       6.156   3.913  15.645  0.00  0.00    +0.000 A 
ATOM      7  C   UNL     1       6.722   5.260  15.422  0.00  0.00    +0.000 A 
ATOM      8  O   UNL     1       7.738   5.425  14.759  0.00  0.00    +0.000 OA
ATOM      9  N   UNL     1       6.027   6.288  16.000  0.00  0.00    +0.000 N 
ATOM     10  C   UNL     1       4.869   6.119  16.725  0.00  0.00    +0.000 A 
ATOM     11  C   UNL     1       4.199   7.345  17.256  0.00  0.00    +0.000 A 
ATOM     12  O   UNL     1       4.669   8.461  17.033  0.00  0.00    +0.000 OA
ATOM     13  H   UNL     1       6.379   7.230  15.862  0.00  0.00    +0.000 HD
ENDROOT
BRANCH   1  15
ATOM     14  O   UNL     1       1.765   8.187  19.790  0.00  0.00    +0.000 OA
ATOM     15  C   UNL     1       2.142   8.261  18.623  0.00  0.00    +0.000 C 
ATOM     16  N   UNL     1       1.774   9.268  17.752  0.00  0.00    +0.000 N 
ATOM     17  H   UNL     1       1.821   9.055  16.755  0.00  0.00    +0.000 HD
BRANCH  16  18
ATOM     18  C   UNL     1       0.890  10.299  18.146  0.00  0.00    +0.000 A 
ATOM     19  C   UNL     1       1.324  11.488  18.739  0.00  0.00    +0.000 A 
ATOM     20  F   UNL     1       2.633  11.768  18.838  0.00  0.00    +0.000 F 
ATOM     21  C   UNL     1       0.409  12.450  19.167  0.00  0.00    +0.000 A 
ATOM     22  C   UNL     1      -0.959  12.223  19.021  0.00  0.00    +0.000 A 
ATOM     23  C   UNL     1      -1.404  11.051  18.407  0.00  0.00    +0.000 A 
ATOM     24  C   UNL     1      -0.478  10.114  17.952  0.00  0.00    +0.000 A 
ATOM     25  F   UNL     1      -0.926   8.982  17.387  0.00  0.00    +0.000 F 
ENDBRANCH  16  18
ENDBRANCH   1  15
BRANCH   3  26
ATOM     26  C   UNL     1       2.424   3.442  17.853  0.00  0.00    +0.000 C 
BRANCH  26  27
ATOM     27  C   UNL     1       2.317   3.050  19.303  0.00  0.00    +0.000 A 
ATOM     28  C   UNL     1       1.095   3.056  19.977  0.00  0.00    +0.000 A 
ATOM     29  F   UNL     1      -0.032   3.378  19.330  0.00  0.00    +0.000 F 
ATOM     30  C   UNL     1       0.993   2.700  21.322  0.00  0.00    +0.000 A 
ATOM     31  C   UNL     1       2.129   2.302  22.021  0.00  0.00    +0.000 A 
ATOM     32  C   UNL     1       3.354   2.247  21.360  0.00  0.00    +0.000 A 
ATOM     33  C   UNL     1       3.436   2.616  20.016  0.00  0.00    +0.000 A 
ATOM     34  F   UNL     1       4.626   2.526  19.405  0.00  0.00    +0.000 F 
ENDBRANCH  26  27
ENDBRANCH   3  26
TORSDOF 4
ENDMDL
MODEL 5
REMARK VINA RESULT:      -8.3      2.537      5.086
REMARK  Name = 
REMARK  4 active torsions:
REMARK  status: ('A' for Active; 'I' for Inactive)
REMARK    1  A    between atoms: C_2  and  C_12
REMARK    2  A    between atoms: N_3  and  C_4
REMARK    3  A    between atoms: N_14  and  C_15
REMARK    4  A    between atoms: C_15  and  C_16
REMARK                            x       y       z     vdW  Elec       q    Type
REMARK                         _______ _______ _______ _____ _____    ______ ____
ROOT
ATOM      1  C   UNL     1       2.081   7.418  19.083  0.00  0.00    +0.000 A 
ATOM      2  C   UNL     1       3.046   6.870  18.324  0.00  0.00    +0.000 A 
ATOM      3  N   UNL     1       3.552   5.570  18.425  0.00  0.00    +0.000 N 
ATOM      4  C   UNL     1       3.015   4.742  19.428  0.00  0.00    +0.000 A 
ATOM      5  C   UNL     1       3.483   3.369  19.633  0.00  0.00    +0.000 A 
ATOM      6  C   UNL     1       3.003   2.590  20.616  0.00  0.00    +0.000 A 
ATOM      7  C   UNL     1       1.957   3.101  21.527  0.00  0.00    +0.000 A 
ATOM      8  O   UNL     1       1.514   2.414  22.439  0.00  0.00    +0.000 OA
ATOM      9  N   UNL     1       1.539   4.380  21.276  0.00  0.00    +0.000 N 
ATOM     10  C   UNL     1       2.048   5.171  20.272  0.00  0.00    +0.000 A 
ATOM     11  C   UNL     1       1.521   6.564  20.152  0.00  0.00    +0.000 A 
ATOM     12  O   UNL     1       0.673   6.982  20.941  0.00  0.00    +0.000 OA
ATOM     13  H   UNL     1       0.828   4.769  21.887  0.00  0.00    +0.000 HD
ENDROOT
BRANCH   1  15
ATOM     14  O   UNL     1       2.373   9.539  18.089  0.00  0.00    +0.000 OA
ATOM     15  C   UNL     1       1.683   8.825  18.812  0.00  0.00    +0.000 C 
ATOM     16  N   UNL     1       0.579   9.271  19.514  0.00  0.00    +0.000 N 
ATOM     17  H   UNL     1       0.311   8.734  20.340  0.00  0.00    +0.000 HD
BRANCH  16  18
ATOM     18  C   UNL     1       0.171  10.624  19.469  0.00  0.00    +0.000 A 
ATOM     19  C   UNL     1      -0.654  11.138  18.465  0.00  0.00    +0.000 A 
ATOM     20  F   UNL     1      -1.217  10.325  17.557  0.00  0.00    +0.000 F 
ATOM     21  C   UNL     1      -0.979  12.494  18.429  0.00  0.00    +0.000 A 
ATOM     22  C   UNL     1      -0.464  13.359  19.394  0.00  0.00    +0.000 A 
ATOM     23  C   UNL     1       0.340  12.854  20.417  0.00  0.00    +0.000 A 
ATOM     24  C   UNL     1       0.628  11.491  20.461  0.00  0.00    +0.000 A 
ATOM     25  F   UNL     1       1.423  11.028  21.438  0.00  0.00    +0.000 F 
ENDBRANCH  16  18
ENDBRANCH   1  15
BRANCH   3  26
ATOM     26  C   UNL     1       4.664   5.175  17.519  0.00  0.00    +0.000 C 
BRANCH  26  27
ATOM     27  C   UNL     1       5.945   5.912  17.802  0.00  0.00    +0.000 A 
ATOM     28  C   UNL     1       6.350   7.004  17.030  0.00  0.00    +0.000 A 
ATOM     29  F   UNL     1       5.577   7.448  16.031  0.00  0.00    +0.000 F 
ATOM     30  C   UNL     1       7.539   7.685  17.285  0.00  0.00    +0.000 A 
ATOM     31  C   UNL     1       8.347   7.296  18.350  0.00  0.00    +0.000 A 
ATOM     32  C   UNL     1       7.945   6.237  19.161  0.00  0.00    +0.000 A 
ATOM     33  C   UNL     1       6.755   5.563  18.883  0.00  0.00    +0.000 A 
ATOM     34  F   UNL     1       6.386   4.565  19.700  0.00  0.00    +0.000 F 
ENDBRANCH  26  27
ENDBRANCH   3  26
TORSDOF 4
ENDMDL
MODEL 6
REMARK VINA RESULT:      -8.2      2.541      5.029
REMARK  Name = 
REMARK  4 active torsions:
REMARK  status: ('A' for Active; 'I' for Inactive)
REMARK    1  A    between atoms: C_2  and  C_12
REMARK    2  A    between atoms: N_3  and  C_4
REMARK    3  A    between atoms: N_14  and  C_15
REMARK    4  A    between atoms: C_15  and  C_16
REMARK                            x       y       z     vdW  Elec       q    Type
REMARK                         _______ _______ _______ _____ _____    ______ ____
ROOT
ATOM      1  C   UNL     1       2.046   7.430  19.111  0.00  0.00    +0.000 A 
ATOM      2  C   UNL     1       3.008   6.890  18.344  0.00  0.00    +0.000 A 
ATOM      3  N   UNL     1       3.519   5.590  18.435  0.00  0.00    +0.000 N 
ATOM      4  C   UNL     1       2.988   4.755  19.437  0.00  0.00    +0.000 A 
ATOM      5  C   UNL     1       3.461   3.382  19.632  0.00  0.00    +0.000 A 
ATOM      6  C   UNL     1       2.988   2.597  20.613  0.00  0.00    +0.000 A 
ATOM      7  C   UNL     1       1.946   3.100  21.532  0.00  0.00    +0.000 A 
ATOM      8  O   UNL     1       1.509   2.407  22.442  0.00  0.00    +0.000 OA
ATOM      9  N   UNL     1       1.523   4.379  21.291  0.00  0.00    +0.000 N 
ATOM     10  C   UNL     1       2.025   5.177  20.288  0.00  0.00    +0.000 A 
ATOM     11  C   UNL     1       1.494   6.569  20.178  0.00  0.00    +0.000 A 
ATOM     12  O   UNL     1       0.648   6.980  20.974  0.00  0.00    +0.000 OA
ATOM     13  H   UNL     1       0.814   4.764  21.907  0.00  0.00    +0.000 HD
ENDROOT
BRANCH   1  15
ATOM     14  O   UNL     1       2.340   9.565  18.146  0.00  0.00    +0.000 OA
ATOM     15  C   UNL     1       1.642   8.838  18.850  0.00  0.00    +0.000 C 
ATOM     16  N   UNL     1       0.524   9.268  19.538  0.00  0.00    +0.000 N 
ATOM     17  H   UNL     1       0.246   8.720  20.353  0.00  0.00    +0.000 HD
BRANCH  16  18
ATOM     18  C   UNL     1       0.107  10.619  19.502  0.00  0.00    +0.000 A 
ATOM     19  C   UNL     1      -0.722  11.133  18.502  0.00  0.00    +0.000 A 
ATOM     20  F   UNL     1      -1.282  10.323  17.591  0.00  0.00    +0.000 F 
ATOM     21  C   UNL     1      -1.056  12.487  18.475  0.00  0.00    +0.000 A 
ATOM     22  C   UNL     1      -0.545  13.350  19.444  0.00  0.00    +0.000 A 
ATOM     23  C   UNL     1       0.264  12.844  20.463  0.00  0.00    +0.000 A 
ATOM     24  C   UNL     1       0.560  11.483  20.498  0.00  0.00    +0.000 A 
ATOM     25  F   UNL     1       1.360  11.018  21.472  0.00  0.00    +0.000 F 
ENDBRANCH  16  18
ENDBRANCH   1  15
BRANCH   3  26
ATOM     26  C   UNL     1       4.626   5.203  17.521  0.00  0.00    +0.000 C 
BRANCH  26  27
ATOM     27  C   UNL     1       5.917   5.915  17.826  0.00  0.00    +0.000 A 
ATOM     28  C   UNL     1       6.736   5.529  18.890  0.00  0.00    +0.000 A 
ATOM     29  F   UNL     1       6.405   4.477  19.649  0.00  0.00    +0.000 F 
ATOM     30  C   UNL     1       7.929   6.190  19.179  0.00  0.00    +0.000 A 
ATOM     31  C   UNL     1       8.343   7.253  18.381  0.00  0.00    +0.000 A 
ATOM     32  C   UNL     1       7.566   7.631  17.289  0.00  0.00    +0.000 A 
ATOM     33  C   UNL     1       6.371   6.961  17.021  0.00  0.00    +0.000 A 
ATOM     34  F   UNL     1       5.661   7.335  15.947  0.00  0.00    +0.000 F 
ENDBRANCH  26  27
ENDBRANCH   3  26
TORSDOF 4
ENDMDL
MODEL 7
REMARK VINA RESULT:      -8.2      0.251      1.478
REMARK  Name = 
REMARK  4 active torsions:
REMARK  status: ('A' for Active; 'I' for Inactive)
REMARK    1  A    between atoms: C_2  and  C_12
REMARK    2  A    between atoms: N_3  and  C_4
REMARK    3  A    between atoms: N_14  and  C_15
REMARK    4  A    between atoms: C_15  and  C_16
REMARK                            x       y       z     vdW  Elec       q    Type
REMARK                         _______ _______ _______ _____ _____    ______ ____
ROOT
ATOM      1  C   UNL     1       2.775   7.335  18.088  0.00  0.00    +0.000 A 
ATOM      2  C   UNL     1       2.315   6.078  18.206  0.00  0.00    +0.000 A 
ATOM      3  N   UNL     1       2.933   4.914  17.735  0.00  0.00    +0.000 N 
ATOM      4  C   UNL     1       4.156   5.061  17.054  0.00  0.00    +0.000 A 
ATOM      5  C   UNL     1       4.880   3.911  16.504  0.00  0.00    +0.000 A 
ATOM      6  C   UNL     1       6.025   4.051  15.817  0.00  0.00    +0.000 A 
ATOM      7  C   UNL     1       6.606   5.393  15.604  0.00  0.00    +0.000 A 
ATOM      8  O   UNL     1       7.642   5.546  14.969  0.00  0.00    +0.000 OA
ATOM      9  N   UNL     1       5.903   6.428  16.158  0.00  0.00    +0.000 N 
ATOM     10  C   UNL     1       4.725   6.271  16.851  0.00  0.00    +0.000 A 
ATOM     11  C   UNL     1       4.049   7.504  17.358  0.00  0.00    +0.000 A 
ATOM     12  O   UNL     1       4.533   8.616  17.143  0.00  0.00    +0.000 OA
ATOM     13  H   UNL     1       6.266   7.367  16.026  0.00  0.00    +0.000 HD
ENDROOT
BRANCH   1  15
ATOM     14  O   UNL     1       1.610   8.407  19.840  0.00  0.00    +0.000 OA
ATOM     15  C   UNL     1       1.962   8.441  18.663  0.00  0.00    +0.000 C 
ATOM     16  N   UNL     1       1.557   9.406  17.761  0.00  0.00    +0.000 N 
ATOM     17  H   UNL     1       1.588   9.153  16.772  0.00  0.00    +0.000 HD
BRANCH  16  18
ATOM     18  C   UNL     1       0.663  10.435  18.132  0.00  0.00    +0.000 A 
ATOM     19  C   UNL     1      -0.722  10.338  17.966  0.00  0.00    +0.000 A 
ATOM     20  F   UNL     1      -1.286   9.187  17.568  0.00  0.00    +0.000 F 
ATOM     21  C   UNL     1      -1.559  11.405  18.290  0.00  0.00    +0.000 A 
ATOM     22  C   UNL     1      -1.015  12.596  18.769  0.00  0.00    +0.000 A 
ATOM     23  C   UNL     1       0.364  12.698  18.963  0.00  0.00    +0.000 A 
ATOM     24  C   UNL     1       1.185  11.611  18.669  0.00  0.00    +0.000 A 
ATOM     25  F   UNL     1       2.511  11.736  18.839  0.00  0.00    +0.000 F 
ENDBRANCH  16  18
ENDBRANCH   1  15
BRANCH   3  26
ATOM     26  C   UNL     1       2.229   3.617  17.923  0.00  0.00    +0.000 C 
BRANCH  26  27
ATOM     27  C   UNL     1       2.263   3.129  19.346  0.00  0.00    +0.000 A 
ATOM     28  C   UNL     1       3.412   2.560  19.900  0.00  0.00    +0.000 A 
ATOM     29  F   UNL     1       4.535   2.469  19.178  0.00  0.00    +0.000 F 
ATOM     30  C   UNL     1       3.445   2.100  21.216  0.00  0.00    +0.000 A 
ATOM     31  C   UNL     1       2.318   2.227  22.023  0.00  0.00    +0.000 A 
ATOM     32  C   UNL     1       1.173   2.831  21.508  0.00  0.00    +0.000 A 
ATOM     33  C   UNL     1       1.157   3.275  20.186  0.00  0.00    +0.000 A 
ATOM     34  F   UNL     1       0.047   3.874  19.731  0.00  0.00    +0.000 F 
ENDBRANCH  26  27
ENDBRANCH   3  26
TORSDOF 4
ENDMDL
MODEL 8
REMARK VINA RESULT:      -8.1      0.147      2.063
REMARK  Name = 
REMARK  4 active torsions:
REMARK  status: ('A' for Active; 'I' for Inactive)
REMARK    1  A    between atoms: C_2  and  C_12
REMARK    2  A    between atoms: N_3  and  C_4
REMARK    3  A    between atoms: N_14  and  C_15
REMARK    4  A    between atoms: C_15  and  C_16
REMARK                            x       y       z     vdW  Elec       q    Type
REMARK                         _______ _______ _______ _____ _____    ______ ____
ROOT
ATOM      1  C   UNL     1       2.896   7.200  18.031  0.00  0.00    +0.000 A 
ATOM      2  C   UNL     1       2.452   5.937  18.156  0.00  0.00    +0.000 A 
ATOM      3  N   UNL     1       3.073   4.781  17.672  0.00  0.00    +0.000 N 
ATOM      4  C   UNL     1       4.281   4.942  16.968  0.00  0.00    +0.000 A 
ATOM      5  C   UNL     1       5.007   3.801  16.403  0.00  0.00    +0.000 A 
ATOM      6  C   UNL     1       6.137   3.953  15.694  0.00  0.00    +0.000 A 
ATOM      7  C   UNL     1       6.700   5.302  15.472  0.00  0.00    +0.000 A 
ATOM      8  O   UNL     1       7.721   5.467  14.818  0.00  0.00    +0.000 OA
ATOM      9  N   UNL     1       5.996   6.329  16.041  0.00  0.00    +0.000 N 
ATOM     10  C   UNL     1       4.833   6.159  16.756  0.00  0.00    +0.000 A 
ATOM     11  C   UNL     1       4.154   7.384  17.277  0.00  0.00    +0.000 A 
ATOM     12  O   UNL     1       4.622   8.500  17.055  0.00  0.00    +0.000 OA
ATOM     13  H   UNL     1       6.347   7.271  15.903  0.00  0.00    +0.000 HD
ENDROOT
BRANCH   1  15
ATOM     14  O   UNL     1       1.682   8.218  19.782  0.00  0.00    +0.000 OA
ATOM     15  C   UNL     1       2.082   8.296  18.623  0.00  0.00    +0.000 C 
ATOM     16  N   UNL     1       1.733   9.309  17.750  0.00  0.00    +0.000 N 
ATOM     17  H   UNL     1       1.800   9.101  16.753  0.00  0.00    +0.000 HD
BRANCH  16  18
ATOM     18  C   UNL     1       0.845  10.340  18.131  0.00  0.00    +0.000 A 
ATOM     19  C   UNL     1      -0.543  10.233  18.009  0.00  0.00    +0.000 A 
ATOM     20  F   UNL     1      -1.112   9.073  17.647  0.00  0.00    +0.000 F 
ATOM     21  C   UNL     1      -1.376  11.302  18.341  0.00  0.00    +0.000 A 
ATOM     22  C   UNL     1      -0.824  12.503  18.785  0.00  0.00    +0.000 A 
ATOM     23  C   UNL     1       0.560  12.615  18.935  0.00  0.00    +0.000 A 
ATOM     24  C   UNL     1       1.378  11.527  18.633  0.00  0.00    +0.000 A 
ATOM     25  F   UNL     1       2.707  11.661  18.761  0.00  0.00    +0.000 F 
ENDBRANCH  16  18
ENDBRANCH   1  15
BRANCH   3  26
ATOM     26  C   UNL     1       2.387   3.477  17.871  0.00  0.00    +0.000 C 
BRANCH  26  27
ATOM     27  C   UNL     1       2.307   3.068  19.318  0.00  0.00    +0.000 A 
ATOM     28  C   UNL     1       1.100   3.082  20.019  0.00  0.00    +0.000 A 
ATOM     29  F   UNL     1      -0.037   3.427  19.401  0.00  0.00    +0.000 F 
ATOM     30  C   UNL     1       1.023   2.712  21.362  0.00  0.00    +0.000 A 
ATOM     31  C   UNL     1       2.169   2.290  22.030  0.00  0.00    +0.000 A 
ATOM     32  C   UNL     1       3.378   2.226  21.342  0.00  0.00    +0.000 A 
ATOM     33  C   UNL     1       3.435   2.610  20.001  0.00  0.00    +0.000 A 
ATOM     34  F   UNL     1       4.609   2.512  19.363  0.00  0.00    +0.000 F 
ENDBRANCH  26  27
ENDBRANCH   3  26
TORSDOF 4
ENDMDL
MODEL 9
REMARK VINA RESULT:      -8.0      3.117      8.373
REMARK  Name = 
REMARK  4 active torsions:
REMARK  status: ('A' for Active; 'I' for Inactive)
REMARK    1  A    between atoms: C_2  and  C_12
REMARK    2  A    between atoms: N_3  and  C_4
REMARK    3  A    between atoms: N_14  and  C_15
REMARK    4  A    between atoms: C_15  and  C_16
REMARK                            x       y       z     vdW  Elec       q    Type
REMARK                         _______ _______ _______ _____ _____    ______ ____
ROOT
ATOM      1  C   UNL     1       2.104   7.864  18.849  0.00  0.00    +0.000 A 
ATOM      2  C   UNL     1       1.543   8.927  18.249  0.00  0.00    +0.000 A 
ATOM      3  N   UNL     1       0.811   9.946  18.868  0.00  0.00    +0.000 N 
ATOM      4  C   UNL     1       0.626   9.856  20.260  0.00  0.00    +0.000 A 
ATOM      5  C   UNL     1      -0.138  10.859  21.008  0.00  0.00    +0.000 A 
ATOM      6  C   UNL     1      -0.353  10.755  22.329  0.00  0.00    +0.000 A 
ATOM      7  C   UNL     1       0.198   9.610  23.084  0.00  0.00    +0.000 A 
ATOM      8  O   UNL     1       0.004   9.486  24.287  0.00  0.00    +0.000 OA
ATOM      9  N   UNL     1       0.923   8.716  22.343  0.00  0.00    +0.000 N 
ATOM     10  C   UNL     1       1.126   8.830  20.987  0.00  0.00    +0.000 A 
ATOM     11  C   UNL     1       1.902   7.748  20.309  0.00  0.00    +0.000 A 
ATOM     12  O   UNL     1       2.325   6.786  20.950  0.00  0.00    +0.000 OA
ATOM     13  H   UNL     1       1.310   7.911  22.825  0.00  0.00    +0.000 HD
ENDROOT
BRANCH   1  15
ATOM     14  O   UNL     1       2.330   5.819  17.689  0.00  0.00    +0.000 OA
ATOM     15  C   UNL     1       2.847   6.888  18.006  0.00  0.00    +0.000 C 
ATOM     16  N   UNL     1       4.157   7.227  17.726  0.00  0.00    +0.000 N 
ATOM     17  H   UNL     1       4.588   7.932  18.326  0.00  0.00    +0.000 HD
BRANCH  16  18
ATOM     18  C   UNL     1       5.027   6.334  17.061  0.00  0.00    +0.000 A 
ATOM     19  C   UNL     1       5.176   6.308  15.671  0.00  0.00    +0.000 A 
ATOM     20  F   UNL     1       4.592   7.241  14.902  0.00  0.00    +0.000 F 
ATOM     21  C   UNL     1       6.000   5.366  15.056  0.00  0.00    +0.000 A 
ATOM     22  C   UNL     1       6.675   4.422  15.829  0.00  0.00    +0.000 A 
ATOM     23  C   UNL     1       6.554   4.452  17.219  0.00  0.00    +0.000 A 
ATOM     24  C   UNL     1       5.755   5.421  17.823  0.00  0.00    +0.000 A 
ATOM     25  F   UNL     1       5.633   5.420  19.160  0.00  0.00    +0.000 F 
ENDBRANCH  16  18
ENDBRANCH   1  15
BRANCH   3  26
ATOM     26  C   UNL     1       0.224  11.012  18.012  0.00  0.00    +0.000 C 
BRANCH  26  27
ATOM     27  C   UNL     1      -1.276  10.928  17.914  0.00  0.00    +0.000 A 
ATOM     28  C   UNL     1      -2.105  11.887  18.499  0.00  0.00    +0.000 A 
ATOM     29  F   UNL     1      -1.575  12.939  19.136  0.00  0.00    +0.000 F 
ATOM     30  C   UNL     1      -3.495  11.809  18.416  0.00  0.00    +0.000 A 
ATOM     31  C   UNL     1      -4.089  10.765  17.713  0.00  0.00    +0.000 A 
ATOM     32  C   UNL     1      -3.284   9.818  17.084  0.00  0.00    +0.000 A 
ATOM     33  C   UNL     1      -1.895   9.910  17.187  0.00  0.00    +0.000 A 
ATOM     34  F   UNL     1      -1.150   8.996  16.548  0.00  0.00    +0.000 F 
ENDBRANCH  26  27
ENDBRANCH   3  26
TORSDOF 4
ENDMDL
