MODEL 1
REMARK VINA RESULT:      -7.8      0.000      0.000
REMARK  Name = 
REMARK  6 active torsions:
REMARK  status: ('A' for Active; 'I' for Inactive)
REMARK    1  A    between atoms: C_1  and  C_2
REMARK    2  A    between atoms: C_3  and  C_4
REMARK    3  A    between atoms: C_4  and  O_5
REMARK    4  A    between atoms: C_4  and  C_6
REMARK    5  A    between atoms: C_6  and  N_7
REMARK    6  A    between atoms: N_14  and  C_15
REMARK                            x       y       z     vdW  Elec       q    Type
REMARK                         _______ _______ _______ _____ _____    ______ ____
ROOT
ATOM      1  N   UNL     1       2.275   8.182  19.275  0.00  0.00    +0.000 NA
ATOM      2  C   UNL     1       2.087   9.083  18.132  0.00  0.00    +0.000 C 
ATOM      3  C   UNL     1       0.652   9.571  17.969  0.00  0.00    +0.000 C 
ATOM      4  C   UNL     1       0.028  10.156  19.270  0.00  0.00    +0.000 C 
ATOM      5  C   UNL     1       0.601  11.536  19.664  0.00  0.00    +0.000 C 
ATOM      6  C   UNL     1       0.238  12.626  18.679  0.00  0.00    +0.000 C 
ATOM      7  C   UNL     1      -1.266  12.657  18.525  0.00  0.00    +0.000 C 
ATOM      8  N   UNL     1      -1.800  11.355  18.130  0.00  0.00    +0.000 N 
ATOM      9  C   UNL     1      -1.478  10.246  18.945  0.00  0.00    +0.000 C 
ATOM     10  O   UNL     1      -2.240   9.308  19.143  0.00  0.00    +0.000 OA
ATOM     11  C   UNL     1       0.302   9.183  20.436  0.00  0.00    +0.000 C 
ATOM     12  C   UNL     1       1.793   8.821  20.509  0.00  0.00    +0.000 C 
ENDROOT
BRANCH   8  13
ATOM     13  C   UNL     1      -2.645  11.222  17.034  0.00  0.00    +0.000 C 
ATOM     14  C   UNL     1      -2.332  10.695  15.854  0.00  0.00    +0.000 C 
ATOM     15  C   UNL     1      -3.558  10.609  15.078  0.00  0.00    +0.000 C 
ATOM     16  O   UNL     1      -3.630  10.131  13.960  0.00  0.00    +0.000 OA
ATOM     17  O   UNL     1      -4.592  11.099  15.806  0.00  0.00    +0.000 OA
ATOM     18  C   UNL     1      -4.103  11.527  17.079  0.00  0.00    +0.000 C 
ENDBRANCH   8  13
BRANCH   1  19
ATOM     19  C   UNL     1       1.667   6.845  19.100  0.00  0.00    +0.000 C 
BRANCH  19  20
ATOM     20  C   UNL     1       2.633   5.635  19.027  0.00  0.00    +0.000 C 
BRANCH  20  23
ATOM     21  C   UNL     1       2.869   3.242  17.168  0.00  0.00    +0.000 C 
ATOM     22  C   UNL     1       3.805   4.418  17.117  0.00  0.00    +0.000 A 
ATOM     23  C   UNL     1       3.661   5.590  17.909  0.00  0.00    +0.000 A 
ATOM     24  C   UNL     1       4.562   6.669  17.709  0.00  0.00    +0.000 A 
ATOM     25  C   UNL     1       5.624   6.583  16.808  0.00  0.00    +0.000 A 
ATOM     26  C   UNL     1       5.783   5.395  16.131  0.00  0.00    +0.000 A 
ATOM     27  C   UNL     1       4.907   4.341  16.267  0.00  0.00    +0.000 A 
ATOM     28  C   UNL     1       5.383   3.214  15.440  0.00  0.00    +0.000 C 
ATOM     29  O   UNL     1       6.584   3.723  14.828  0.00  0.00    +0.000 OA
ATOM     30  C   UNL     1       6.844   5.010  15.210  0.00  0.00    +0.000 C 
ATOM     31  O   UNL     1       7.779   5.695  14.852  0.00  0.00    +0.000 OA
ENDBRANCH  20  23
BRANCH  20  32
ATOM     32  O   UNL     1       3.387   5.582  20.250  0.00  0.00    +0.000 OA
ATOM     33  H   UNL     1       4.183   5.053  20.083  0.00  0.00    +0.000 HD
ENDBRANCH  20  32
ENDBRANCH  19  20
ENDBRANCH   1  19
TORSDOF 5
ENDMDL
MODEL 2
REMARK VINA RESULT:      -7.8      3.438      4.872
REMARK  Name = 
REMARK  6 active torsions:
REMARK  status: ('A' for Active; 'I' for Inactive)
REMARK    1  A    between atoms: C_1  and  C_2
REMARK    2  A    between atoms: C_3  and  C_4
REMARK    3  A    between atoms: C_4  and  O_5
REMARK    4  A    between atoms: C_4  and  C_6
REMARK    5  A    between atoms: C_6  and  N_7
REMARK    6  A    between atoms: N_14  and  C_15
REMARK                            x       y       z     vdW  Elec       q    Type
REMARK                         _______ _______ _______ _____ _____    ______ ____
ROOT
ATOM      1  N   UNL     1       0.400   9.229  20.725  0.00  0.00    +0.000 NA
ATOM      2  C   UNL     1       0.473  10.508  21.440  0.00  0.00    +0.000 C 
ATOM      3  C   UNL     1       1.170  11.611  20.649  0.00  0.00    +0.000 C 
ATOM      4  C   UNL     1       0.628  11.792  19.201  0.00  0.00    +0.000 C 
ATOM      5  C   UNL     1      -0.772  12.441  19.140  0.00  0.00    +0.000 C 
ATOM      6  C   UNL     1      -0.774  13.880  19.610  0.00  0.00    +0.000 C 
ATOM      7  C   UNL     1       0.247  14.652  18.804  0.00  0.00    +0.000 C 
ATOM      8  N   UNL     1       1.574  14.046  18.882  0.00  0.00    +0.000 N 
ATOM      9  C   UNL     1       1.690  12.685  18.523  0.00  0.00    +0.000 C 
ATOM     10  O   UNL     1       2.675  12.211  17.969  0.00  0.00    +0.000 OA
ATOM     11  C   UNL     1       0.534  10.407  18.525  0.00  0.00    +0.000 C 
ATOM     12  C   UNL     1      -0.236   9.417  19.412  0.00  0.00    +0.000 C 
ENDROOT
BRANCH   8  13
ATOM     13  C   UNL     1       2.692  14.795  19.233  0.00  0.00    +0.000 C 
ATOM     14  C   UNL     1       3.215  15.805  18.544  0.00  0.00    +0.000 C 
ATOM     15  C   UNL     1       4.262  16.393  19.363  0.00  0.00    +0.000 C 
ATOM     16  O   UNL     1       4.916  17.370  19.042  0.00  0.00    +0.000 OA
ATOM     17  O   UNL     1       4.359  15.716  20.533  0.00  0.00    +0.000 OA
ATOM     18  C   UNL     1       3.394  14.661  20.541  0.00  0.00    +0.000 C 
ENDBRANCH   8  13
BRANCH   1  19
ATOM     19  C   UNL     1       1.699   8.535  20.588  0.00  0.00    +0.000 C 
BRANCH  19  20
ATOM     20  C   UNL     1       1.664   7.063  20.102  0.00  0.00    +0.000 C 
BRANCH  20  23
ATOM     21  C   UNL     1       1.713   4.214  19.044  0.00  0.00    +0.000 C 
ATOM     22  C   UNL     1       2.575   5.313  18.487  0.00  0.00    +0.000 A 
ATOM     23  C   UNL     1       2.505   6.672  18.899  0.00  0.00    +0.000 A 
ATOM     24  C   UNL     1       3.314   7.633  18.237  0.00  0.00    +0.000 A 
ATOM     25  C   UNL     1       4.225   7.270  17.244  0.00  0.00    +0.000 A 
ATOM     26  C   UNL     1       4.329   5.930  16.944  0.00  0.00    +0.000 A 
ATOM     27  C   UNL     1       3.534   4.974  17.533  0.00  0.00    +0.000 A 
ATOM     28  C   UNL     1       3.924   3.645  17.021  0.00  0.00    +0.000 C 
ATOM     29  O   UNL     1       4.991   3.936  16.096  0.00  0.00    +0.000 OA
ATOM     30  C   UNL     1       5.249   5.276  16.022  0.00  0.00    +0.000 C 
ATOM     31  O   UNL     1       6.085   5.814  15.326  0.00  0.00    +0.000 OA
ENDBRANCH  20  23
BRANCH  20  32
ATOM     32  O   UNL     1       2.108   6.220  21.178  0.00  0.00    +0.000 OA
ATOM     33  H   UNL     1       2.448   5.398  20.788  0.00  0.00    +0.000 HD
ENDBRANCH  20  32
ENDBRANCH  19  20
ENDBRANCH   1  19
TORSDOF 5
ENDMDL
MODEL 3
REMARK VINA RESULT:      -7.8      3.553      8.922
REMARK  Name = 
REMARK  6 active torsions:
REMARK  status: ('A' for Active; 'I' for Inactive)
REMARK    1  A    between atoms: C_1  and  C_2
REMARK    2  A    between atoms: C_3  and  C_4
REMARK    3  A    between atoms: C_4  and  O_5
REMARK    4  A    between atoms: C_4  and  C_6
REMARK    5  A    between atoms: C_6  and  N_7
REMARK    6  A    between atoms: N_14  and  C_15
REMARK                            x       y       z     vdW  Elec       q    Type
REMARK                         _______ _______ _______ _____ _____    ______ ____
ROOT
ATOM      1  N   UNL     1       1.399   4.281  18.418  0.00  0.00    +0.000 NA
ATOM      2  C   UNL     1       2.068   5.160  17.451  0.00  0.00    +0.000 C 
ATOM      3  C   UNL     1       3.551   5.370  17.741  0.00  0.00    +0.000 C 
ATOM      4  C   UNL     1       4.347   4.051  17.964  0.00  0.00    +0.000 C 
ATOM      5  C   UNL     1       4.572   3.237  16.670  0.00  0.00    +0.000 C 
ATOM      6  C   UNL     1       5.483   3.938  15.687  0.00  0.00    +0.000 C 
ATOM      7  C   UNL     1       6.784   4.269  16.384  0.00  0.00    +0.000 C 
ATOM      8  N   UNL     1       6.567   5.058  17.595  0.00  0.00    +0.000 N 
ATOM      9  C   UNL     1       5.685   4.530  18.565  0.00  0.00    +0.000 C 
ATOM     10  O   UNL     1       5.834   4.685  19.771  0.00  0.00    +0.000 OA
ATOM     11  C   UNL     1       3.567   3.158  18.952  0.00  0.00    +0.000 C 
ATOM     12  C   UNL     1       2.106   2.994  18.506  0.00  0.00    +0.000 C 
ENDROOT
BRANCH   8  13
ATOM     13  C   UNL     1       7.250   6.249  17.815  0.00  0.00    +0.000 C 
ATOM     14  C   UNL     1       7.036   7.408  17.201  0.00  0.00    +0.000 C 
ATOM     15  C   UNL     1       7.859   8.408  17.862  0.00  0.00    +0.000 C 
ATOM     16  O   UNL     1       7.867   9.591  17.569  0.00  0.00    +0.000 OA
ATOM     17  O   UNL     1       8.568   7.826  18.861  0.00  0.00    +0.000 OA
ATOM     18  C   UNL     1       8.250   6.433  18.905  0.00  0.00    +0.000 C 
ENDBRANCH   8  13
BRANCH   1  19
ATOM     19  C   UNL     1       1.220   4.878  19.759  0.00  0.00    +0.000 C 
BRANCH  19  20
ATOM     20  C   UNL     1       2.048   6.149  20.080  0.00  0.00    +0.000 C 
BRANCH  20  23
ATOM     21  C   UNL     1       2.147   8.507  18.165  0.00  0.00    +0.000 C 
ATOM     22  C   UNL     1       1.453   8.559  19.498  0.00  0.00    +0.000 A 
ATOM     23  C   UNL     1       1.311   7.446  20.370  0.00  0.00    +0.000 A 
ATOM     24  C   UNL     1       0.561   7.601  21.566  0.00  0.00    +0.000 A 
ATOM     25  C   UNL     1       0.020   8.832  21.940  0.00  0.00    +0.000 A 
ATOM     26  C   UNL     1       0.263   9.905  21.113  0.00  0.00    +0.000 A 
ATOM     27  C   UNL     1       0.950   9.787  19.926  0.00  0.00    +0.000 A 
ATOM     28  C   UNL     1       1.068  11.122  19.306  0.00  0.00    +0.000 C 
ATOM     29  O   UNL     1       0.387  11.990  20.234  0.00  0.00    +0.000 OA
ATOM     30  C   UNL     1      -0.106  11.301  21.307  0.00  0.00    +0.000 C 
ATOM     31  O   UNL     1      -0.727  11.766  22.240  0.00  0.00    +0.000 OA
ENDBRANCH  20  23
BRANCH  20  32
ATOM     32  O   UNL     1       2.847   5.887  21.246  0.00  0.00    +0.000 OA
ATOM     33  H   UNL     1       2.319   6.126  22.025  0.00  0.00    +0.000 HD
ENDBRANCH  20  32
ENDBRANCH  19  20
ENDBRANCH   1  19
TORSDOF 5
ENDMDL
MODEL 4
REMARK VINA RESULT:      -7.6      3.455      4.472
REMARK  Name = 
REMARK  6 active torsions:
REMARK  status: ('A' for Active; 'I' for Inactive)
REMARK    1  A    between atoms: C_1  and  C_2
REMARK    2  A    between atoms: C_3  and  C_4
REMARK    3  A    between atoms: C_4  and  O_5
REMARK    4  A    between atoms: C_4  and  C_6
REMARK    5  A    between atoms: C_6  and  N_7
REMARK    6  A    between atoms: N_14  and  C_15
REMARK                            x       y       z     vdW  Elec       q    Type
REMARK                         _______ _______ _______ _____ _____    ______ ____
ROOT
ATOM      1  N   UNL     1       0.242  10.400  20.285  0.00  0.00    +0.000 NA
ATOM      2  C   UNL     1      -0.822  11.047  19.508  0.00  0.00    +0.000 C 
ATOM      3  C   UNL     1      -1.972  11.567  20.364  0.00  0.00    +0.000 C 
ATOM      4  C   UNL     1      -1.521  12.448  21.566  0.00  0.00    +0.000 C 
ATOM      5  C   UNL     1      -1.012  13.846  21.152  0.00  0.00    +0.000 C 
ATOM      6  C   UNL     1      -2.103  14.721  20.573  0.00  0.00    +0.000 C 
ATOM      7  C   UNL     1      -3.239  14.800  21.569  0.00  0.00    +0.000 C 
ATOM      8  N   UNL     1      -3.731  13.475  21.940  0.00  0.00    +0.000 N 
ATOM      9  C   UNL     1      -2.789  12.548  22.441  0.00  0.00    +0.000 C 
ATOM     10  O   UNL     1      -3.049  11.716  23.301  0.00  0.00    +0.000 OA
ATOM     11  C   UNL     1      -0.374  11.731  22.308  0.00  0.00    +0.000 C 
ATOM     12  C   UNL     1       0.733  11.311  21.329  0.00  0.00    +0.000 C 
ENDROOT
BRANCH   8  13
ATOM     13  C   UNL     1      -5.083  13.159  21.866  0.00  0.00    +0.000 C 
ATOM     14  C   UNL     1      -5.665  12.387  20.954  0.00  0.00    +0.000 C 
ATOM     15  C   UNL     1      -7.048  12.200  21.362  0.00  0.00    +0.000 C 
ATOM     16  O   UNL     1      -7.851  11.506  20.764  0.00  0.00    +0.000 OA
ATOM     17  O   UNL     1      -7.278  12.877  22.514  0.00  0.00    +0.000 OA
ATOM     18  C   UNL     1      -6.074  13.535  22.915  0.00  0.00    +0.000 C 
ENDBRANCH   8  13
BRANCH   1  19
ATOM     19  C   UNL     1      -0.137   9.091  20.861  0.00  0.00    +0.000 C 
BRANCH  19  20
ATOM     20  C   UNL     1       1.000   8.060  21.077  0.00  0.00    +0.000 C 
BRANCH  20  23
ATOM     21  C   UNL     1       2.015   5.203  20.871  0.00  0.00    +0.000 C 
ATOM     22  C   UNL     1       2.323   6.261  19.847  0.00  0.00    +0.000 A 
ATOM     23  C   UNL     1       1.786   7.576  19.870  0.00  0.00    +0.000 A 
ATOM     24  C   UNL     1       2.086   8.460  18.799  0.00  0.00    +0.000 A 
ATOM     25  C   UNL     1       2.948   8.095  17.764  0.00  0.00    +0.000 A 
ATOM     26  C   UNL     1       3.522   6.845  17.832  0.00  0.00    +0.000 A 
ATOM     27  C   UNL     1       3.224   5.946  18.831  0.00  0.00    +0.000 A 
ATOM     28  C   UNL     1       4.032   4.725  18.633  0.00  0.00    +0.000 C 
ATOM     29  O   UNL     1       4.795   5.012  17.444  0.00  0.00    +0.000 OA
ATOM     30  C   UNL     1       4.511   6.252  16.943  0.00  0.00    +0.000 C 
ATOM     31  O   UNL     1       4.994   6.758  15.952  0.00  0.00    +0.000 OA
ENDBRANCH  20  23
BRANCH  20  32
ATOM     32  O   UNL     1       1.971   8.637  21.967  0.00  0.00    +0.000 OA
ATOM     33  H   UNL     1       2.614   7.945  22.190  0.00  0.00    +0.000 HD
ENDBRANCH  20  32
ENDBRANCH  19  20
ENDBRANCH   1  19
TORSDOF 5
ENDMDL
MODEL 5
REMARK VINA RESULT:      -7.6      3.937      5.564
REMARK  Name = 
REMARK  6 active torsions:
REMARK  status: ('A' for Active; 'I' for Inactive)
REMARK    1  A    between atoms: C_1  and  C_2
REMARK    2  A    between atoms: C_3  and  C_4
REMARK    3  A    between atoms: C_4  and  O_5
REMARK    4  A    between atoms: C_4  and  C_6
REMARK    5  A    between atoms: C_6  and  N_7
REMARK    6  A    between atoms: N_14  and  C_15
REMARK                            x       y       z     vdW  Elec       q    Type
REMARK                         _______ _______ _______ _____ _____    ______ ____
ROOT
ATOM      1  N   UNL     1       0.014  10.192  20.290  0.00  0.00    +0.000 NA
ATOM      2  C   UNL     1       0.544  11.168  21.251  0.00  0.00    +0.000 C 
ATOM      3  C   UNL     1       1.207  12.373  20.593  0.00  0.00    +0.000 C 
ATOM      4  C   UNL     1       0.336  13.058  19.499  0.00  0.00    +0.000 C 
ATOM      5  C   UNL     1      -0.862  13.851  20.068  0.00  0.00    +0.000 C 
ATOM      6  C   UNL     1      -0.437  15.061  20.870  0.00  0.00    +0.000 C 
ATOM      7  C   UNL     1       0.458  15.924  20.008  0.00  0.00    +0.000 C 
ATOM      8  N   UNL     1       1.601  15.174  19.491  0.00  0.00    +0.000 N 
ATOM      9  C   UNL     1       1.330  13.989  18.771  0.00  0.00    +0.000 C 
ATOM     10  O   UNL     1       2.004  13.602  17.825  0.00  0.00    +0.000 OA
ATOM     11  C   UNL     1      -0.224  11.974  18.554  0.00  0.00    +0.000 C 
ATOM     12  C   UNL     1      -0.906  10.852  19.352  0.00  0.00    +0.000 C 
ENDROOT
BRANCH   8  13
ATOM     13  C   UNL     1       2.901  15.643  19.642  0.00  0.00    +0.000 C 
ATOM     14  C   UNL     1       3.406  16.755  19.119  0.00  0.00    +0.000 C 
ATOM     15  C   UNL     1       4.738  16.931  19.674  0.00  0.00    +0.000 C 
ATOM     16  O   UNL     1       5.463  17.880  19.432  0.00  0.00    +0.000 OA
ATOM     17  O   UNL     1       5.018  15.907  20.518  0.00  0.00    +0.000 OA
ATOM     18  C   UNL     1       3.898  15.019  20.559  0.00  0.00    +0.000 C 
ENDBRANCH   8  13
BRANCH   1  19
ATOM     19  C   UNL     1       1.053   9.430  19.564  0.00  0.00    +0.000 C 
BRANCH  19  20
ATOM     20  C   UNL     1       1.385   8.011  20.091  0.00  0.00    +0.000 C 
BRANCH  20  23
ATOM     21  C   UNL     1       1.835   5.088  20.794  0.00  0.00    +0.000 C 
ATOM     22  C   UNL     1       2.562   5.787  19.679  0.00  0.00    +0.000 A 
ATOM     23  C   UNL     1       2.304   7.123  19.269  0.00  0.00    +0.000 A 
ATOM     24  C   UNL     1       3.001   7.645  18.147  0.00  0.00    +0.000 A 
ATOM     25  C   UNL     1       3.980   6.906  17.480  0.00  0.00    +0.000 A 
ATOM     26  C   UNL     1       4.266   5.651  17.970  0.00  0.00    +0.000 A 
ATOM     27  C   UNL     1       3.584   5.096  19.030  0.00  0.00    +0.000 A 
ATOM     28  C   UNL     1       4.159   3.767  19.324  0.00  0.00    +0.000 C 
ATOM     29  O   UNL     1       5.205   3.624  18.344  0.00  0.00    +0.000 OA
ATOM     30  C   UNL     1       5.289   4.715  17.525  0.00  0.00    +0.000 C 
ATOM     31  O   UNL     1       6.068   4.873  16.608  0.00  0.00    +0.000 OA
ENDBRANCH  20  23
BRANCH  20  32
ATOM     32  O   UNL     1       2.015   8.140  21.376  0.00  0.00    +0.000 OA
ATOM     33  H   UNL     1       2.975   8.170  21.232  0.00  0.00    +0.000 HD
ENDBRANCH  20  32
ENDBRANCH  19  20
ENDBRANCH   1  19
TORSDOF 5
ENDMDL
MODEL 6
REMARK VINA RESULT:      -7.5      3.378      5.278
REMARK  Name = 
REMARK  6 active torsions:
REMARK  status: ('A' for Active; 'I' for Inactive)
REMARK    1  A    between atoms: C_1  and  C_2
REMARK    2  A    between atoms: C_3  and  C_4
REMARK    3  A    between atoms: C_4  and  O_5
REMARK    4  A    between atoms: C_4  and  C_6
REMARK    5  A    between atoms: C_6  and  N_7
REMARK    6  A    between atoms: N_14  and  C_15
REMARK                            x       y       z     vdW  Elec       q    Type
REMARK                         _______ _______ _______ _____ _____    ______ ____
ROOT
ATOM      1  N   UNL     1       0.870  10.723  18.383  0.00  0.00    +0.000 NA
ATOM      2  C   UNL     1      -0.524  11.184  18.360  0.00  0.00    +0.000 C 
ATOM      3  C   UNL     1      -1.041  11.634  19.723  0.00  0.00    +0.000 C 
ATOM      4  C   UNL     1      -0.111  12.650  20.450  0.00  0.00    +0.000 C 
ATOM      5  C   UNL     1      -0.127  14.061  19.822  0.00  0.00    +0.000 C 
ATOM      6  C   UNL     1      -1.461  14.758  19.976  0.00  0.00    +0.000 C 
ATOM      7  C   UNL     1      -1.825  14.784  21.444  0.00  0.00    +0.000 C 
ATOM      8  N   UNL     1      -1.831  13.444  22.028  0.00  0.00    +0.000 N 
ATOM      9  C   UNL     1      -0.655  12.672  21.894  0.00  0.00    +0.000 C 
ATOM     10  O   UNL     1      -0.262  11.884  22.746  0.00  0.00    +0.000 OA
ATOM     11  C   UNL     1       1.340  12.127  20.396  0.00  0.00    +0.000 C 
ATOM     12  C   UNL     1       1.737  11.762  18.958  0.00  0.00    +0.000 C 
ENDROOT
BRANCH   8  13
ATOM     13  C   UNL     1      -2.926  12.971  22.743  0.00  0.00    +0.000 C 
ATOM     14  C   UNL     1      -3.003  12.820  24.061  0.00  0.00    +0.000 C 
ATOM     15  C   UNL     1      -4.376  12.463  24.378  0.00  0.00    +0.000 C 
ATOM     16  O   UNL     1      -4.797  12.292  25.509  0.00  0.00    +0.000 OA
ATOM     17  O   UNL     1      -5.103  12.393  23.236  0.00  0.00    +0.000 OA
ATOM     18  C   UNL     1      -4.255  12.697  22.125  0.00  0.00    +0.000 C 
ENDBRANCH   8  13
BRANCH   1  19
ATOM     19  C   UNL     1       1.070   9.428  19.069  0.00  0.00    +0.000 C 
BRANCH  19  20
ATOM     20  C   UNL     1       2.249   8.548  18.582  0.00  0.00    +0.000 C 
BRANCH  20  23
ATOM     21  C   UNL     1       4.350   6.600  17.565  0.00  0.00    +0.000 C 
ATOM     22  C   UNL     1       3.398   6.274  18.683  0.00  0.00    +0.000 A 
ATOM     23  C   UNL     1       2.471   7.197  19.240  0.00  0.00    +0.000 A 
ATOM     24  C   UNL     1       1.683   6.794  20.351  0.00  0.00    +0.000 A 
ATOM     25  C   UNL     1       1.745   5.497  20.864  0.00  0.00    +0.000 A 
ATOM     26  C   UNL     1       2.586   4.608  20.234  0.00  0.00    +0.000 A 
ATOM     27  C   UNL     1       3.395   4.972  19.181  0.00  0.00    +0.000 A 
ATOM     28  C   UNL     1       4.137   3.783  18.715  0.00  0.00    +0.000 C 
ATOM     29  O   UNL     1       3.685   2.733  19.593  0.00  0.00    +0.000 OA
ATOM     30  C   UNL     1       2.775   3.190  20.506  0.00  0.00    +0.000 C 
ATOM     31  O   UNL     1       2.229   2.537  21.371  0.00  0.00    +0.000 OA
ENDBRANCH  20  23
BRANCH  20  32
ATOM     32  O   UNL     1       2.063   8.274  17.184  0.00  0.00    +0.000 OA
ATOM     33  H   UNL     1       2.085   7.310  17.067  0.00  0.00    +0.000 HD
ENDBRANCH  20  32
ENDBRANCH  19  20
ENDBRANCH   1  19
TORSDOF 5
ENDMDL
MODEL 7
REMARK VINA RESULT:      -7.5      3.565      5.027
REMARK  Name = 
REMARK  6 active torsions:
REMARK  status: ('A' for Active; 'I' for Inactive)
REMARK    1  A    between atoms: C_1  and  C_2
REMARK    2  A    between atoms: C_3  and  C_4
REMARK    3  A    between atoms: C_4  and  O_5
REMARK    4  A    between atoms: C_4  and  C_6
REMARK    5  A    between atoms: C_6  and  N_7
REMARK    6  A    between atoms: N_14  and  C_15
REMARK                            x       y       z     vdW  Elec       q    Type
REMARK                         _______ _______ _______ _____ _____    ______ ____
ROOT
ATOM      1  N   UNL     1       0.341   9.513  20.124  0.00  0.00    +0.000 NA
ATOM      2  C   UNL     1       0.786  10.438  21.172  0.00  0.00    +0.000 C 
ATOM      3  C   UNL     1       1.205  11.806  20.642  0.00  0.00    +0.000 C 
ATOM      4  C   UNL     1       0.159  12.467  19.696  0.00  0.00    +0.000 C 
ATOM      5  C   UNL     1      -1.099  12.982  20.430  0.00  0.00    +0.000 C 
ATOM      6  C   UNL     1      -0.805  14.140  21.359  0.00  0.00    +0.000 C 
ATOM      7  C   UNL     1      -0.121  15.233  20.567  0.00  0.00    +0.000 C 
ATOM      8  N   UNL     1       1.081  14.745  19.894  0.00  0.00    +0.000 N 
ATOM      9  C   UNL     1       0.941  13.627  19.042  0.00  0.00    +0.000 C 
ATOM     10  O   UNL     1       1.593  13.470  18.017  0.00  0.00    +0.000 OA
ATOM     11  C   UNL     1      -0.298  11.428  18.651  0.00  0.00    +0.000 C 
ATOM     12  C   UNL     1      -0.738  10.123  19.333  0.00  0.00    +0.000 C 
ENDROOT
BRANCH   8  13
ATOM     13  C   UNL     1       2.302  15.396  20.032  0.00  0.00    +0.000 C 
ATOM     14  C   UNL     1       3.371  14.941  20.678  0.00  0.00    +0.000 C 
ATOM     15  C   UNL     1       4.461  15.868  20.422  0.00  0.00    +0.000 C 
ATOM     16  O   UNL     1       5.598  15.722  20.835  0.00  0.00    +0.000 OA
ATOM     17  O   UNL     1       4.022  16.879  19.632  0.00  0.00    +0.000 OA
ATOM     18  C   UNL     1       2.639  16.669  19.333  0.00  0.00    +0.000 C 
ENDBRANCH   8  13
BRANCH   1  19
ATOM     19  C   UNL     1       1.426   9.022  19.247  0.00  0.00    +0.000 C 
BRANCH  19  20
ATOM     20  C   UNL     1       1.793   7.519  19.354  0.00  0.00    +0.000 C 
BRANCH  20  23
ATOM     21  C   UNL     1       1.824   4.541  18.748  0.00  0.00    +0.000 C 
ATOM     22  C   UNL     1       2.787   5.516  18.129  0.00  0.00    +0.000 A 
ATOM     23  C   UNL     1       2.735   6.923  18.322  0.00  0.00    +0.000 A 
ATOM     24  C   UNL     1       3.651   7.747  17.615  0.00  0.00    +0.000 A 
ATOM     25  C   UNL     1       4.641   7.209  16.792  0.00  0.00    +0.000 A 
ATOM     26  C   UNL     1       4.716   5.837  16.710  0.00  0.00    +0.000 A 
ATOM     27  C   UNL     1       3.822   5.006  17.347  0.00  0.00    +0.000 A 
ATOM     28  C   UNL     1       4.203   3.603  17.086  0.00  0.00    +0.000 C 
ATOM     29  O   UNL     1       5.371   3.717  16.249  0.00  0.00    +0.000 OA
ATOM     30  C   UNL     1       5.695   5.022  16.003  0.00  0.00    +0.000 C 
ATOM     31  O   UNL     1       6.621   5.422  15.328  0.00  0.00    +0.000 OA
ENDBRANCH  20  23
BRANCH  20  32
ATOM     32  O   UNL     1       2.421   7.296  20.628  0.00  0.00    +0.000 OA
ATOM     33  H   UNL     1       3.379   7.397  20.506  0.00  0.00    +0.000 HD
ENDBRANCH  20  32
ENDBRANCH  19  20
ENDBRANCH   1  19
TORSDOF 5
ENDMDL
MODEL 8
REMARK VINA RESULT:      -7.5      3.160      4.233
REMARK  Name = 
REMARK  6 active torsions:
REMARK  status: ('A' for Active; 'I' for Inactive)
REMARK    1  A    between atoms: C_1  and  C_2
REMARK    2  A    between atoms: C_3  and  C_4
REMARK    3  A    between atoms: C_4  and  O_5
REMARK    4  A    between atoms: C_4  and  C_6
REMARK    5  A    between atoms: C_6  and  N_7
REMARK    6  A    between atoms: N_14  and  C_15
REMARK                            x       y       z     vdW  Elec       q    Type
REMARK                         _______ _______ _______ _____ _____    ______ ____
ROOT
ATOM      1  N   UNL     1       0.601   9.425  20.803  0.00  0.00    +0.000 NA
ATOM      2  C   UNL     1       1.134  10.665  21.381  0.00  0.00    +0.000 C 
ATOM      3  C   UNL     1       0.886  11.897  20.517  0.00  0.00    +0.000 C 
ATOM      4  C   UNL     1      -0.593  12.065  20.060  0.00  0.00    +0.000 C 
ATOM      5  C   UNL     1      -1.546  12.498  21.197  0.00  0.00    +0.000 C 
ATOM      6  C   UNL     1      -1.261  13.895  21.703  0.00  0.00    +0.000 C 
ATOM      7  C   UNL     1      -1.301  14.851  20.531  0.00  0.00    +0.000 C 
ATOM      8  N   UNL     1      -0.381  14.449  19.469  0.00  0.00    +0.000 N 
ATOM      9  C   UNL     1      -0.514  13.140  18.955  0.00  0.00    +0.000 C 
ATOM     10  O   UNL     1      -0.309  12.848  17.783  0.00  0.00    +0.000 OA
ATOM     11  C   UNL     1      -1.102  10.717  19.508  0.00  0.00    +0.000 C 
ATOM     12  C   UNL     1      -0.831   9.579  20.505  0.00  0.00    +0.000 C 
ENDROOT
BRANCH   8  13
ATOM     13  C   UNL     1       0.545  15.340  18.938  0.00  0.00    +0.000 C 
ATOM     14  C   UNL     1       0.282  16.530  18.407  0.00  0.00    +0.000 C 
ATOM     15  C   UNL     1       1.556  17.177  18.140  0.00  0.00    +0.000 C 
ATOM     16  O   UNL     1       1.671  18.303  17.688  0.00  0.00    +0.000 OA
ATOM     17  O   UNL     1       2.570  16.355  18.506  0.00  0.00    +0.000 OA
ATOM     18  C   UNL     1       2.020  15.142  19.025  0.00  0.00    +0.000 C 
ENDBRANCH   8  13
BRANCH   1  19
ATOM     19  C   UNL     1       1.340   8.943  19.616  0.00  0.00    +0.000 C 
BRANCH  19  20
ATOM     20  C   UNL     1       1.657   7.427  19.552  0.00  0.00    +0.000 C 
BRANCH  20  23
ATOM     21  C   UNL     1       1.750   4.497  18.747  0.00  0.00    +0.000 C 
ATOM     22  C   UNL     1       2.683   5.535  18.185  0.00  0.00    +0.000 A 
ATOM     23  C   UNL     1       2.601   6.924  18.472  0.00  0.00    +0.000 A 
ATOM     24  C   UNL     1       3.488   7.816  17.814  0.00  0.00    +0.000 A 
ATOM     25  C   UNL     1       4.481   7.358  16.947  0.00  0.00    +0.000 A 
ATOM     26  C   UNL     1       4.587   5.997  16.771  0.00  0.00    +0.000 A 
ATOM     27  C   UNL     1       3.720   5.103  17.360  0.00  0.00    +0.000 A 
ATOM     28  C   UNL     1       4.131   3.731  17.001  0.00  0.00    +0.000 C 
ATOM     29  O   UNL     1       5.286   3.929  16.162  0.00  0.00    +0.000 OA
ATOM     30  C   UNL     1       5.577   5.255  16.001  0.00  0.00    +0.000 C 
ATOM     31  O   UNL     1       6.485   5.722  15.346  0.00  0.00    +0.000 OA
ENDBRANCH  20  23
BRANCH  20  32
ATOM     32  O   UNL     1       2.251   7.035  20.801  0.00  0.00    +0.000 OA
ATOM     33  H   UNL     1       2.005   7.699  21.465  0.00  0.00    +0.000 HD
ENDBRANCH  20  32
ENDBRANCH  19  20
ENDBRANCH   1  19
TORSDOF 5
ENDMDL
MODEL 9
REMARK VINA RESULT:      -7.4      1.004      1.048
REMARK  Name = 
REMARK  6 active torsions:
REMARK  status: ('A' for Active; 'I' for Inactive)
REMARK    1  A    between atoms: C_1  and  C_2
REMARK    2  A    between atoms: C_3  and  C_4
REMARK    3  A    between atoms: C_4  and  O_5
REMARK    4  A    between atoms: C_4  and  C_6
REMARK    5  A    between atoms: C_6  and  N_7
REMARK    6  A    between atoms: N_14  and  C_15
REMARK                            x       y       z     vdW  Elec       q    Type
REMARK                         _______ _______ _______ _____ _____    ______ ____
ROOT
ATOM      1  N   UNL     1       2.122   7.990  19.878  0.00  0.00    +0.000 NA
ATOM      2  C   UNL     1       2.022   8.708  18.601  0.00  0.00    +0.000 C 
ATOM      3  C   UNL     1       0.663   9.361  18.373  0.00  0.00    +0.000 C 
ATOM      4  C   UNL     1       0.171  10.235  19.563  0.00  0.00    +0.000 C 
ATOM      5  C   UNL     1       0.941  11.566  19.714  0.00  0.00    +0.000 C 
ATOM      6  C   UNL     1       0.699  12.518  18.563  0.00  0.00    +0.000 C 
ATOM      7  C   UNL     1      -0.791  12.736  18.421  0.00  0.00    +0.000 C 
ATOM      8  N   UNL     1      -1.512  11.475  18.257  0.00  0.00    +0.000 N 
ATOM      9  C   UNL     1      -1.319  10.482  19.243  0.00  0.00    +0.000 C 
ATOM     10  O   UNL     1      -2.196   9.707  19.604  0.00  0.00    +0.000 OA
ATOM     11  C   UNL     1       0.347   9.439  20.874  0.00  0.00    +0.000 C 
ATOM     12  C   UNL     1       1.775   8.886  20.991  0.00  0.00    +0.000 C 
ENDROOT
BRANCH   8  13
ATOM     13  C   UNL     1      -2.405  11.284  17.208  0.00  0.00    +0.000 C 
ATOM     14  C   UNL     1      -2.142  10.697  16.045  0.00  0.00    +0.000 C 
ATOM     15  C   UNL     1      -3.401  10.569  15.329  0.00  0.00    +0.000 C 
ATOM     16  O   UNL     1      -3.520  10.033  14.241  0.00  0.00    +0.000 OA
ATOM     17  O   UNL     1      -4.404  11.095  16.074  0.00  0.00    +0.000 OA
ATOM     18  C   UNL     1      -3.861  11.590  17.301  0.00  0.00    +0.000 C 
ENDBRANCH   8  13
BRANCH   1  19
ATOM     19  C   UNL     1       1.330   6.743  19.936  0.00  0.00    +0.000 C 
BRANCH  19  20
ATOM     20  C   UNL     1       2.118   5.407  19.937  0.00  0.00    +0.000 C 
BRANCH  20  23
ATOM     21  C   UNL     1       2.005   4.170  17.162  0.00  0.00    +0.000 C 
ATOM     22  C   UNL     1       3.285   4.625  17.809  0.00  0.00    +0.000 A 
ATOM     23  C   UNL     1       3.355   5.290  19.063  0.00  0.00    +0.000 A 
ATOM     24  C   UNL     1       4.617   5.745  19.530  0.00  0.00    +0.000 A 
ATOM     25  C   UNL     1       5.795   5.495  18.825  0.00  0.00    +0.000 A 
ATOM     26  C   UNL     1       5.693   4.763  17.663  0.00  0.00    +0.000 A 
ATOM     27  C   UNL     1       4.484   4.340  17.157  0.00  0.00    +0.000 A 
ATOM     28  C   UNL     1       4.727   3.555  15.930  0.00  0.00    +0.000 C 
ATOM     29  O   UNL     1       6.161   3.580  15.788  0.00  0.00    +0.000 OA
ATOM     30  C   UNL     1       6.759   4.292  16.791  0.00  0.00    +0.000 C 
ATOM     31  O   UNL     1       7.949   4.487  16.927  0.00  0.00    +0.000 OA
ENDBRANCH  20  23
BRANCH  20  32
ATOM     32  O   UNL     1       2.562   5.144  21.278  0.00  0.00    +0.000 OA
ATOM     33  H   UNL     1       3.396   4.649  21.220  0.00  0.00    +0.000 HD
ENDBRANCH  20  32
ENDBRANCH  19  20
ENDBRANCH   1  19
TORSDOF 5
ENDMDL
