MODEL 1
REMARK VINA RESULT:      -6.8      0.000      0.000
REMARK  Name = 
REMARK  5 active torsions:
REMARK  status: ('A' for Active; 'I' for Inactive)
REMARK    1  A    between atoms: C_2  and  C_14
REMARK    2  A    between atoms: N_3  and  N_4
REMARK    3  A    between atoms: C_5  and  C_6
REMARK    4  A    between atoms: C_9  and  N_10
REMARK    5  A    between atoms: C_17  and  O_18
REMARK                            x       y       z     vdW  Elec       q    Type
REMARK                         _______ _______ _______ _____ _____    ______ ____
ROOT
ATOM      1  O   UNL     1       1.446   9.409  19.972  0.00  0.00    +0.000 OA
ATOM      2  C   UNL     1       0.909   9.413  18.867  0.00  0.00    +0.000 C 
ATOM      3  N   UNL     1       1.437   8.813  17.730  0.00  0.00    +0.000 N 
ATOM      4  H   UNL     1       1.025   8.946  16.814  0.00  0.00    +0.000 HD
ENDROOT
BRANCH   2   5
ATOM      5  C   UNL     1      -0.382  10.135  18.711  0.00  0.00    +0.000 A 
ATOM      6  C   UNL     1      -1.151   9.851  17.571  0.00  0.00    +0.000 A 
ATOM      7  C   UNL     1      -2.339  10.541  17.325  0.00  0.00    +0.000 A 
ATOM      8  C   UNL     1      -2.750  11.522  18.218  0.00  0.00    +0.000 A 
ATOM      9  C   UNL     1      -1.999  11.815  19.354  0.00  0.00    +0.000 A 
ATOM     10  C   UNL     1      -0.810  11.125  19.604  0.00  0.00    +0.000 A 
BRANCH   8  11
ATOM     11  O   UNL     1      -3.890  12.239  18.006  0.00  0.00    +0.000 OA
ATOM     12  H   UNL     1      -4.168  12.116  17.084  0.00  0.00    +0.000 HD
ENDBRANCH   8  11
ENDBRANCH   2   5
BRANCH   3  13
ATOM     13  N   UNL     1       2.627   8.158  17.861  0.00  0.00    +0.000 NA
ATOM     14  C   UNL     1       2.611   6.884  18.083  0.00  0.00    +0.000 C 
BRANCH  14  15
ATOM     15  C   UNL     1       3.874   6.191  18.210  0.00  0.00    +0.000 A 
ATOM     16  C   UNL     1       4.388   5.554  19.324  0.00  0.00    +0.000 A 
ATOM     17  C   UNL     1       5.675   4.991  19.086  0.00  0.00    +0.000 A 
ATOM     18  C   UNL     1       6.089   5.224  17.791  0.00  0.00    +0.000 A 
ATOM     19  S   UNL     1       4.945   6.092  16.879  0.00  0.00    +0.000 S 
BRANCH  18  20
ATOM     20  N   UNL     1       7.340   4.809  17.210  0.00  0.00    +0.000 N 
ATOM     21  O   UNL     1       8.180   4.335  17.986  0.00  0.00    +0.000 OA
ATOM     22  O   UNL     1       7.495   4.953  15.989  0.00  0.00    +0.000 OA
ENDBRANCH  18  20
ENDBRANCH  14  15
ENDBRANCH   3  13
TORSDOF 5
ENDMDL
MODEL 2
REMARK VINA RESULT:      -6.8      2.590      3.199
REMARK  Name = 
REMARK  5 active torsions:
REMARK  status: ('A' for Active; 'I' for Inactive)
REMARK    1  A    between atoms: C_2  and  C_14
REMARK    2  A    between atoms: N_3  and  N_4
REMARK    3  A    between atoms: C_5  and  C_6
REMARK    4  A    between atoms: C_9  and  N_10
REMARK    5  A    between atoms: C_17  and  O_18
REMARK                            x       y       z     vdW  Elec       q    Type
REMARK                         _______ _______ _______ _____ _____    ______ ____
ROOT
ATOM      1  O   UNL     1       1.972   9.169  18.058  0.00  0.00    +0.000 OA
ATOM      2  C   UNL     1       1.822   8.520  19.091  0.00  0.00    +0.000 C 
ATOM      3  N   UNL     1       2.278   7.220  19.279  0.00  0.00    +0.000 N 
ATOM      4  H   UNL     1       2.025   6.677  20.097  0.00  0.00    +0.000 HD
ENDROOT
BRANCH   2   5
ATOM      5  C   UNL     1       1.075   9.142  20.216  0.00  0.00    +0.000 A 
ATOM      6  C   UNL     1       0.326  10.297  19.938  0.00  0.00    +0.000 A 
ATOM      7  C   UNL     1      -0.344  10.973  20.959  0.00  0.00    +0.000 A 
ATOM      8  C   UNL     1      -0.252  10.495  22.260  0.00  0.00    +0.000 A 
ATOM      9  C   UNL     1       0.486   9.352  22.552  0.00  0.00    +0.000 A 
ATOM     10  C   UNL     1       1.156   8.671  21.532  0.00  0.00    +0.000 A 
BRANCH   8  11
ATOM     11  O   UNL     1      -0.868  11.137  23.294  0.00  0.00    +0.000 OA
ATOM     12  H   UNL     1      -0.374  10.957  24.110  0.00  0.00    +0.000 HD
ENDBRANCH   8  11
ENDBRANCH   2   5
BRANCH   3  13
ATOM     13  N   UNL     1       2.954   6.636  18.248  0.00  0.00    +0.000 NA
ATOM     14  C   UNL     1       3.907   5.806  18.524  0.00  0.00    +0.000 C 
BRANCH  14  15
ATOM     15  C   UNL     1       4.614   5.179  17.429  0.00  0.00    +0.000 A 
ATOM     16  C   UNL     1       4.647   3.838  17.093  0.00  0.00    +0.000 A 
ATOM     17  C   UNL     1       5.466   3.581  15.956  0.00  0.00    +0.000 A 
ATOM     18  C   UNL     1       6.026   4.743  15.471  0.00  0.00    +0.000 A 
ATOM     19  S   UNL     1       5.563   6.119  16.360  0.00  0.00    +0.000 S 
BRANCH  18  20
ATOM     20  N   UNL     1       6.914   4.855  14.343  0.00  0.00    +0.000 N 
ATOM     21  O   UNL     1       7.899   5.591  14.487  0.00  0.00    +0.000 OA
ATOM     22  O   UNL     1       6.639   4.221  13.315  0.00  0.00    +0.000 OA
ENDBRANCH  18  20
ENDBRANCH  14  15
ENDBRANCH   3  13
TORSDOF 5
ENDMDL
MODEL 3
REMARK VINA RESULT:      -6.7      2.350      2.929
REMARK  Name = 
REMARK  5 active torsions:
REMARK  status: ('A' for Active; 'I' for Inactive)
REMARK    1  A    between atoms: C_2  and  C_14
REMARK    2  A    between atoms: N_3  and  N_4
REMARK    3  A    between atoms: C_5  and  C_6
REMARK    4  A    between atoms: C_9  and  N_10
REMARK    5  A    between atoms: C_17  and  O_18
REMARK                            x       y       z     vdW  Elec       q    Type
REMARK                         _______ _______ _______ _____ _____    ______ ____
ROOT
ATOM      1  O   UNL     1       1.263   9.302  18.657  0.00  0.00    +0.000 OA
ATOM      2  C   UNL     1       1.256   8.864  19.805  0.00  0.00    +0.000 C 
ATOM      3  N   UNL     1       1.979   7.756  20.232  0.00  0.00    +0.000 N 
ATOM      4  H   UNL     1       1.849   7.354  21.154  0.00  0.00    +0.000 HD
ENDROOT
BRANCH   2   5
ATOM      5  C   UNL     1       0.394   9.536  20.814  0.00  0.00    +0.000 A 
ATOM      6  C   UNL     1      -0.244  10.728  20.433  0.00  0.00    +0.000 A 
ATOM      7  C   UNL     1      -1.011  11.448  21.349  0.00  0.00    +0.000 A 
ATOM      8  C   UNL     1      -1.131  10.977  22.650  0.00  0.00    +0.000 A 
ATOM      9  C   UNL     1      -0.506   9.796  23.044  0.00  0.00    +0.000 A 
ATOM     10  C   UNL     1       0.262   9.071  22.128  0.00  0.00    +0.000 A 
BRANCH   8  11
ATOM     11  O   UNL     1      -1.850  11.660  23.586  0.00  0.00    +0.000 OA
ATOM     12  H   UNL     1      -1.474  11.475  24.463  0.00  0.00    +0.000 HD
ENDBRANCH   8  11
ENDBRANCH   2   5
BRANCH   3  13
ATOM     13  N   UNL     1       2.764   7.126  19.311  0.00  0.00    +0.000 NA
ATOM     14  C   UNL     1       2.997   5.862  19.458  0.00  0.00    +0.000 C 
BRANCH  14  15
ATOM     15  C   UNL     1       3.819   5.194  18.473  0.00  0.00    +0.000 A 
ATOM     16  C   UNL     1       3.479   4.125  17.665  0.00  0.00    +0.000 A 
ATOM     17  C   UNL     1       4.553   3.715  16.823  0.00  0.00    +0.000 A 
ATOM     18  C   UNL     1       5.672   4.495  17.025  0.00  0.00    +0.000 A 
ATOM     19  S   UNL     1       5.428   5.704  18.198  0.00  0.00    +0.000 S 
BRANCH  18  20
ATOM     20  N   UNL     1       6.939   4.357  16.356  0.00  0.00    +0.000 N 
ATOM     21  O   UNL     1       6.904   4.251  15.123  0.00  0.00    +0.000 OA
ATOM     22  O   UNL     1       7.969   4.352  17.045  0.00  0.00    +0.000 OA
ENDBRANCH  18  20
ENDBRANCH  14  15
ENDBRANCH   3  13
TORSDOF 5
ENDMDL
MODEL 4
REMARK VINA RESULT:      -6.7      3.164      8.669
REMARK  Name = 
REMARK  5 active torsions:
REMARK  status: ('A' for Active; 'I' for Inactive)
REMARK    1  A    between atoms: C_2  and  C_14
REMARK    2  A    between atoms: N_3  and  N_4
REMARK    3  A    between atoms: C_5  and  C_6
REMARK    4  A    between atoms: C_9  and  N_10
REMARK    5  A    between atoms: C_17  and  O_18
REMARK                            x       y       z     vdW  Elec       q    Type
REMARK                         _______ _______ _______ _____ _____    ______ ____
ROOT
ATOM      1  O   UNL     1       3.995   5.889  19.193  0.00  0.00    +0.000 OA
ATOM      2  C   UNL     1       3.810   6.287  18.045  0.00  0.00    +0.000 C 
ATOM      3  N   UNL     1       2.972   7.341  17.700  0.00  0.00    +0.000 N 
ATOM      4  H   UNL     1       2.751   7.556  16.734  0.00  0.00    +0.000 HD
ENDROOT
BRANCH   2   5
ATOM      5  C   UNL     1       4.498   5.580  16.932  0.00  0.00    +0.000 A 
ATOM      6  C   UNL     1       4.567   4.179  16.995  0.00  0.00    +0.000 A 
ATOM      7  C   UNL     1       5.257   3.456  16.021  0.00  0.00    +0.000 A 
ATOM      8  C   UNL     1       5.887   4.141  14.990  0.00  0.00    +0.000 A 
ATOM      9  C   UNL     1       5.828   5.530  14.912  0.00  0.00    +0.000 A 
ATOM     10  C   UNL     1       5.136   6.257  15.884  0.00  0.00    +0.000 A 
BRANCH   8  11
ATOM     11  O   UNL     1       6.594   3.479  14.030  0.00  0.00    +0.000 OA
ATOM     12  H   UNL     1       7.193   4.108  13.595  0.00  0.00    +0.000 HD
ENDBRANCH   8  11
ENDBRANCH   2   5
BRANCH   3  13
ATOM     13  N   UNL     1       2.327   7.988  18.714  0.00  0.00    +0.000 NA
ATOM     14  C   UNL     1       1.590   9.010  18.425  0.00  0.00    +0.000 C 
BRANCH  14  15
ATOM     15  C   UNL     1       0.897   9.686  19.500  0.00  0.00    +0.000 A 
ATOM     16  C   UNL     1       0.168  10.860  19.438  0.00  0.00    +0.000 A 
ATOM     17  C   UNL     1      -0.362  11.240  20.705  0.00  0.00    +0.000 A 
ATOM     18  C   UNL     1      -0.013  10.334  21.684  0.00  0.00    +0.000 A 
ATOM     19  S   UNL     1       0.925   9.046  21.086  0.00  0.00    +0.000 S 
BRANCH  18  20
ATOM     20  N   UNL     1      -0.365  10.409  23.078  0.00  0.00    +0.000 N 
ATOM     21  O   UNL     1      -1.233  11.238  23.384  0.00  0.00    +0.000 OA
ATOM     22  O   UNL     1       0.215   9.654  23.870  0.00  0.00    +0.000 OA
ENDBRANCH  18  20
ENDBRANCH  14  15
ENDBRANCH   3  13
TORSDOF 5
ENDMDL
MODEL 5
REMARK VINA RESULT:      -6.6      1.488      1.904
REMARK  Name = 
REMARK  5 active torsions:
REMARK  status: ('A' for Active; 'I' for Inactive)
REMARK    1  A    between atoms: C_2  and  C_14
REMARK    2  A    between atoms: N_3  and  N_4
REMARK    3  A    between atoms: C_5  and  C_6
REMARK    4  A    between atoms: C_9  and  N_10
REMARK    5  A    between atoms: C_17  and  O_18
REMARK                            x       y       z     vdW  Elec       q    Type
REMARK                         _______ _______ _______ _____ _____    ______ ____
ROOT
ATOM      1  O   UNL     1       1.850   9.738  17.439  0.00  0.00    +0.000 OA
ATOM      2  C   UNL     1       1.452   9.340  18.530  0.00  0.00    +0.000 C 
ATOM      3  N   UNL     1       1.914   8.195  19.169  0.00  0.00    +0.000 N 
ATOM      4  H   UNL     1       1.472   7.834  20.007  0.00  0.00    +0.000 HD
ENDROOT
BRANCH   2   5
ATOM      5  C   UNL     1       0.377  10.107  19.215  0.00  0.00    +0.000 A 
ATOM      6  C   UNL     1      -0.598  10.719  18.409  0.00  0.00    +0.000 A 
ATOM      7  C   UNL     1      -1.596  11.511  18.979  0.00  0.00    +0.000 A 
ATOM      8  C   UNL     1      -1.609  11.696  20.355  0.00  0.00    +0.000 A 
ATOM      9  C   UNL     1      -0.650  11.096  21.168  0.00  0.00    +0.000 A 
ATOM     10  C   UNL     1       0.349  10.300  20.601  0.00  0.00    +0.000 A 
BRANCH   8  11
ATOM     11  O   UNL     1      -2.549  12.482  20.954  0.00  0.00    +0.000 OA
ATOM     12  H   UNL     1      -2.598  12.246  21.895  0.00  0.00    +0.000 HD
ENDBRANCH   8  11
ENDBRANCH   2   5
BRANCH   3  13
ATOM     13  N   UNL     1       2.892   7.478  18.543  0.00  0.00    +0.000 NA
ATOM     14  C   UNL     1       2.770   6.192  18.476  0.00  0.00    +0.000 C 
BRANCH  14  15
ATOM     15  C   UNL     1       3.802   5.436  17.802  0.00  0.00    +0.000 A 
ATOM     16  C   UNL     1       3.690   4.202  17.188  0.00  0.00    +0.000 A 
ATOM     17  C   UNL     1       4.925   3.752  16.639  0.00  0.00    +0.000 A 
ATOM     18  C   UNL     1       5.932   4.669  16.857  0.00  0.00    +0.000 A 
ATOM     19  S   UNL     1       5.395   6.049  17.696  0.00  0.00    +0.000 S 
BRANCH  18  20
ATOM     20  N   UNL     1       7.307   4.537  16.450  0.00  0.00    +0.000 N 
ATOM     21  O   UNL     1       7.552   4.756  15.256  0.00  0.00    +0.000 OA
ATOM     22  O   UNL     1       8.143   4.217  17.305  0.00  0.00    +0.000 OA
ENDBRANCH  18  20
ENDBRANCH  14  15
ENDBRANCH   3  13
TORSDOF 5
ENDMDL
MODEL 6
REMARK VINA RESULT:      -6.6      2.657      3.224
REMARK  Name = 
REMARK  5 active torsions:
REMARK  status: ('A' for Active; 'I' for Inactive)
REMARK    1  A    between atoms: C_2  and  C_14
REMARK    2  A    between atoms: N_3  and  N_4
REMARK    3  A    between atoms: C_5  and  C_6
REMARK    4  A    between atoms: C_9  and  N_10
REMARK    5  A    between atoms: C_17  and  O_18
REMARK                            x       y       z     vdW  Elec       q    Type
REMARK                         _______ _______ _______ _____ _____    ______ ____
ROOT
ATOM      1  O   UNL     1       1.586   9.033  17.979  0.00  0.00    +0.000 OA
ATOM      2  C   UNL     1       1.584   8.542  19.105  0.00  0.00    +0.000 C 
ATOM      3  N   UNL     1       2.097   7.288  19.420  0.00  0.00    +0.000 N 
ATOM      4  H   UNL     1       1.964   6.869  20.333  0.00  0.00    +0.000 HD
ENDROOT
BRANCH   2   5
ATOM      5  C   UNL     1       0.965   9.315  20.214  0.00  0.00    +0.000 A 
ATOM      6  C   UNL     1       0.816   8.669  21.453  0.00  0.00    +0.000 A 
ATOM      7  C   UNL     1       0.181   9.310  22.517  0.00  0.00    +0.000 A 
ATOM      8  C   UNL     1      -0.313  10.595  22.335  0.00  0.00    +0.000 A 
ATOM      9  C   UNL     1      -0.173  11.250  21.114  0.00  0.00    +0.000 A 
ATOM     10  C   UNL     1       0.464  10.612  20.046  0.00  0.00    +0.000 A 
BRANCH   8  11
ATOM     11  O   UNL     1      -0.963  11.252  23.339  0.00  0.00    +0.000 OA
ATOM     12  H   UNL     1      -1.683  11.776  22.952  0.00  0.00    +0.000 HD
ENDBRANCH   8  11
ENDBRANCH   2   5
BRANCH   3  13
ATOM     13  N   UNL     1       2.657   6.566  18.406  0.00  0.00    +0.000 NA
ATOM     14  C   UNL     1       3.926   6.324  18.448  0.00  0.00    +0.000 C 
BRANCH  14  15
ATOM     15  C   UNL     1       4.515   5.548  17.378  0.00  0.00    +0.000 A 
ATOM     16  C   UNL     1       4.284   4.222  17.061  0.00  0.00    +0.000 A 
ATOM     17  C   UNL     1       5.058   3.784  15.948  0.00  0.00    +0.000 A 
ATOM     18  C   UNL     1       5.849   4.802  15.460  0.00  0.00    +0.000 A 
ATOM     19  S   UNL     1       5.655   6.258  16.319  0.00  0.00    +0.000 S 
BRANCH  18  20
ATOM     20  N   UNL     1       6.764   4.712  14.351  0.00  0.00    +0.000 N 
ATOM     21  O   UNL     1       6.521   3.843  13.504  0.00  0.00    +0.000 OA
ATOM     22  O   UNL     1       7.723   5.496  14.317  0.00  0.00    +0.000 OA
ENDBRANCH  18  20
ENDBRANCH  14  15
ENDBRANCH   3  13
TORSDOF 5
ENDMDL
MODEL 7
REMARK VINA RESULT:      -6.6      0.777      1.290
REMARK  Name = 
REMARK  5 active torsions:
REMARK  status: ('A' for Active; 'I' for Inactive)
REMARK    1  A    between atoms: C_2  and  C_14
REMARK    2  A    between atoms: N_3  and  N_4
REMARK    3  A    between atoms: C_5  and  C_6
REMARK    4  A    between atoms: C_9  and  N_10
REMARK    5  A    between atoms: C_17  and  O_18
REMARK                            x       y       z     vdW  Elec       q    Type
REMARK                         _______ _______ _______ _____ _____    ______ ____
ROOT
ATOM      1  O   UNL     1       2.333  10.489  17.999  0.00  0.00    +0.000 OA
ATOM      2  C   UNL     1       1.348   9.781  18.193  0.00  0.00    +0.000 C 
ATOM      3  N   UNL     1       1.390   8.403  18.379  0.00  0.00    +0.000 N 
ATOM      4  H   UNL     1       0.548   7.841  18.411  0.00  0.00    +0.000 HD
ENDROOT
BRANCH   2   5
ATOM      5  C   UNL     1       0.006  10.421  18.201  0.00  0.00    +0.000 A 
ATOM      6  C   UNL     1      -0.141  11.614  18.928  0.00  0.00    +0.000 A 
ATOM      7  C   UNL     1      -1.387  12.232  19.036  0.00  0.00    +0.000 A 
ATOM      8  C   UNL     1      -2.487  11.648  18.423  0.00  0.00    +0.000 A 
ATOM      9  C   UNL     1      -2.360  10.465  17.698  0.00  0.00    +0.000 A 
ATOM     10  C   UNL     1      -1.113   9.845  17.586  0.00  0.00    +0.000 A 
BRANCH   8  11
ATOM     11  O   UNL     1      -3.730  12.202  18.523  0.00  0.00    +0.000 OA
ATOM     12  H   UNL     1      -3.635  13.165  18.607  0.00  0.00    +0.000 HD
ENDBRANCH   8  11
ENDBRANCH   2   5
BRANCH   3  13
ATOM     13  N   UNL     1       2.617   7.805  18.361  0.00  0.00    +0.000 NA
ATOM     14  C   UNL     1       2.676   6.521  18.224  0.00  0.00    +0.000 C 
BRANCH  14  15
ATOM     15  C   UNL     1       3.978   5.891  18.193  0.00  0.00    +0.000 A 
ATOM     16  C   UNL     1       4.667   5.307  19.241  0.00  0.00    +0.000 A 
ATOM     17  C   UNL     1       5.937   4.800  18.843  0.00  0.00    +0.000 A 
ATOM     18  C   UNL     1       6.164   5.018  17.501  0.00  0.00    +0.000 A 
ATOM     19  S   UNL     1       4.866   5.808  16.733  0.00  0.00    +0.000 S 
BRANCH  18  20
ATOM     20  N   UNL     1       7.345   4.648  16.764  0.00  0.00    +0.000 N 
ATOM     21  O   UNL     1       8.278   4.169  17.423  0.00  0.00    +0.000 OA
ATOM     22  O   UNL     1       7.353   4.830  15.540  0.00  0.00    +0.000 OA
ENDBRANCH  18  20
ENDBRANCH  14  15
ENDBRANCH   3  13
TORSDOF 5
ENDMDL
MODEL 8
REMARK VINA RESULT:      -6.6      2.297      2.819
REMARK  Name = 
REMARK  5 active torsions:
REMARK  status: ('A' for Active; 'I' for Inactive)
REMARK    1  A    between atoms: C_2  and  C_14
REMARK    2  A    between atoms: N_3  and  N_4
REMARK    3  A    between atoms: C_5  and  C_6
REMARK    4  A    between atoms: C_9  and  N_10
REMARK    5  A    between atoms: C_17  and  O_18
REMARK                            x       y       z     vdW  Elec       q    Type
REMARK                         _______ _______ _______ _____ _____    ______ ____
ROOT
ATOM      1  O   UNL     1       1.396   9.741  18.400  0.00  0.00    +0.000 OA
ATOM      2  C   UNL     1       1.304   9.191  19.495  0.00  0.00    +0.000 C 
ATOM      3  N   UNL     1       1.893   7.975  19.820  0.00  0.00    +0.000 N 
ATOM      4  H   UNL     1       1.690   7.497  20.691  0.00  0.00    +0.000 HD
ENDROOT
BRANCH   2   5
ATOM      5  C   UNL     1       0.481   9.845  20.548  0.00  0.00    +0.000 A 
ATOM      6  C   UNL     1       0.343   9.174  21.774  0.00  0.00    +0.000 A 
ATOM      7  C   UNL     1      -0.470   9.694  22.782  0.00  0.00    +0.000 A 
ATOM      8  C   UNL     1      -1.151  10.883  22.555  0.00  0.00    +0.000 A 
ATOM      9  C   UNL     1      -1.025  11.561  21.345  0.00  0.00    +0.000 A 
ATOM     10  C   UNL     1      -0.210  11.044  20.334  0.00  0.00    +0.000 A 
BRANCH   8  11
ATOM     11  O   UNL     1      -1.977  11.417  23.500  0.00  0.00    +0.000 OA
ATOM     12  H   UNL     1      -1.452  11.985  24.087  0.00  0.00    +0.000 HD
ENDBRANCH   8  11
ENDBRANCH   2   5
BRANCH   3  13
ATOM     13  N   UNL     1       2.640   7.362  18.856  0.00  0.00    +0.000 NA
ATOM     14  C   UNL     1       3.158   6.206  19.117  0.00  0.00    +0.000 C 
BRANCH  14  15
ATOM     15  C   UNL     1       3.939   5.553  18.090  0.00  0.00    +0.000 A 
ATOM     16  C   UNL     1       3.656   4.375  17.424  0.00  0.00    +0.000 A 
ATOM     17  C   UNL     1       4.666   4.023  16.483  0.00  0.00    +0.000 A 
ATOM     18  C   UNL     1       5.682   4.955  16.470  0.00  0.00    +0.000 A 
ATOM     19  S   UNL     1       5.418   6.234  17.563  0.00  0.00    +0.000 S 
BRANCH  18  20
ATOM     20  N   UNL     1       6.866   4.914  15.652  0.00  0.00    +0.000 N 
ATOM     21  O   UNL     1       7.886   4.449  16.180  0.00  0.00    +0.000 OA
ATOM     22  O   UNL     1       6.792   5.340  14.492  0.00  0.00    +0.000 OA
ENDBRANCH  18  20
ENDBRANCH  14  15
ENDBRANCH   3  13
TORSDOF 5
ENDMDL
MODEL 9
REMARK VINA RESULT:      -6.6      5.972      8.008
REMARK  Name = 
REMARK  5 active torsions:
REMARK  status: ('A' for Active; 'I' for Inactive)
REMARK    1  A    between atoms: C_2  and  C_14
REMARK    2  A    between atoms: N_3  and  N_4
REMARK    3  A    between atoms: C_5  and  C_6
REMARK    4  A    between atoms: C_9  and  N_10
REMARK    5  A    between atoms: C_17  and  O_18
REMARK                            x       y       z     vdW  Elec       q    Type
REMARK                         _______ _______ _______ _____ _____    ______ ____
ROOT
ATOM      1  O   UNL     1       8.707   7.881  19.030  0.00  0.00    +0.000 OA
ATOM      2  C   UNL     1       8.345   8.802  18.303  0.00  0.00    +0.000 C 
ATOM      3  N   UNL     1       7.438   8.674  17.257  0.00  0.00    +0.000 N 
ATOM      4  H   UNL     1       7.261   9.429  16.605  0.00  0.00    +0.000 HD
ENDROOT
BRANCH   2   5
ATOM      5  C   UNL     1       8.933  10.151  18.523  0.00  0.00    +0.000 A 
ATOM      6  C   UNL     1       9.692  10.347  19.688  0.00  0.00    +0.000 A 
ATOM      7  C   UNL     1      10.215  11.604  19.993  0.00  0.00    +0.000 A 
ATOM      8  C   UNL     1       9.969  12.666  19.133  0.00  0.00    +0.000 A 
ATOM      9  C   UNL     1       9.219  12.489  17.973  0.00  0.00    +0.000 A 
ATOM     10  C   UNL     1       8.694  11.231  17.663  0.00  0.00    +0.000 A 
BRANCH   8  11
ATOM     11  O   UNL     1      10.438  13.918  19.402  0.00  0.00    +0.000 OA
ATOM     12  H   UNL     1      11.303  13.839  19.838  0.00  0.00    +0.000 HD
ENDBRANCH   8  11
ENDBRANCH   2   5
BRANCH   3  13
ATOM     13  N   UNL     1       6.902   7.437  17.040  0.00  0.00    +0.000 NA
ATOM     14  C   UNL     1       5.686   7.215  17.422  0.00  0.00    +0.000 C 
BRANCH  14  15
ATOM     15  C   UNL     1       5.116   5.908  17.180  0.00  0.00    +0.000 A 
ATOM     16  C   UNL     1       5.550   4.940  16.292  0.00  0.00    +0.000 A 
ATOM     17  C   UNL     1       4.730   3.776  16.309  0.00  0.00    +0.000 A 
ATOM     18  C   UNL     1       3.700   3.905  17.217  0.00  0.00    +0.000 A 
ATOM     19  S   UNL     1       3.728   5.396  18.038  0.00  0.00    +0.000 S 
BRANCH  18  20
ATOM     20  N   UNL     1       2.676   2.929  17.488  0.00  0.00    +0.000 N 
ATOM     21  O   UNL     1       3.062   1.778  17.733  0.00  0.00    +0.000 OA
ATOM     22  O   UNL     1       1.494   3.296  17.459  0.00  0.00    +0.000 OA
ENDBRANCH  18  20
ENDBRANCH  14  15
ENDBRANCH   3  13
TORSDOF 5
ENDMDL
