MODEL 1
REMARK VINA RESULT:      -7.8      0.000      0.000
REMARK  Name = 
REMARK  6 active torsions:
REMARK  status: ('A' for Active; 'I' for Inactive)
REMARK    1  A    between atoms: C_1  and  O_2
REMARK    2  A    between atoms: O_2  and  C_3
REMARK    3  A    between atoms: C_9  and  C_10
REMARK    4  A    between atoms: C_10  and  O_12
REMARK    5  A    between atoms: O_12  and  C_13
REMARK    6  A    between atoms: C_13  and  C_14
REMARK                            x       y       z     vdW  Elec       q    Type
REMARK                         _______ _______ _______ _____ _____    ______ ____
ROOT
ATOM      1  C   UNL     1       5.630   3.431  12.374  0.00  0.00    +0.000 A 
ATOM      2  C   UNL     1       6.910   3.845  12.018  0.00  0.00    +0.000 A 
ATOM      3  C   UNL     1       7.693   4.611  12.894  0.00  0.00    +0.000 A 
ATOM      4  C   UNL     1       7.145   4.949  14.137  0.00  0.00    +0.000 A 
ATOM      5  N   UNL     1       7.681   5.686  15.167  0.00  0.00    +0.000 N 
ATOM      6  C   UNL     1       6.795   5.756  16.205  0.00  0.00    +0.000 A 
ATOM      7  C   UNL     1       5.656   5.040  15.868  0.00  0.00    +0.000 A 
ATOM      8  C   UNL     1       5.870   4.542  14.538  0.00  0.00    +0.000 A 
ATOM      9  C   UNL     1       5.114   3.766  13.632  0.00  0.00    +0.000 A 
ATOM     10  H   UNL     1       8.602   6.103  15.156  0.00  0.00    +0.000 HD
ENDROOT
BRANCH   1  12
ATOM     11  C   UNL     1       3.771   3.397  10.892  0.00  0.00    +0.000 C 
ATOM     12  O   UNL     1       4.780   2.688  11.600  0.00  0.00    +0.000 OA
ENDBRANCH   1  12
BRANCH   7  13
ATOM     13  C   UNL     1       4.526   4.836  16.773  0.00  0.00    +0.000 C 
ATOM     14  O   UNL     1       3.708   5.711  17.029  0.00  0.00    +0.000 OA
BRANCH  13  15
ATOM     15  O   UNL     1       4.532   3.601  17.356  0.00  0.00    +0.000 OA
BRANCH  15  16
ATOM     16  C   UNL     1       4.633   3.570  18.785  0.00  0.00    +0.000 C 
BRANCH  16  17
ATOM     17  C   UNL     1       3.270   3.493  19.482  0.00  0.00    +0.000 C 
ATOM     18  C   UNL     1       2.157   2.936  18.567  0.00  0.00    +0.000 C 
ATOM     19  C   UNL     1       0.843   2.823  19.361  0.00  0.00    +0.000 C 
ATOM     20  N   UNL     1       0.995   3.295  20.752  0.00  0.00    +0.000 NA
ATOM     21  C   UNL     1       1.447   4.702  20.733  0.00  0.00    +0.000 C 
ATOM     22  C   UNL     1       2.783   4.868  19.989  0.00  0.00    +0.000 C 
ATOM     23  C   UNL     1       2.019   2.475  21.427  0.00  0.00    +0.000 C 
ATOM     24  C   UNL     1       3.371   2.554  20.707  0.00  0.00    +0.000 C 
ENDBRANCH  16  17
ENDBRANCH  15  16
ENDBRANCH  13  15
ENDBRANCH   7  13
TORSDOF 5
ENDMDL
MODEL 2
REMARK VINA RESULT:      -7.7      0.210      1.241
REMARK  Name = 
REMARK  6 active torsions:
REMARK  status: ('A' for Active; 'I' for Inactive)
REMARK    1  A    between atoms: C_1  and  O_2
REMARK    2  A    between atoms: O_2  and  C_3
REMARK    3  A    between atoms: C_9  and  C_10
REMARK    4  A    between atoms: C_10  and  O_12
REMARK    5  A    between atoms: O_12  and  C_13
REMARK    6  A    between atoms: C_13  and  C_14
REMARK                            x       y       z     vdW  Elec       q    Type
REMARK                         _______ _______ _______ _____ _____    ______ ____
ROOT
ATOM      1  C   UNL     1       5.821   3.500  12.523  0.00  0.00    +0.000 A 
ATOM      2  C   UNL     1       7.097   3.977  12.234  0.00  0.00    +0.000 A 
ATOM      3  C   UNL     1       7.795   4.776  13.150  0.00  0.00    +0.000 A 
ATOM      4  C   UNL     1       7.169   5.083  14.364  0.00  0.00    +0.000 A 
ATOM      5  N   UNL     1       7.616   5.840  15.421  0.00  0.00    +0.000 N 
ATOM      6  C   UNL     1       6.675   5.863  16.413  0.00  0.00    +0.000 A 
ATOM      7  C   UNL     1       5.591   5.094  16.017  0.00  0.00    +0.000 A 
ATOM      8  C   UNL     1       5.897   4.613  14.699  0.00  0.00    +0.000 A 
ATOM      9  C   UNL     1       5.226   3.805  13.754  0.00  0.00    +0.000 A 
ATOM     10  H   UNL     1       8.515   6.301  15.457  0.00  0.00    +0.000 HD
ENDROOT
BRANCH   1  12
ATOM     11  C   UNL     1       3.876   3.318  11.169  0.00  0.00    +0.000 C 
ATOM     12  O   UNL     1       5.049   2.720  11.705  0.00  0.00    +0.000 OA
ENDBRANCH   1  12
BRANCH   7  13
ATOM     13  C   UNL     1       4.428   4.832  16.863  0.00  0.00    +0.000 C 
ATOM     14  O   UNL     1       3.565   5.672  17.089  0.00  0.00    +0.000 OA
BRANCH  13  15
ATOM     15  O   UNL     1       4.455   3.590  17.428  0.00  0.00    +0.000 OA
BRANCH  15  16
ATOM     16  C   UNL     1       4.581   3.541  18.855  0.00  0.00    +0.000 C 
BRANCH  16  17
ATOM     17  C   UNL     1       3.232   3.438  19.575  0.00  0.00    +0.000 C 
ATOM     18  C   UNL     1       2.669   4.813  19.998  0.00  0.00    +0.000 C 
ATOM     19  C   UNL     1       1.285   4.629  20.645  0.00  0.00    +0.000 C 
ATOM     20  N   UNL     1       0.889   3.207  20.709  0.00  0.00    +0.000 NA
ATOM     21  C   UNL     1       1.905   2.461  21.482  0.00  0.00    +0.000 C 
ATOM     22  C   UNL     1       3.304   2.574  20.853  0.00  0.00    +0.000 C 
ATOM     23  C   UNL     1       0.839   2.662  19.339  0.00  0.00    +0.000 C 
ATOM     24  C   UNL     1       2.194   2.787  18.631  0.00  0.00    +0.000 C 
ENDBRANCH  16  17
ENDBRANCH  15  16
ENDBRANCH  13  15
ENDBRANCH   7  13
TORSDOF 5
ENDMDL
MODEL 3
REMARK VINA RESULT:      -7.6      0.840      1.558
REMARK  Name = 
REMARK  6 active torsions:
REMARK  status: ('A' for Active; 'I' for Inactive)
REMARK    1  A    between atoms: C_1  and  O_2
REMARK    2  A    between atoms: O_2  and  C_3
REMARK    3  A    between atoms: C_9  and  C_10
REMARK    4  A    between atoms: C_10  and  O_12
REMARK    5  A    between atoms: O_12  and  C_13
REMARK    6  A    between atoms: C_13  and  C_14
REMARK                            x       y       z     vdW  Elec       q    Type
REMARK                         _______ _______ _______ _____ _____    ______ ____
ROOT
ATOM      1  C   UNL     1       6.031   3.449  12.379  0.00  0.00    +0.000 A 
ATOM      2  C   UNL     1       7.197   4.154  12.094  0.00  0.00    +0.000 A 
ATOM      3  C   UNL     1       7.799   4.975  13.058  0.00  0.00    +0.000 A 
ATOM      4  C   UNL     1       7.189   5.067  14.315  0.00  0.00    +0.000 A 
ATOM      5  N   UNL     1       7.557   5.793  15.423  0.00  0.00    +0.000 N 
ATOM      6  C   UNL     1       6.673   5.573  16.443  0.00  0.00    +0.000 A 
ATOM      7  C   UNL     1       5.710   4.672  16.012  0.00  0.00    +0.000 A 
ATOM      8  C   UNL     1       6.028   4.365  14.646  0.00  0.00    +0.000 A 
ATOM      9  C   UNL     1       5.453   3.542  13.652  0.00  0.00    +0.000 A 
ATOM     10  H   UNL     1       8.369   6.391  15.474  0.00  0.00    +0.000 HD
ENDROOT
BRANCH   1  12
ATOM     11  C   UNL     1       5.939   1.355  11.257  0.00  0.00    +0.000 C 
ATOM     12  O   UNL     1       5.357   2.625  11.517  0.00  0.00    +0.000 OA
ENDBRANCH   1  12
BRANCH   7  13
ATOM     13  C   UNL     1       4.647   4.148  16.867  0.00  0.00    +0.000 C 
ATOM     14  O   UNL     1       3.572   3.755  16.430  0.00  0.00    +0.000 OA
BRANCH  13  15
ATOM     15  O   UNL     1       4.952   4.220  18.196  0.00  0.00    +0.000 OA
BRANCH  15  16
ATOM     16  C   UNL     1       4.599   3.084  18.995  0.00  0.00    +0.000 C 
BRANCH  16  17
ATOM     17  C   UNL     1       3.248   3.241  19.700  0.00  0.00    +0.000 C 
ATOM     18  C   UNL     1       3.221   2.591  21.101  0.00  0.00    +0.000 C 
ATOM     19  C   UNL     1       1.860   2.856  21.769  0.00  0.00    +0.000 C 
ATOM     20  N   UNL     1       0.953   3.624  20.891  0.00  0.00    +0.000 NA
ATOM     21  C   UNL     1       0.756   2.873  19.633  0.00  0.00    +0.000 C 
ATOM     22  C   UNL     1       2.083   2.619  18.899  0.00  0.00    +0.000 C 
ATOM     23  C   UNL     1       1.578   4.922  20.576  0.00  0.00    +0.000 C 
ATOM     24  C   UNL     1       2.935   4.745  19.884  0.00  0.00    +0.000 C 
ENDBRANCH  16  17
ENDBRANCH  15  16
ENDBRANCH  13  15
ENDBRANCH   7  13
TORSDOF 5
ENDMDL
MODEL 4
REMARK VINA RESULT:      -7.4      0.635      1.475
REMARK  Name = 
REMARK  6 active torsions:
REMARK  status: ('A' for Active; 'I' for Inactive)
REMARK    1  A    between atoms: C_1  and  O_2
REMARK    2  A    between atoms: O_2  and  C_3
REMARK    3  A    between atoms: C_9  and  C_10
REMARK    4  A    between atoms: C_10  and  O_12
REMARK    5  A    between atoms: O_12  and  C_13
REMARK    6  A    between atoms: C_13  and  C_14
REMARK                            x       y       z     vdW  Elec       q    Type
REMARK                         _______ _______ _______ _____ _____    ______ ____
ROOT
ATOM      1  C   UNL     1       5.253   3.428  12.255  0.00  0.00    +0.000 A 
ATOM      2  C   UNL     1       6.560   3.637  11.824  0.00  0.00    +0.000 A 
ATOM      3  C   UNL     1       7.494   4.295  12.638  0.00  0.00    +0.000 A 
ATOM      4  C   UNL     1       7.069   4.738  13.896  0.00  0.00    +0.000 A 
ATOM      5  N   UNL     1       7.763   5.407  14.876  0.00  0.00    +0.000 N 
ATOM      6  C   UNL     1       6.954   5.632  15.955  0.00  0.00    +0.000 A 
ATOM      7  C   UNL     1       5.705   5.088  15.696  0.00  0.00    +0.000 A 
ATOM      8  C   UNL     1       5.772   4.536  14.372  0.00  0.00    +0.000 A 
ATOM      9  C   UNL     1       4.860   3.863  13.527  0.00  0.00    +0.000 A 
ATOM     10  H   UNL     1       8.734   5.680  14.808  0.00  0.00    +0.000 HD
ENDROOT
BRANCH   1  12
ATOM     11  C   UNL     1       3.606   3.576  10.547  0.00  0.00    +0.000 C 
ATOM     12  O   UNL     1       4.262   2.805  11.546  0.00  0.00    +0.000 OA
ENDBRANCH   1  12
BRANCH   7  13
ATOM     13  C   UNL     1       4.607   5.075  16.661  0.00  0.00    +0.000 C 
ATOM     14  O   UNL     1       4.120   6.096  17.131  0.00  0.00    +0.000 OA
BRANCH  13  15
ATOM     15  O   UNL     1       4.247   3.813  17.035  0.00  0.00    +0.000 OA
BRANCH  15  16
ATOM     16  C   UNL     1       2.843   3.568  17.189  0.00  0.00    +0.000 C 
BRANCH  16  17
ATOM     17  C   UNL     1       2.412   3.439  18.654  0.00  0.00    +0.000 C 
ATOM     18  C   UNL     1       3.515   2.840  19.555  0.00  0.00    +0.000 C 
ATOM     19  C   UNL     1       3.032   2.812  21.016  0.00  0.00    +0.000 C 
ATOM     20  N   UNL     1       1.656   3.334  21.153  0.00  0.00    +0.000 NA
ATOM     21  C   UNL     1       0.750   2.523  20.312  0.00  0.00    +0.000 C 
ATOM     22  C   UNL     1       1.162   2.551  18.831  0.00  0.00    +0.000 C 
ATOM     23  C   UNL     1       1.624   4.730  20.678  0.00  0.00    +0.000 C 
ATOM     24  C   UNL     1       2.072   4.840  19.215  0.00  0.00    +0.000 C 
ENDBRANCH  16  17
ENDBRANCH  15  16
ENDBRANCH  13  15
ENDBRANCH   7  13
TORSDOF 5
ENDMDL
MODEL 5
REMARK VINA RESULT:      -7.3      0.955      1.721
REMARK  Name = 
REMARK  6 active torsions:
REMARK  status: ('A' for Active; 'I' for Inactive)
REMARK    1  A    between atoms: C_1  and  O_2
REMARK    2  A    between atoms: O_2  and  C_3
REMARK    3  A    between atoms: C_9  and  C_10
REMARK    4  A    between atoms: C_10  and  O_12
REMARK    5  A    between atoms: O_12  and  C_13
REMARK    6  A    between atoms: C_13  and  C_14
REMARK                            x       y       z     vdW  Elec       q    Type
REMARK                         _______ _______ _______ _____ _____    ______ ____
ROOT
ATOM      1  C   UNL     1       6.051   3.304  12.214  0.00  0.00    +0.000 A 
ATOM      2  C   UNL     1       7.110   4.105  11.796  0.00  0.00    +0.000 A 
ATOM      3  C   UNL     1       7.742   4.988  12.683  0.00  0.00    +0.000 A 
ATOM      4  C   UNL     1       7.272   5.043  14.001  0.00  0.00    +0.000 A 
ATOM      5  N   UNL     1       7.696   5.813  15.058  0.00  0.00    +0.000 N 
ATOM      6  C   UNL     1       6.955   5.531  16.172  0.00  0.00    +0.000 A 
ATOM      7  C   UNL     1       6.034   4.543  15.855  0.00  0.00    +0.000 A 
ATOM      8  C   UNL     1       6.221   4.247  14.463  0.00  0.00    +0.000 A 
ATOM      9  C   UNL     1       5.613   3.363  13.543  0.00  0.00    +0.000 A 
ATOM     10  H   UNL     1       8.453   6.481  15.014  0.00  0.00    +0.000 HD
ENDROOT
BRANCH   1  12
ATOM     11  C   UNL     1       5.969   1.148  11.215  0.00  0.00    +0.000 C 
ATOM     12  O   UNL     1       5.360   2.413  11.436  0.00  0.00    +0.000 OA
ENDBRANCH   1  12
BRANCH   7  13
ATOM     13  C   UNL     1       5.123   3.940  16.827  0.00  0.00    +0.000 C 
ATOM     14  O   UNL     1       4.626   2.830  16.675  0.00  0.00    +0.000 OA
BRANCH  13  15
ATOM     15  O   UNL     1       4.831   4.774  17.867  0.00  0.00    +0.000 OA
BRANCH  15  16
ATOM     16  C   UNL     1       3.475   5.226  17.961  0.00  0.00    +0.000 C 
BRANCH  16  17
ATOM     17  C   UNL     1       2.627   4.391  18.927  0.00  0.00    +0.000 C 
ATOM     18  C   UNL     1       1.773   5.256  19.881  0.00  0.00    +0.000 C 
ATOM     19  C   UNL     1       0.901   4.346  20.764  0.00  0.00    +0.000 C 
ATOM     20  N   UNL     1       1.134   2.915  20.483  0.00  0.00    +0.000 NA
ATOM     21  C   UNL     1       2.563   2.609  20.708  0.00  0.00    +0.000 C 
ATOM     22  C   UNL     1       3.481   3.461  19.815  0.00  0.00    +0.000 C 
ATOM     23  C   UNL     1       0.807   2.645  19.070  0.00  0.00    +0.000 C 
ATOM     24  C   UNL     1       1.655   3.499  18.119  0.00  0.00    +0.000 C 
ENDBRANCH  16  17
ENDBRANCH  15  16
ENDBRANCH  13  15
ENDBRANCH   7  13
TORSDOF 5
ENDMDL
MODEL 6
REMARK VINA RESULT:      -7.3      2.332      6.903
REMARK  Name = 
REMARK  6 active torsions:
REMARK  status: ('A' for Active; 'I' for Inactive)
REMARK    1  A    between atoms: C_1  and  O_2
REMARK    2  A    between atoms: O_2  and  C_3
REMARK    3  A    between atoms: C_9  and  C_10
REMARK    4  A    between atoms: C_10  and  O_12
REMARK    5  A    between atoms: O_12  and  C_13
REMARK    6  A    between atoms: C_13  and  C_14
REMARK                            x       y       z     vdW  Elec       q    Type
REMARK                         _______ _______ _______ _____ _____    ______ ____
ROOT
ATOM      1  C   UNL     1       2.154   7.477  18.686  0.00  0.00    +0.000 A 
ATOM      2  C   UNL     1       1.903   7.797  20.018  0.00  0.00    +0.000 A 
ATOM      3  C   UNL     1       1.774   6.796  20.990  0.00  0.00    +0.000 A 
ATOM      4  C   UNL     1       1.901   5.463  20.581  0.00  0.00    +0.000 A 
ATOM      5  N   UNL     1       1.812   4.303  21.313  0.00  0.00    +0.000 N 
ATOM      6  C   UNL     1       2.016   3.220  20.503  0.00  0.00    +0.000 A 
ATOM      7  C   UNL     1       2.261   3.668  19.214  0.00  0.00    +0.000 A 
ATOM      8  C   UNL     1       2.166   5.100  19.259  0.00  0.00    +0.000 A 
ATOM      9  C   UNL     1       2.297   6.136  18.307  0.00  0.00    +0.000 A 
ATOM     10  H   UNL     1       1.634   4.263  22.307  0.00  0.00    +0.000 HD
ENDROOT
BRANCH   1  12
ATOM     11  C   UNL     1       1.714   9.653  17.837  0.00  0.00    +0.000 C 
ATOM     12  O   UNL     1       2.294   8.368  17.656  0.00  0.00    +0.000 OA
ENDBRANCH   1  12
BRANCH   7  13
ATOM     13  C   UNL     1       2.597   2.786  18.097  0.00  0.00    +0.000 C 
ATOM     14  O   UNL     1       1.814   1.963  17.637  0.00  0.00    +0.000 OA
BRANCH  13  15
ATOM     15  O   UNL     1       3.890   2.926  17.684  0.00  0.00    +0.000 OA
BRANCH  15  16
ATOM     16  C   UNL     1       4.091   3.587  16.428  0.00  0.00    +0.000 C 
BRANCH  16  17
ATOM     17  C   UNL     1       5.326   4.496  16.418  0.00  0.00    +0.000 C 
ATOM     18  C   UNL     1       4.966   5.998  16.408  0.00  0.00    +0.000 C 
ATOM     19  C   UNL     1       6.254   6.839  16.473  0.00  0.00    +0.000 C 
ATOM     20  N   UNL     1       7.465   5.994  16.500  0.00  0.00    +0.000 NA
ATOM     21  C   UNL     1       7.483   5.145  15.290  0.00  0.00    +0.000 C 
ATOM     22  C   UNL     1       6.237   4.248  15.197  0.00  0.00    +0.000 C 
ATOM     23  C   UNL     1       7.416   5.124  17.690  0.00  0.00    +0.000 C 
ATOM     24  C   UNL     1       6.168   4.233  17.689  0.00  0.00    +0.000 C 
ENDBRANCH  16  17
ENDBRANCH  15  16
ENDBRANCH  13  15
ENDBRANCH   7  13
TORSDOF 5
ENDMDL
MODEL 7
REMARK VINA RESULT:      -7.3      2.400      6.905
REMARK  Name = 
REMARK  6 active torsions:
REMARK  status: ('A' for Active; 'I' for Inactive)
REMARK    1  A    between atoms: C_1  and  O_2
REMARK    2  A    between atoms: O_2  and  C_3
REMARK    3  A    between atoms: C_9  and  C_10
REMARK    4  A    between atoms: C_10  and  O_12
REMARK    5  A    between atoms: O_12  and  C_13
REMARK    6  A    between atoms: C_13  and  C_14
REMARK                            x       y       z     vdW  Elec       q    Type
REMARK                         _______ _______ _______ _____ _____    ______ ____
ROOT
ATOM      1  C   UNL     1       2.178   7.483  18.663  0.00  0.00    +0.000 A 
ATOM      2  C   UNL     1       1.888   7.821  19.982  0.00  0.00    +0.000 A 
ATOM      3  C   UNL     1       1.730   6.832  20.963  0.00  0.00    +0.000 A 
ATOM      4  C   UNL     1       1.868   5.494  20.575  0.00  0.00    +0.000 A 
ATOM      5  N   UNL     1       1.757   4.344  21.319  0.00  0.00    +0.000 N 
ATOM      6  C   UNL     1       1.984   3.250  20.529  0.00  0.00    +0.000 A 
ATOM      7  C   UNL     1       2.267   3.681  19.242  0.00  0.00    +0.000 A 
ATOM      8  C   UNL     1       2.172   5.114  19.266  0.00  0.00    +0.000 A 
ATOM      9  C   UNL     1       2.331   6.138  18.305  0.00  0.00    +0.000 A 
ATOM     10  H   UNL     1       1.550   4.317  22.308  0.00  0.00    +0.000 HD
ENDROOT
BRANCH   1  12
ATOM     11  C   UNL     1       1.946   9.706  17.851  0.00  0.00    +0.000 C 
ATOM     12  O   UNL     1       2.348   8.361  17.626  0.00  0.00    +0.000 OA
ENDBRANCH   1  12
BRANCH   7  13
ATOM     13  C   UNL     1       2.634   2.785  18.147  0.00  0.00    +0.000 C 
ATOM     14  O   UNL     1       1.839   2.020  17.615  0.00  0.00    +0.000 OA
BRANCH  13  15
ATOM     15  O   UNL     1       3.964   2.839  17.843  0.00  0.00    +0.000 OA
BRANCH  15  16
ATOM     16  C   UNL     1       4.301   3.307  16.531  0.00  0.00    +0.000 C 
BRANCH  16  17
ATOM     17  C   UNL     1       5.421   4.353  16.535  0.00  0.00    +0.000 C 
ATOM     18  C   UNL     1       6.299   4.290  17.805  0.00  0.00    +0.000 C 
ATOM     19  C   UNL     1       7.439   5.319  17.697  0.00  0.00    +0.000 C 
ATOM     20  N   UNL     1       7.369   6.093  16.441  0.00  0.00    +0.000 NA
ATOM     21  C   UNL     1       6.064   6.785  16.377  0.00  0.00    +0.000 C 
ATOM     22  C   UNL     1       4.886   5.798  16.435  0.00  0.00    +0.000 C 
ATOM     23  C   UNL     1       7.470   5.163  15.300  0.00  0.00    +0.000 C 
ATOM     24  C   UNL     1       6.350   4.116  15.321  0.00  0.00    +0.000 C 
ENDBRANCH  16  17
ENDBRANCH  15  16
ENDBRANCH  13  15
ENDBRANCH   7  13
TORSDOF 5
ENDMDL
MODEL 8
REMARK VINA RESULT:      -7.3      3.188      6.555
REMARK  Name = 
REMARK  6 active torsions:
REMARK  status: ('A' for Active; 'I' for Inactive)
REMARK    1  A    between atoms: C_1  and  O_2
REMARK    2  A    between atoms: O_2  and  C_3
REMARK    3  A    between atoms: C_9  and  C_10
REMARK    4  A    between atoms: C_10  and  O_12
REMARK    5  A    between atoms: O_12  and  C_13
REMARK    6  A    between atoms: C_13  and  C_14
REMARK                            x       y       z     vdW  Elec       q    Type
REMARK                         _______ _______ _______ _____ _____    ______ ____
ROOT
ATOM      1  C   UNL     1       1.738   3.412  18.641  0.00  0.00    +0.000 A 
ATOM      2  C   UNL     1       1.311   3.174  19.944  0.00  0.00    +0.000 A 
ATOM      3  C   UNL     1       1.209   4.219  20.873  0.00  0.00    +0.000 A 
ATOM      4  C   UNL     1       1.554   5.509  20.451  0.00  0.00    +0.000 A 
ATOM      5  N   UNL     1       1.555   6.694  21.147  0.00  0.00    +0.000 N 
ATOM      6  C   UNL     1       1.955   7.717  20.332  0.00  0.00    +0.000 A 
ATOM      7  C   UNL     1       2.209   7.206  19.068  0.00  0.00    +0.000 A 
ATOM      8  C   UNL     1       1.974   5.792  19.149  0.00  0.00    +0.000 A 
ATOM      9  C   UNL     1       2.058   4.715  18.238  0.00  0.00    +0.000 A 
ATOM     10  H   UNL     1       1.286   6.791  22.116  0.00  0.00    +0.000 HD
ENDROOT
BRANCH   1  12
ATOM     11  C   UNL     1       3.167   1.889  17.504  0.00  0.00    +0.000 C 
ATOM     12  O   UNL     1       1.879   2.472  17.655  0.00  0.00    +0.000 OA
ENDBRANCH   1  12
BRANCH   7  13
ATOM     13  C   UNL     1       2.586   8.028  17.920  0.00  0.00    +0.000 C 
ATOM     14  O   UNL     1       1.769   8.633  17.235  0.00  0.00    +0.000 OA
BRANCH  13  15
ATOM     15  O   UNL     1       3.923   7.981  17.651  0.00  0.00    +0.000 OA
BRANCH  15  16
ATOM     16  C   UNL     1       4.386   6.846  16.908  0.00  0.00    +0.000 C 
BRANCH  16  17
ATOM     17  C   UNL     1       5.645   6.209  17.507  0.00  0.00    +0.000 C 
ATOM     18  C   UNL     1       6.209   5.062  16.638  0.00  0.00    +0.000 C 
ATOM     19  C   UNL     1       7.508   4.527  17.268  0.00  0.00    +0.000 C 
ATOM     20  N   UNL     1       7.842   5.227  18.525  0.00  0.00    +0.000 NA
ATOM     21  C   UNL     1       6.722   5.063  19.476  0.00  0.00    +0.000 C 
ATOM     22  C   UNL     1       5.404   5.624  18.915  0.00  0.00    +0.000 C 
ATOM     23  C   UNL     1       8.019   6.663  18.241  0.00  0.00    +0.000 C 
ATOM     24  C   UNL     1       6.755   7.280  17.631  0.00  0.00    +0.000 C 
ENDBRANCH  16  17
ENDBRANCH  15  16
ENDBRANCH  13  15
ENDBRANCH   7  13
TORSDOF 5
ENDMDL
MODEL 9
REMARK VINA RESULT:      -7.3      2.334      6.930
REMARK  Name = 
REMARK  6 active torsions:
REMARK  status: ('A' for Active; 'I' for Inactive)
REMARK    1  A    between atoms: C_1  and  O_2
REMARK    2  A    between atoms: O_2  and  C_3
REMARK    3  A    between atoms: C_9  and  C_10
REMARK    4  A    between atoms: C_10  and  O_12
REMARK    5  A    between atoms: O_12  and  C_13
REMARK    6  A    between atoms: C_13  and  C_14
REMARK                            x       y       z     vdW  Elec       q    Type
REMARK                         _______ _______ _______ _____ _____    ______ ____
ROOT
ATOM      1  C   UNL     1       2.250   7.396  18.756  0.00  0.00    +0.000 A 
ATOM      2  C   UNL     1       1.956   7.696  20.083  0.00  0.00    +0.000 A 
ATOM      3  C   UNL     1       1.752   6.679  21.026  0.00  0.00    +0.000 A 
ATOM      4  C   UNL     1       1.849   5.352  20.591  0.00  0.00    +0.000 A 
ATOM      5  N   UNL     1       1.689   4.180  21.291  0.00  0.00    +0.000 N 
ATOM      6  C   UNL     1       1.888   3.108  20.465  0.00  0.00    +0.000 A 
ATOM      7  C   UNL     1       2.202   3.575  19.198  0.00  0.00    +0.000 A 
ATOM      8  C   UNL     1       2.156   5.009  19.272  0.00  0.00    +0.000 A 
ATOM      9  C   UNL     1       2.362   6.060  18.351  0.00  0.00    +0.000 A 
ATOM     10  H   UNL     1       1.469   4.124  22.276  0.00  0.00    +0.000 HD
ENDROOT
BRANCH   1  12
ATOM     11  C   UNL     1       1.827   9.569  17.887  0.00  0.00    +0.000 C 
ATOM     12  O   UNL     1       2.464   8.305  17.754  0.00  0.00    +0.000 OA
ENDBRANCH   1  12
BRANCH   7  13
ATOM     13  C   UNL     1       2.552   2.707  18.075  0.00  0.00    +0.000 C 
ATOM     14  O   UNL     1       1.793   1.857  17.626  0.00  0.00    +0.000 OA
BRANCH  13  15
ATOM     15  O   UNL     1       3.833   2.894  17.642  0.00  0.00    +0.000 OA
BRANCH  15  16
ATOM     16  C   UNL     1       3.999   3.691  16.463  0.00  0.00    +0.000 C 
BRANCH  16  17
ATOM     17  C   UNL     1       5.304   4.495  16.459  0.00  0.00    +0.000 C 
ATOM     18  C   UNL     1       6.231   4.133  15.277  0.00  0.00    +0.000 C 
ATOM     19  C   UNL     1       7.480   5.032  15.304  0.00  0.00    +0.000 C 
ATOM     20  N   UNL     1       7.465   5.964  16.451  0.00  0.00    +0.000 NA
ATOM     21  C   UNL     1       7.386   5.181  17.703  0.00  0.00    +0.000 C 
ATOM     22  C   UNL     1       6.129   4.295  17.749  0.00  0.00    +0.000 C 
ATOM     23  C   UNL     1       6.272   6.826  16.353  0.00  0.00    +0.000 C 
ATOM     24  C   UNL     1       4.978   6.003  16.344  0.00  0.00    +0.000 C 
ENDBRANCH  16  17
ENDBRANCH  15  16
ENDBRANCH  13  15
ENDBRANCH   7  13
TORSDOF 5
ENDMDL
