MODEL 1
REMARK VINA RESULT:      -8.3      0.000      0.000
REMARK  Name = 
REMARK  7 active torsions:
REMARK  status: ('A' for Active; 'I' for Inactive)
REMARK    1  A    between atoms: C_1  and  C_2
REMARK    2  A    between atoms: C_4  and  C_5
REMARK    3  A    between atoms: C_7  and  N_8
REMARK    4  A    between atoms: C_9  and  S_10
REMARK    5  A    between atoms: S_10  and  C_11
REMARK    6  A    between atoms: C_11  and  C_12
REMARK    7  A    between atoms: C_17  and  C_18
REMARK                            x       y       z     vdW  Elec       q    Type
REMARK                         _______ _______ _______ _____ _____    ______ ____
ROOT
ATOM      1  N   UNL     1      -0.959  11.959  21.888  0.00  0.00    +0.000 N 
ATOM      2  C   UNL     1      -0.755  12.371  20.540  0.00  0.00    +0.000 A 
ATOM      3  N   UNL     1      -0.092  11.709  19.626  0.00  0.00    +0.000 NA
ATOM      4  C   UNL     1       0.419  10.475  20.063  0.00  0.00    +0.000 A 
ATOM      5  C   UNL     1       0.250  10.035  21.340  0.00  0.00    +0.000 A 
ATOM      6  N   UNL     1       0.835   8.811  21.459  0.00  0.00    +0.000 N 
ATOM      7  C   UNL     1       1.419   8.463  20.261  0.00  0.00    +0.000 A 
ATOM      8  C   UNL     1       2.128   7.305  19.924  0.00  0.00    +0.000 A 
ATOM      9  C   UNL     1       2.632   7.218  18.627  0.00  0.00    +0.000 A 
ATOM     10  C   UNL     1       2.433   8.249  17.709  0.00  0.00    +0.000 A 
ATOM     11  C   UNL     1       1.712   9.401  18.061  0.00  0.00    +0.000 A 
ATOM     12  C   UNL     1       1.181   9.514  19.363  0.00  0.00    +0.000 A 
ATOM     13  C   UNL     1      -0.437  10.743  22.349  0.00  0.00    +0.000 A 
ATOM     14  O   UNL     1      -0.551  10.277  23.480  0.00  0.00    +0.000 OA
ATOM     15  H   UNL     1       0.840   8.254  22.302  0.00  0.00    +0.000 HD
ENDROOT
BRANCH   1  22
ATOM     16  C   UNL     1      -1.223  15.606  25.229  0.00  0.00    +0.000 C 
ATOM     17  C   UNL     1      -1.903  14.528  24.440  0.00  0.00    +0.000 A 
ATOM     18  C   UNL     1      -3.258  14.225  24.629  0.00  0.00    +0.000 A 
ATOM     19  C   UNL     1      -3.854  13.160  23.947  0.00  0.00    +0.000 A 
ATOM     20  C   UNL     1      -5.303  12.820  24.140  0.00  0.00    +0.000 C 
ATOM     21  C   UNL     1      -3.076  12.406  23.059  0.00  0.00    +0.000 A 
ATOM     22  C   UNL     1      -1.720  12.700  22.849  0.00  0.00    +0.000 A 
ATOM     23  C   UNL     1      -1.148  13.779  23.531  0.00  0.00    +0.000 A 
ENDBRANCH   1  22
BRANCH   2  24
ATOM     24  S   UNL     1      -1.295  14.010  20.129  0.00  0.00    +0.000 S 
BRANCH  24  25
ATOM     25  C   UNL     1       0.121  14.822  19.367  0.00  0.00    +0.000 C 
BRANCH  25  26
ATOM     26  C   UNL     1       1.341  15.022  20.263  0.00  0.00    +0.000 C 
ATOM     27  O   UNL     1       1.286  14.882  21.487  0.00  0.00    +0.000 OA
ATOM     28  N   UNL     1       2.544  15.364  19.612  0.00  0.00    +0.000 N 
ATOM     29  C   UNL     1       2.670  15.655  18.181  0.00  0.00    +0.000 C 
ATOM     30  C   UNL     1       3.957  15.074  17.596  0.00  0.00    +0.000 C 
ATOM     31  C   UNL     1       5.202  15.497  18.385  0.00  0.00    +0.000 C 
ATOM     32  C   UNL     1       6.440  14.767  17.857  0.00  0.00    +0.000 C 
ATOM     33  C   UNL     1       5.010  15.223  19.884  0.00  0.00    +0.000 C 
ATOM     34  C   UNL     1       3.691  15.783  20.418  0.00  0.00    +0.000 C 
ENDBRANCH  25  26
ENDBRANCH  24  25
ENDBRANCH   2  24
TORSDOF 4
ENDMDL
MODEL 2
REMARK VINA RESULT:      -8.1      3.128      5.884
REMARK  Name = 
REMARK  7 active torsions:
REMARK  status: ('A' for Active; 'I' for Inactive)
REMARK    1  A    between atoms: C_1  and  C_2
REMARK    2  A    between atoms: C_4  and  C_5
REMARK    3  A    between atoms: C_7  and  N_8
REMARK    4  A    between atoms: C_9  and  S_10
REMARK    5  A    between atoms: S_10  and  C_11
REMARK    6  A    between atoms: C_11  and  C_12
REMARK    7  A    between atoms: C_17  and  C_18
REMARK                            x       y       z     vdW  Elec       q    Type
REMARK                         _______ _______ _______ _____ _____    ______ ____
ROOT
ATOM      1  N   UNL     1       0.063  11.106  21.065  0.00  0.00    +0.000 N 
ATOM      2  C   UNL     1       0.171  11.136  19.645  0.00  0.00    +0.000 A 
ATOM      3  N   UNL     1       0.733  10.220  18.897  0.00  0.00    +0.000 NA
ATOM      4  C   UNL     1       1.232   9.118  19.612  0.00  0.00    +0.000 A 
ATOM      5  C   UNL     1       1.151   9.040  20.968  0.00  0.00    +0.000 A 
ATOM      6  N   UNL     1       1.699   7.858  21.369  0.00  0.00    +0.000 N 
ATOM      7  C   UNL     1       2.170   7.175  20.271  0.00  0.00    +0.000 A 
ATOM      8  C   UNL     1       2.806   5.931  20.207  0.00  0.00    +0.000 A 
ATOM      9  C   UNL     1       3.200   5.477  18.949  0.00  0.00    +0.000 A 
ATOM     10  C   UNL     1       2.965   6.239  17.805  0.00  0.00    +0.000 A 
ATOM     11  C   UNL     1       2.318   7.482  17.885  0.00  0.00    +0.000 A 
ATOM     12  C   UNL     1       1.899   7.965  19.143  0.00  0.00    +0.000 A 
ATOM     13  C   UNL     1       0.574  10.026  21.797  0.00  0.00    +0.000 A 
ATOM     14  O   UNL     1       0.536   9.882  23.015  0.00  0.00    +0.000 OA
ATOM     15  H   UNL     1       1.751   7.544  22.328  0.00  0.00    +0.000 HD
ENDROOT
BRANCH   1  22
ATOM     16  C   UNL     1      -3.730  12.500  23.928  0.00  0.00    +0.000 C 
ATOM     17  C   UNL     1      -2.400  12.807  23.311  0.00  0.00    +0.000 A 
ATOM     18  C   UNL     1      -1.790  14.059  23.469  0.00  0.00    +0.000 A 
ATOM     19  C   UNL     1      -0.591  14.357  22.814  0.00  0.00    +0.000 A 
ATOM     20  C   UNL     1       0.074  15.694  22.971  0.00  0.00    +0.000 C 
ATOM     21  C   UNL     1      -0.000  13.378  22.006  0.00  0.00    +0.000 A 
ATOM     22  C   UNL     1      -0.590  12.116  21.843  0.00  0.00    +0.000 A 
ATOM     23  C   UNL     1      -1.782  11.834  22.518  0.00  0.00    +0.000 A 
ENDBRANCH   1  22
BRANCH   2  24
ATOM     24  S   UNL     1      -0.339  12.637  18.849  0.00  0.00    +0.000 S 
BRANCH  24  25
ATOM     25  C   UNL     1      -2.104  12.794  19.171  0.00  0.00    +0.000 C 
BRANCH  25  26
ATOM     26  C   UNL     1      -3.009  11.800  18.445  0.00  0.00    +0.000 C 
ATOM     27  O   UNL     1      -2.581  11.039  17.574  0.00  0.00    +0.000 OA
ATOM     28  N   UNL     1      -4.363  11.791  18.835  0.00  0.00    +0.000 N 
ATOM     29  C   UNL     1      -4.973  12.733  19.778  0.00  0.00    +0.000 C 
ATOM     30  C   UNL     1      -5.980  12.042  20.698  0.00  0.00    +0.000 C 
ATOM     31  C   UNL     1      -7.031  11.242  19.918  0.00  0.00    +0.000 C 
ATOM     32  C   UNL     1      -7.916  10.446  20.882  0.00  0.00    +0.000 C 
ATOM     33  C   UNL     1      -6.355  10.306  18.906  0.00  0.00    +0.000 C 
ATOM     34  C   UNL     1      -5.324  11.028  18.037  0.00  0.00    +0.000 C 
ENDBRANCH  25  26
ENDBRANCH  24  25
ENDBRANCH   2  24
TORSDOF 4
ENDMDL
MODEL 3
REMARK VINA RESULT:      -8.1      3.457      5.663
REMARK  Name = 
REMARK  7 active torsions:
REMARK  status: ('A' for Active; 'I' for Inactive)
REMARK    1  A    between atoms: C_1  and  C_2
REMARK    2  A    between atoms: C_4  and  C_5
REMARK    3  A    between atoms: C_7  and  N_8
REMARK    4  A    between atoms: C_9  and  S_10
REMARK    5  A    between atoms: S_10  and  C_11
REMARK    6  A    between atoms: C_11  and  C_12
REMARK    7  A    between atoms: C_17  and  C_18
REMARK                            x       y       z     vdW  Elec       q    Type
REMARK                         _______ _______ _______ _____ _____    ______ ____
ROOT
ATOM      1  N   UNL     1      -0.813  11.296  21.765  0.00  0.00    +0.000 N 
ATOM      2  C   UNL     1      -0.915  11.383  20.346  0.00  0.00    +0.000 A 
ATOM      3  N   UNL     1      -0.316  10.602  19.484  0.00  0.00    +0.000 NA
ATOM      4  C   UNL     1       0.463   9.588  20.065  0.00  0.00    +0.000 A 
ATOM      5  C   UNL     1       0.591   9.460  21.415  0.00  0.00    +0.000 A 
ATOM      6  N   UNL     1       1.386   8.385  21.676  0.00  0.00    +0.000 N 
ATOM      7  C   UNL     1       1.807   7.826  20.490  0.00  0.00    +0.000 A 
ATOM      8  C   UNL     1       2.633   6.718  20.277  0.00  0.00    +0.000 A 
ATOM      9  C   UNL     1       2.915   6.375  18.955  0.00  0.00    +0.000 A 
ATOM     10  C   UNL     1       2.391   7.114  17.894  0.00  0.00    +0.000 A 
ATOM     11  C   UNL     1       1.557   8.219  18.125  0.00  0.00    +0.000 A 
ATOM     12  C   UNL     1       1.245   8.585  19.451  0.00  0.00    +0.000 A 
ATOM     13  C   UNL     1      -0.023  10.305  22.364  0.00  0.00    +0.000 A 
ATOM     14  O   UNL     1       0.139  10.124  23.567  0.00  0.00    +0.000 OA
ATOM     15  H   UNL     1       1.629   8.060  22.601  0.00  0.00    +0.000 HD
ENDROOT
BRANCH   1  22
ATOM     16  C   UNL     1      -1.011  15.503  24.370  0.00  0.00    +0.000 C 
ATOM     17  C   UNL     1      -1.673  14.241  23.907  0.00  0.00    +0.000 A 
ATOM     18  C   UNL     1      -2.951  13.877  24.354  0.00  0.00    +0.000 A 
ATOM     19  C   UNL     1      -3.517  12.654  23.980  0.00  0.00    +0.000 A 
ATOM     20  C   UNL     1      -4.883  12.248  24.450  0.00  0.00    +0.000 C 
ATOM     21  C   UNL     1      -2.790  11.801  23.140  0.00  0.00    +0.000 A 
ATOM     22  C   UNL     1      -1.513  12.152  22.675  0.00  0.00    +0.000 A 
ATOM     23  C   UNL     1      -0.972  13.386  23.050  0.00  0.00    +0.000 A 
ENDBRANCH   1  22
BRANCH   2  24
ATOM     24  S   UNL     1      -1.786  12.790  19.706  0.00  0.00    +0.000 S 
BRANCH  24  25
ATOM     25  C   UNL     1      -2.502  12.260  18.142  0.00  0.00    +0.000 C 
BRANCH  25  26
ATOM     26  C   UNL     1      -3.600  11.201  18.231  0.00  0.00    +0.000 C 
ATOM     27  O   UNL     1      -3.434  10.050  17.822  0.00  0.00    +0.000 OA
ATOM     28  N   UNL     1      -4.813  11.610  18.821  0.00  0.00    +0.000 N 
ATOM     29  C   UNL     1      -5.128  12.982  19.230  0.00  0.00    +0.000 C 
ATOM     30  C   UNL     1      -5.901  13.016  20.549  0.00  0.00    +0.000 C 
ATOM     31  C   UNL     1      -7.146  12.120  20.521  0.00  0.00    +0.000 C 
ATOM     32  C   UNL     1      -7.794  12.067  21.907  0.00  0.00    +0.000 C 
ATOM     33  C   UNL     1      -6.784  10.708  20.038  0.00  0.00    +0.000 C 
ATOM     34  C   UNL     1      -5.973  10.722  18.740  0.00  0.00    +0.000 C 
ENDBRANCH  25  26
ENDBRANCH  24  25
ENDBRANCH   2  24
TORSDOF 4
ENDMDL
MODEL 4
REMARK VINA RESULT:      -8.1      0.868      1.916
REMARK  Name = 
REMARK  7 active torsions:
REMARK  status: ('A' for Active; 'I' for Inactive)
REMARK    1  A    between atoms: C_1  and  C_2
REMARK    2  A    between atoms: C_4  and  C_5
REMARK    3  A    between atoms: C_7  and  N_8
REMARK    4  A    between atoms: C_9  and  S_10
REMARK    5  A    between atoms: S_10  and  C_11
REMARK    6  A    between atoms: C_11  and  C_12
REMARK    7  A    between atoms: C_17  and  C_18
REMARK                            x       y       z     vdW  Elec       q    Type
REMARK                         _______ _______ _______ _____ _____    ______ ____
ROOT
ATOM      1  N   UNL     1      -1.005  11.944  21.831  0.00  0.00    +0.000 N 
ATOM      2  C   UNL     1      -0.841  12.299  20.461  0.00  0.00    +0.000 A 
ATOM      3  N   UNL     1      -0.179  11.613  19.564  0.00  0.00    +0.000 NA
ATOM      4  C   UNL     1       0.373  10.414  20.044  0.00  0.00    +0.000 A 
ATOM      5  C   UNL     1       0.242  10.028  21.343  0.00  0.00    +0.000 A 
ATOM      6  N   UNL     1       0.862   8.825  21.504  0.00  0.00    +0.000 N 
ATOM      7  C   UNL     1       1.429   8.438  20.311  0.00  0.00    +0.000 A 
ATOM      8  C   UNL     1       2.161   7.284  20.011  0.00  0.00    +0.000 A 
ATOM      9  C   UNL     1       2.640   7.152  18.708  0.00  0.00    +0.000 A 
ATOM     10  C   UNL     1       2.394   8.134  17.749  0.00  0.00    +0.000 A 
ATOM     11  C   UNL     1       1.651   9.282  18.064  0.00  0.00    +0.000 A 
ATOM     12  C   UNL     1       1.145   9.441  19.371  0.00  0.00    +0.000 A 
ATOM     13  C   UNL     1      -0.442  10.763  22.335  0.00  0.00    +0.000 A 
ATOM     14  O   UNL     1      -0.519  10.347  23.487  0.00  0.00    +0.000 OA
ATOM     15  H   UNL     1       0.899   8.308  22.371  0.00  0.00    +0.000 HD
ENDROOT
BRANCH   1  22
ATOM     16  C   UNL     1      -5.258  12.738  24.240  0.00  0.00    +0.000 C 
ATOM     17  C   UNL     1      -3.815  13.078  24.027  0.00  0.00    +0.000 A 
ATOM     18  C   UNL     1      -3.200  14.130  24.718  0.00  0.00    +0.000 A 
ATOM     19  C   UNL     1      -1.876  14.489  24.443  0.00  0.00    +0.000 A 
ATOM     20  C   UNL     1      -1.203  15.615  25.173  0.00  0.00    +0.000 C 
ATOM     21  C   UNL     1      -1.169  13.771  23.471  0.00  0.00    +0.000 A 
ATOM     22  C   UNL     1      -1.765  12.708  22.774  0.00  0.00    +0.000 A 
ATOM     23  C   UNL     1      -3.084  12.357  23.076  0.00  0.00    +0.000 A 
ENDBRANCH   1  22
BRANCH   2  24
ATOM     24  S   UNL     1      -1.431  13.904  19.990  0.00  0.00    +0.000 S 
BRANCH  24  25
ATOM     25  C   UNL     1      -0.124  15.062  20.429  0.00  0.00    +0.000 C 
BRANCH  25  26
ATOM     26  C   UNL     1       0.706  15.607  19.268  0.00  0.00    +0.000 C 
ATOM     27  O   UNL     1       0.227  16.356  18.414  0.00  0.00    +0.000 OA
ATOM     28  N   UNL     1       2.060  15.215  19.233  0.00  0.00    +0.000 N 
ATOM     29  C   UNL     1       2.678  14.245  20.142  0.00  0.00    +0.000 C 
ATOM     30  C   UNL     1       4.089  14.669  20.549  0.00  0.00    +0.000 C 
ATOM     31  C   UNL     1       4.979  14.977  19.340  0.00  0.00    +0.000 C 
ATOM     32  C   UNL     1       6.325  15.545  19.800  0.00  0.00    +0.000 C 
ATOM     33  C   UNL     1       4.277  15.956  18.387  0.00  0.00    +0.000 C 
ATOM     34  C   UNL     1       2.853  15.516  18.040  0.00  0.00    +0.000 C 
ENDBRANCH  25  26
ENDBRANCH  24  25
ENDBRANCH   2  24
TORSDOF 4
ENDMDL
MODEL 5
REMARK VINA RESULT:      -8.0      3.126      5.738
REMARK  Name = 
REMARK  7 active torsions:
REMARK  status: ('A' for Active; 'I' for Inactive)
REMARK    1  A    between atoms: C_1  and  C_2
REMARK    2  A    between atoms: C_4  and  C_5
REMARK    3  A    between atoms: C_7  and  N_8
REMARK    4  A    between atoms: C_9  and  S_10
REMARK    5  A    between atoms: S_10  and  C_11
REMARK    6  A    between atoms: C_11  and  C_12
REMARK    7  A    between atoms: C_17  and  C_18
REMARK                            x       y       z     vdW  Elec       q    Type
REMARK                         _______ _______ _______ _____ _____    ______ ____
ROOT
ATOM      1  N   UNL     1       0.217  10.941  20.997  0.00  0.00    +0.000 N 
ATOM      2  C   UNL     1       0.278  10.958  19.574  0.00  0.00    +0.000 A 
ATOM      3  N   UNL     1       0.809  10.032  18.817  0.00  0.00    +0.000 NA
ATOM      4  C   UNL     1       1.323   8.932  19.524  0.00  0.00    +0.000 A 
ATOM      5  C   UNL     1       1.286   8.866  20.883  0.00  0.00    +0.000 A 
ATOM      6  N   UNL     1       1.837   7.684  21.275  0.00  0.00    +0.000 N 
ATOM      7  C   UNL     1       2.267   6.988  20.168  0.00  0.00    +0.000 A 
ATOM      8  C   UNL     1       2.892   5.738  20.095  0.00  0.00    +0.000 A 
ATOM      9  C   UNL     1       3.240   5.271  18.828  0.00  0.00    +0.000 A 
ATOM     10  C   UNL     1       2.973   6.025  17.686  0.00  0.00    +0.000 A 
ATOM     11  C   UNL     1       2.338   7.274  17.776  0.00  0.00    +0.000 A 
ATOM     12  C   UNL     1       1.965   7.770  19.043  0.00  0.00    +0.000 A 
ATOM     13  C   UNL     1       0.744   9.864  21.721  0.00  0.00    +0.000 A 
ATOM     14  O   UNL     1       0.745   9.730  22.942  0.00  0.00    +0.000 OA
ATOM     15  H   UNL     1       1.919   7.377  22.235  0.00  0.00    +0.000 HD
ENDROOT
BRANCH   1  22
ATOM     16  C   UNL     1       0.238  15.564  22.774  0.00  0.00    +0.000 C 
ATOM     17  C   UNL     1      -0.459  14.247  22.615  0.00  0.00    +0.000 A 
ATOM     18  C   UNL     1      -1.693  13.992  23.229  0.00  0.00    +0.000 A 
ATOM     19  C   UNL     1      -2.287  12.729  23.142  0.00  0.00    +0.000 A 
ATOM     20  C   UNL     1      -3.606  12.438  23.795  0.00  0.00    +0.000 C 
ATOM     21  C   UNL     1      -1.634  11.724  22.417  0.00  0.00    +0.000 A 
ATOM     22  C   UNL     1      -0.403  11.963  21.787  0.00  0.00    +0.000 A 
ATOM     23  C   UNL     1       0.166  13.237  21.876  0.00  0.00    +0.000 A 
ENDBRANCH   1  22
BRANCH   2  24
ATOM     24  S   UNL     1      -0.247  12.457  18.783  0.00  0.00    +0.000 S 
BRANCH  24  25
ATOM     25  C   UNL     1      -1.995  12.639  19.175  0.00  0.00    +0.000 C 
BRANCH  25  26
ATOM     26  C   UNL     1      -2.952  11.725  18.411  0.00  0.00    +0.000 C 
ATOM     27  O   UNL     1      -2.566  10.983  17.505  0.00  0.00    +0.000 OA
ATOM     28  N   UNL     1      -4.304  11.767  18.808  0.00  0.00    +0.000 N 
ATOM     29  C   UNL     1      -4.861  12.695  19.796  0.00  0.00    +0.000 C 
ATOM     30  C   UNL     1      -5.898  12.016  20.690  0.00  0.00    +0.000 C 
ATOM     31  C   UNL     1      -6.991  11.306  19.882  0.00  0.00    +0.000 C 
ATOM     32  C   UNL     1      -7.913  10.514  20.814  0.00  0.00    +0.000 C 
ATOM     33  C   UNL     1      -6.368  10.383  18.825  0.00  0.00    +0.000 C 
ATOM     34  C   UNL     1      -5.304  11.090  17.982  0.00  0.00    +0.000 C 
ENDBRANCH  25  26
ENDBRANCH  24  25
ENDBRANCH   2  24
TORSDOF 4
ENDMDL
MODEL 6
REMARK VINA RESULT:      -8.0      1.359      1.634
REMARK  Name = 
REMARK  7 active torsions:
REMARK  status: ('A' for Active; 'I' for Inactive)
REMARK    1  A    between atoms: C_1  and  C_2
REMARK    2  A    between atoms: C_4  and  C_5
REMARK    3  A    between atoms: C_7  and  N_8
REMARK    4  A    between atoms: C_9  and  S_10
REMARK    5  A    between atoms: S_10  and  C_11
REMARK    6  A    between atoms: C_11  and  C_12
REMARK    7  A    between atoms: C_17  and  C_18
REMARK                            x       y       z     vdW  Elec       q    Type
REMARK                         _______ _______ _______ _____ _____    ______ ____
ROOT
ATOM      1  N   UNL     1      -0.959  11.819  21.919  0.00  0.00    +0.000 N 
ATOM      2  C   UNL     1      -0.803  12.166  20.546  0.00  0.00    +0.000 A 
ATOM      3  N   UNL     1      -0.149  11.472  19.649  0.00  0.00    +0.000 NA
ATOM      4  C   UNL     1       0.402  10.274  20.133  0.00  0.00    +0.000 A 
ATOM      5  C   UNL     1       0.277   9.896  21.434  0.00  0.00    +0.000 A 
ATOM      6  N   UNL     1       0.894   8.692  21.598  0.00  0.00    +0.000 N 
ATOM      7  C   UNL     1       1.452   8.296  20.404  0.00  0.00    +0.000 A 
ATOM      8  C   UNL     1       2.178   7.138  20.106  0.00  0.00    +0.000 A 
ATOM      9  C   UNL     1       2.648   6.996  18.801  0.00  0.00    +0.000 A 
ATOM     10  C   UNL     1       2.401   7.973  17.838  0.00  0.00    +0.000 A 
ATOM     11  C   UNL     1       1.664   9.126  18.151  0.00  0.00    +0.000 A 
ATOM     12  C   UNL     1       1.166   9.295  19.460  0.00  0.00    +0.000 A 
ATOM     13  C   UNL     1      -0.398  10.640  22.426  0.00  0.00    +0.000 A 
ATOM     14  O   UNL     1      -0.470  10.230  23.581  0.00  0.00    +0.000 OA
ATOM     15  H   UNL     1       0.934   8.180  22.468  0.00  0.00    +0.000 HD
ENDROOT
BRANCH   1  22
ATOM     16  C   UNL     1      -1.248  15.681  25.006  0.00  0.00    +0.000 C 
ATOM     17  C   UNL     1      -1.910  14.520  24.329  0.00  0.00    +0.000 A 
ATOM     18  C   UNL     1      -3.238  14.169  24.606  0.00  0.00    +0.000 A 
ATOM     19  C   UNL     1      -3.812  13.032  24.030  0.00  0.00    +0.000 A 
ATOM     20  C   UNL     1      -5.232  12.641  24.318  0.00  0.00    +0.000 C 
ATOM     21  C   UNL     1      -3.040  12.252  23.159  0.00  0.00    +0.000 A 
ATOM     22  C   UNL     1      -1.711  12.592  22.862  0.00  0.00    +0.000 A 
ATOM     23  C   UNL     1      -1.162  13.742  23.438  0.00  0.00    +0.000 A 
ENDBRANCH   1  22
BRANCH   2  24
ATOM     24  S   UNL     1      -1.390  13.770  20.068  0.00  0.00    +0.000 S 
BRANCH  24  25
ATOM     25  C   UNL     1      -0.417  14.247  18.630  0.00  0.00    +0.000 C 
BRANCH  25  26
ATOM     26  C   UNL     1       0.167  15.658  18.654  0.00  0.00    +0.000 C 
ATOM     27  O   UNL     1      -0.462  16.634  18.240  0.00  0.00    +0.000 OA
ATOM     28  N   UNL     1       1.466  15.785  19.187  0.00  0.00    +0.000 N 
ATOM     29  C   UNL     1       2.320  14.667  19.596  0.00  0.00    +0.000 C 
ATOM     30  C   UNL     1       3.095  14.984  20.875  0.00  0.00    +0.000 C 
ATOM     31  C   UNL     1       3.874  16.301  20.776  0.00  0.00    +0.000 C 
ATOM     32  C   UNL     1       4.503  16.651  22.128  0.00  0.00    +0.000 C 
ATOM     33  C   UNL     1       2.958  17.436  20.296  0.00  0.00    +0.000 C 
ATOM     34  C   UNL     1       2.168  17.061  19.040  0.00  0.00    +0.000 C 
ENDBRANCH  25  26
ENDBRANCH  24  25
ENDBRANCH   2  24
TORSDOF 4
ENDMDL
MODEL 7
REMARK VINA RESULT:      -8.0      1.861      2.826
REMARK  Name = 
REMARK  7 active torsions:
REMARK  status: ('A' for Active; 'I' for Inactive)
REMARK    1  A    between atoms: C_1  and  C_2
REMARK    2  A    between atoms: C_4  and  C_5
REMARK    3  A    between atoms: C_7  and  N_8
REMARK    4  A    between atoms: C_9  and  S_10
REMARK    5  A    between atoms: S_10  and  C_11
REMARK    6  A    between atoms: C_11  and  C_12
REMARK    7  A    between atoms: C_17  and  C_18
REMARK                            x       y       z     vdW  Elec       q    Type
REMARK                         _______ _______ _______ _____ _____    ______ ____
ROOT
ATOM      1  N   UNL     1      -0.915  11.810  21.786  0.00  0.00    +0.000 N 
ATOM      2  C   UNL     1      -0.827  12.096  20.394  0.00  0.00    +0.000 A 
ATOM      3  N   UNL     1      -0.193  11.378  19.501  0.00  0.00    +0.000 NA
ATOM      4  C   UNL     1       0.410  10.218  20.014  0.00  0.00    +0.000 A 
ATOM      5  C   UNL     1       0.351   9.898  21.336  0.00  0.00    +0.000 A 
ATOM      6  N   UNL     1       1.007   8.718  21.527  0.00  0.00    +0.000 N 
ATOM      7  C   UNL     1       1.524   8.282  20.329  0.00  0.00    +0.000 A 
ATOM      8  C   UNL     1       2.268   7.129  20.052  0.00  0.00    +0.000 A 
ATOM      9  C   UNL     1       2.686   6.939  18.736  0.00  0.00    +0.000 A 
ATOM     10  C   UNL     1       2.371   7.863  17.741  0.00  0.00    +0.000 A 
ATOM     11  C   UNL     1       1.617   9.011  18.034  0.00  0.00    +0.000 A 
ATOM     12  C   UNL     1       1.171   9.228  19.354  0.00  0.00    +0.000 A 
ATOM     13  C   UNL     1      -0.301  10.669  22.321  0.00  0.00    +0.000 A 
ATOM     14  O   UNL     1      -0.312  10.312  23.496  0.00  0.00    +0.000 OA
ATOM     15  H   UNL     1       1.098   8.248  22.417  0.00  0.00    +0.000 HD
ENDROOT
BRANCH   1  22
ATOM     16  C   UNL     1      -5.018  12.570  24.454  0.00  0.00    +0.000 C 
ATOM     17  C   UNL     1      -3.617  12.967  24.103  0.00  0.00    +0.000 A 
ATOM     18  C   UNL     1      -3.014  14.102  24.663  0.00  0.00    +0.000 A 
ATOM     19  C   UNL     1      -1.738  14.507  24.258  0.00  0.00    +0.000 A 
ATOM     20  C   UNL     1      -1.080  15.720  24.846  0.00  0.00    +0.000 C 
ATOM     21  C   UNL     1      -1.064  13.751  23.291  0.00  0.00    +0.000 A 
ATOM     22  C   UNL     1      -1.647  12.606  22.725  0.00  0.00    +0.000 A 
ATOM     23  C   UNL     1      -2.918  12.212  23.155  0.00  0.00    +0.000 A 
ENDBRANCH   1  22
BRANCH   2  24
ATOM     24  S   UNL     1      -1.477  13.661  19.870  0.00  0.00    +0.000 S 
BRANCH  24  25
ATOM     25  C   UNL     1      -0.227  14.382  18.793  0.00  0.00    +0.000 C 
BRANCH  25  26
ATOM     26  C   UNL     1      -0.016  15.889  18.927  0.00  0.00    +0.000 C 
ATOM     27  O   UNL     1      -0.591  16.699  18.196  0.00  0.00    +0.000 OA
ATOM     28  N   UNL     1       0.867  16.306  19.944  0.00  0.00    +0.000 N 
ATOM     29  C   UNL     1       1.670  15.410  20.779  0.00  0.00    +0.000 C 
ATOM     30  C   UNL     1       1.732  15.890  22.229  0.00  0.00    +0.000 C 
ATOM     31  C   UNL     1       2.187  17.350  22.343  0.00  0.00    +0.000 C 
ATOM     32  C   UNL     1       2.082  17.828  23.794  0.00  0.00    +0.000 C 
ATOM     33  C   UNL     1       1.356  18.249  21.415  0.00  0.00    +0.000 C 
ATOM     34  C   UNL     1       1.284  17.709  19.986  0.00  0.00    +0.000 C 
ENDBRANCH  25  26
ENDBRANCH  24  25
ENDBRANCH   2  24
TORSDOF 4
ENDMDL
MODEL 8
REMARK VINA RESULT:      -7.9      0.906      1.752
REMARK  Name = 
REMARK  7 active torsions:
REMARK  status: ('A' for Active; 'I' for Inactive)
REMARK    1  A    between atoms: C_1  and  C_2
REMARK    2  A    between atoms: C_4  and  C_5
REMARK    3  A    between atoms: C_7  and  N_8
REMARK    4  A    between atoms: C_9  and  S_10
REMARK    5  A    between atoms: S_10  and  C_11
REMARK    6  A    between atoms: C_11  and  C_12
REMARK    7  A    between atoms: C_17  and  C_18
REMARK                            x       y       z     vdW  Elec       q    Type
REMARK                         _______ _______ _______ _____ _____    ______ ____
ROOT
ATOM      1  N   UNL     1      -0.596  11.553  21.626  0.00  0.00    +0.000 N 
ATOM      2  C   UNL     1      -0.494  11.753  20.219  0.00  0.00    +0.000 A 
ATOM      3  N   UNL     1       0.124  10.968  19.374  0.00  0.00    +0.000 NA
ATOM      4  C   UNL     1       0.696   9.826  19.959  0.00  0.00    +0.000 A 
ATOM      5  C   UNL     1       0.624   9.586  21.297  0.00  0.00    +0.000 A 
ATOM      6  N   UNL     1       1.249   8.405  21.562  0.00  0.00    +0.000 N 
ATOM      7  C   UNL     1       1.760   7.885  20.395  0.00  0.00    +0.000 A 
ATOM      8  C   UNL     1       2.476   6.700  20.192  0.00  0.00    +0.000 A 
ATOM      9  C   UNL     1       2.895   6.421  18.891  0.00  0.00    +0.000 A 
ATOM     10  C   UNL     1       2.607   7.292  17.842  0.00  0.00    +0.000 A 
ATOM     11  C   UNL     1       1.881   8.474  18.061  0.00  0.00    +0.000 A 
ATOM     12  C   UNL     1       1.435   8.780  19.364  0.00  0.00    +0.000 A 
ATOM     13  C   UNL     1      -0.013  10.432  22.231  0.00  0.00    +0.000 A 
ATOM     14  O   UNL     1      -0.038  10.145  23.425  0.00  0.00    +0.000 OA
ATOM     15  H   UNL     1       1.324   7.987  22.479  0.00  0.00    +0.000 HD
ENDROOT
BRANCH   1  22
ATOM     16  C   UNL     1      -4.594  12.464  24.404  0.00  0.00    +0.000 C 
ATOM     17  C   UNL     1      -3.226  12.865  23.942  0.00  0.00    +0.000 A 
ATOM     18  C   UNL     1      -2.640  14.072  24.348  0.00  0.00    +0.000 A 
ATOM     19  C   UNL     1      -1.401  14.471  23.839  0.00  0.00    +0.000 A 
ATOM     20  C   UNL     1      -0.760  15.761  24.261  0.00  0.00    +0.000 C 
ATOM     21  C   UNL     1      -0.746  13.638  22.924  0.00  0.00    +0.000 A 
ATOM     22  C   UNL     1      -1.312  12.422  22.512  0.00  0.00    +0.000 A 
ATOM     23  C   UNL     1      -2.546  12.036  23.045  0.00  0.00    +0.000 A 
ENDBRANCH   1  22
BRANCH   2  24
ATOM     24  S   UNL     1      -1.104  13.300  19.600  0.00  0.00    +0.000 S 
BRANCH  24  25
ATOM     25  C   UNL     1       0.273  14.058  18.720  0.00  0.00    +0.000 C 
BRANCH  25  26
ATOM     26  C   UNL     1       0.915  15.268  19.396  0.00  0.00    +0.000 C 
ATOM     27  O   UNL     1       0.329  15.923  20.262  0.00  0.00    +0.000 OA
ATOM     28  N   UNL     1       2.224  15.590  18.985  0.00  0.00    +0.000 N 
ATOM     29  C   UNL     1       2.946  14.934  17.890  0.00  0.00    +0.000 C 
ATOM     30  C   UNL     1       4.423  14.730  18.228  0.00  0.00    +0.000 C 
ATOM     31  C   UNL     1       5.105  16.029  18.675  0.00  0.00    +0.000 C 
ATOM     32  C   UNL     1       6.533  15.744  19.149  0.00  0.00    +0.000 C 
ATOM     33  C   UNL     1       4.293  16.712  19.784  0.00  0.00    +0.000 C 
ATOM     34  C   UNL     1       2.813  16.855  19.424  0.00  0.00    +0.000 C 
ENDBRANCH  25  26
ENDBRANCH  24  25
ENDBRANCH   2  24
TORSDOF 4
ENDMDL
MODEL 9
REMARK VINA RESULT:      -7.9      3.438      5.828
REMARK  Name = 
REMARK  7 active torsions:
REMARK  status: ('A' for Active; 'I' for Inactive)
REMARK    1  A    between atoms: C_1  and  C_2
REMARK    2  A    between atoms: C_4  and  C_5
REMARK    3  A    between atoms: C_7  and  N_8
REMARK    4  A    between atoms: C_9  and  S_10
REMARK    5  A    between atoms: S_10  and  C_11
REMARK    6  A    between atoms: C_11  and  C_12
REMARK    7  A    between atoms: C_17  and  C_18
REMARK                            x       y       z     vdW  Elec       q    Type
REMARK                         _______ _______ _______ _____ _____    ______ ____
ROOT
ATOM      1  N   UNL     1      -0.738  11.263  21.592  0.00  0.00    +0.000 N 
ATOM      2  C   UNL     1      -0.842  11.283  20.172  0.00  0.00    +0.000 A 
ATOM      3  N   UNL     1      -0.244  10.463  19.346  0.00  0.00    +0.000 NA
ATOM      4  C   UNL     1       0.535   9.476  19.974  0.00  0.00    +0.000 A 
ATOM      5  C   UNL     1       0.665   9.412  21.327  0.00  0.00    +0.000 A 
ATOM      6  N   UNL     1       1.459   8.350  21.638  0.00  0.00    +0.000 N 
ATOM      7  C   UNL     1       1.878   7.736  20.479  0.00  0.00    +0.000 A 
ATOM      8  C   UNL     1       2.703   6.617  20.317  0.00  0.00    +0.000 A 
ATOM      9  C   UNL     1       2.983   6.213  19.012  0.00  0.00    +0.000 A 
ATOM     10  C   UNL     1       2.458   6.901  17.919  0.00  0.00    +0.000 A 
ATOM     11  C   UNL     1       1.625   8.017  18.099  0.00  0.00    +0.000 A 
ATOM     12  C   UNL     1       1.316   8.445  19.407  0.00  0.00    +0.000 A 
ATOM     13  C   UNL     1       0.052  10.302  22.236  0.00  0.00    +0.000 A 
ATOM     14  O   UNL     1       0.216  10.177  23.447  0.00  0.00    +0.000 OA
ATOM     15  H   UNL     1       1.703   8.068  22.577  0.00  0.00    +0.000 HD
ENDROOT
BRANCH   1  22
ATOM     16  C   UNL     1      -4.695  12.282  24.390  0.00  0.00    +0.000 C 
ATOM     17  C   UNL     1      -3.330  12.660  23.902  0.00  0.00    +0.000 A 
ATOM     18  C   UNL     1      -2.730  13.872  24.268  0.00  0.00    +0.000 A 
ATOM     19  C   UNL     1      -1.493  14.247  23.734  0.00  0.00    +0.000 A 
ATOM     20  C   UNL     1      -0.838  15.543  24.113  0.00  0.00    +0.000 C 
ATOM     21  C   UNL     1      -0.855  13.384  22.834  0.00  0.00    +0.000 A 
ATOM     22  C   UNL     1      -1.436  12.162  22.462  0.00  0.00    +0.000 A 
ATOM     23  C   UNL     1      -2.666  11.800  23.020  0.00  0.00    +0.000 A 
ENDBRANCH   1  22
BRANCH   2  24
ATOM     24  S   UNL     1      -1.712  12.660  19.467  0.00  0.00    +0.000 S 
BRANCH  24  25
ATOM     25  C   UNL     1      -2.428  12.058  17.928  0.00  0.00    +0.000 C 
BRANCH  25  26
ATOM     26  C   UNL     1      -3.572  11.055  18.068  0.00  0.00    +0.000 C 
ATOM     27  O   UNL     1      -3.480   9.895  17.661  0.00  0.00    +0.000 OA
ATOM     28  N   UNL     1      -4.739  11.526  18.703  0.00  0.00    +0.000 N 
ATOM     29  C   UNL     1      -4.970  12.913  19.116  0.00  0.00    +0.000 C 
ATOM     30  C   UNL     1      -5.687  12.992  20.464  0.00  0.00    +0.000 C 
ATOM     31  C   UNL     1      -6.974  12.158  20.491  0.00  0.00    +0.000 C 
ATOM     32  C   UNL     1      -7.569  12.143  21.902  0.00  0.00    +0.000 C 
ATOM     33  C   UNL     1      -6.702  10.728  20.003  0.00  0.00    +0.000 C 
ATOM     34  C   UNL     1      -5.944  10.695  18.674  0.00  0.00    +0.000 C 
ENDBRANCH  25  26
ENDBRANCH  24  25
ENDBRANCH   2  24
TORSDOF 4
ENDMDL
