MODEL 1
REMARK VINA RESULT:      -7.8      0.000      0.000
REMARK  Name = 
REMARK  9 active torsions:
REMARK  status: ('A' for Active; 'I' for Inactive)
REMARK    1  A    between atoms: C_1  and  C_2
REMARK    2  A    between atoms: C_6  and  N_7
REMARK    3  A    between atoms: C_8  and  C_10
REMARK    4  A    between atoms: C_10  and  S_11
REMARK    5  A    between atoms: S_11  and  C_12
REMARK    6  A    between atoms: N_16  and  C_17
REMARK    7  A    between atoms: C_17  and  C_18
REMARK    8  A    between atoms: C_18  and  C_19
REMARK    9  A    between atoms: C_19  and  N_20
REMARK                            x       y       z     vdW  Elec       q    Type
REMARK                         _______ _______ _______ _____ _____    ______ ____
ROOT
ATOM      1  C   UNL     1       0.944   8.904  20.422  0.00  0.00    +0.000 A 
ATOM      2  N   UNL     1       1.080   8.811  21.687  0.00  0.00    +0.000 NA
ATOM      3  C   UNL     1       0.386   9.687  22.485  0.00  0.00    +0.000 A 
ATOM      4  O   UNL     1       0.532   9.636  23.704  0.00  0.00    +0.000 OA
ATOM      5  N   UNL     1      -0.448  10.670  21.879  0.00  0.00    +0.000 N 
ATOM      6  C   UNL     1      -0.536  10.781  20.485  0.00  0.00    +0.000 A 
ATOM      7  C   UNL     1       0.058   9.854  19.708  0.00  0.00    +0.000 A 
ATOM      8  C   UNL     1      -0.118   9.772  18.214  0.00  0.00    +0.000 C 
ATOM      9  C   UNL     1      -1.261  10.634  17.693  0.00  0.00    +0.000 C 
ATOM     10  C   UNL     1      -1.159  12.018  18.299  0.00  0.00    +0.000 C 
ATOM     11  C   UNL     1      -1.276  11.928  19.823  0.00  0.00    +0.000 C 
ENDROOT
BRANCH   1  12
ATOM     12  S   UNL     1       1.997   7.947  19.392  0.00  0.00    +0.000 S 
BRANCH  12  13
ATOM     13  C   UNL     1       2.063   6.343  20.228  0.00  0.00    +0.000 C 
BRANCH  13  15
ATOM     14  N   UNL     1       4.147   6.144  18.948  0.00  0.00    +0.000 N 
ATOM     15  C   UNL     1       3.030   5.466  19.433  0.00  0.00    +0.000 C 
ATOM     16  O   UNL     1       2.755   4.286  19.218  0.00  0.00    +0.000 OA
ATOM     17  H   UNL     1       4.156   7.149  19.065  0.00  0.00    +0.000 HD
BRANCH  14  23
ATOM     18  C   UNL     1       5.558   4.447  14.513  0.00  0.00    +0.000 C 
ATOM     19  C   UNL     1       5.873   4.760  15.946  0.00  0.00    +0.000 A 
ATOM     20  C   UNL     1       7.136   4.466  16.466  0.00  0.00    +0.000 A 
ATOM     21  C   UNL     1       7.423   4.738  17.800  0.00  0.00    +0.000 A 
ATOM     22  C   UNL     1       6.449   5.296  18.630  0.00  0.00    +0.000 A 
ATOM     23  C   UNL     1       5.175   5.593  18.142  0.00  0.00    +0.000 A 
ATOM     24  C   UNL     1       4.899   5.334  16.788  0.00  0.00    +0.000 A 
ENDBRANCH  14  23
ENDBRANCH  13  15
ENDBRANCH  12  13
ENDBRANCH   1  12
BRANCH   5  25
ATOM     25  C   UNL     1      -0.989  11.631  22.846  0.00  0.00    +0.000 C 
BRANCH  25  26
ATOM     26  C   UNL     1      -2.458  11.744  23.227  0.00  0.00    +0.000 C 
BRANCH  26  27
ATOM     27  C   UNL     1      -3.064  13.097  23.638  0.00  0.00    +0.000 C 
BRANCH  27  28
ATOM     28  N   UNL     1      -3.616  13.692  22.407  0.00  0.00    +0.000 NA
ATOM     29  C   UNL     1      -4.312  14.979  22.619  0.00  0.00    +0.000 C 
ATOM     30  C   UNL     1      -5.742  14.815  23.141  0.00  0.00    +0.000 C 
ATOM     31  O   UNL     1      -6.521  14.072  22.201  0.00  0.00    +0.000 OA
ATOM     32  C   UNL     1      -5.960  12.766  22.012  0.00  0.00    +0.000 C 
ATOM     33  C   UNL     1      -4.478  12.813  21.595  0.00  0.00    +0.000 C 
ENDBRANCH  27  28
ENDBRANCH  26  27
ENDBRANCH  25  26
ENDBRANCH   5  25
TORSDOF 8
ENDMDL
MODEL 2
REMARK VINA RESULT:      -7.7      0.536      1.027
REMARK  Name = 
REMARK  9 active torsions:
REMARK  status: ('A' for Active; 'I' for Inactive)
REMARK    1  A    between atoms: C_1  and  C_2
REMARK    2  A    between atoms: C_6  and  N_7
REMARK    3  A    between atoms: C_8  and  C_10
REMARK    4  A    between atoms: C_10  and  S_11
REMARK    5  A    between atoms: S_11  and  C_12
REMARK    6  A    between atoms: N_16  and  C_17
REMARK    7  A    between atoms: C_17  and  C_18
REMARK    8  A    between atoms: C_18  and  C_19
REMARK    9  A    between atoms: C_19  and  N_20
REMARK                            x       y       z     vdW  Elec       q    Type
REMARK                         _______ _______ _______ _____ _____    ______ ____
ROOT
ATOM      1  C   UNL     1       0.890   8.995  20.325  0.00  0.00    +0.000 A 
ATOM      2  N   UNL     1       1.074   8.883  21.583  0.00  0.00    +0.000 NA
ATOM      3  C   UNL     1       0.395   9.734  22.421  0.00  0.00    +0.000 A 
ATOM      4  O   UNL     1       0.587   9.666  23.632  0.00  0.00    +0.000 OA
ATOM      5  N   UNL     1      -0.476  10.714  21.862  0.00  0.00    +0.000 N 
ATOM      6  C   UNL     1      -0.616  10.846  20.474  0.00  0.00    +0.000 A 
ATOM      7  C   UNL     1      -0.036   9.942  19.660  0.00  0.00    +0.000 A 
ATOM      8  C   UNL     1      -0.265   9.882  18.172  0.00  0.00    +0.000 C 
ATOM      9  C   UNL     1      -1.440  10.734  17.708  0.00  0.00    +0.000 C 
ATOM     10  C   UNL     1      -1.337  12.109  18.334  0.00  0.00    +0.000 C 
ATOM     11  C   UNL     1      -1.398  11.991  19.859  0.00  0.00    +0.000 C 
ENDROOT
BRANCH   1  12
ATOM     12  S   UNL     1       1.920   8.073  19.242  0.00  0.00    +0.000 S 
BRANCH  12  13
ATOM     13  C   UNL     1       2.112   6.485  20.089  0.00  0.00    +0.000 C 
BRANCH  13  15
ATOM     14  N   UNL     1       4.244   6.177  18.916  0.00  0.00    +0.000 N 
ATOM     15  C   UNL     1       3.004   5.613  19.205  0.00  0.00    +0.000 C 
ATOM     16  O   UNL     1       2.578   4.547  18.765  0.00  0.00    +0.000 OA
ATOM     17  H   UNL     1       4.392   7.134  19.213  0.00  0.00    +0.000 HD
BRANCH  14  23
ATOM     18  C   UNL     1       5.511   4.433  14.455  0.00  0.00    +0.000 C 
ATOM     19  C   UNL     1       5.871   4.759  15.875  0.00  0.00    +0.000 A 
ATOM     20  C   UNL     1       7.150   4.465  16.358  0.00  0.00    +0.000 A 
ATOM     21  C   UNL     1       7.479   4.749  17.680  0.00  0.00    +0.000 A 
ATOM     22  C   UNL     1       6.533   5.319  18.534  0.00  0.00    +0.000 A 
ATOM     23  C   UNL     1       5.245   5.615  18.083  0.00  0.00    +0.000 A 
ATOM     24  C   UNL     1       4.926   5.344  16.742  0.00  0.00    +0.000 A 
ENDBRANCH  14  23
ENDBRANCH  13  15
ENDBRANCH  12  13
ENDBRANCH   1  12
BRANCH   5  25
ATOM     25  C   UNL     1      -0.996  11.649  22.864  0.00  0.00    +0.000 C 
BRANCH  25  26
ATOM     26  C   UNL     1      -2.471  11.844  23.185  0.00  0.00    +0.000 C 
BRANCH  26  27
ATOM     27  C   UNL     1      -3.031  13.241  23.503  0.00  0.00    +0.000 C 
BRANCH  27  28
ATOM     28  N   UNL     1      -4.469  13.192  23.180  0.00  0.00    +0.000 NA
ATOM     29  C   UNL     1      -4.761  12.778  21.791  0.00  0.00    +0.000 C 
ATOM     30  C   UNL     1      -4.606  13.913  20.776  0.00  0.00    +0.000 C 
ATOM     31  O   UNL     1      -5.508  14.976  21.091  0.00  0.00    +0.000 OA
ATOM     32  C   UNL     1      -5.226  15.499  22.395  0.00  0.00    +0.000 C 
ATOM     33  C   UNL     1      -5.241  14.410  23.486  0.00  0.00    +0.000 C 
ENDBRANCH  27  28
ENDBRANCH  26  27
ENDBRANCH  25  26
ENDBRANCH   5  25
TORSDOF 8
ENDMDL
MODEL 3
REMARK VINA RESULT:      -7.5      4.809      9.970
REMARK  Name = 
REMARK  9 active torsions:
REMARK  status: ('A' for Active; 'I' for Inactive)
REMARK    1  A    between atoms: C_1  and  C_2
REMARK    2  A    between atoms: C_6  and  N_7
REMARK    3  A    between atoms: C_8  and  C_10
REMARK    4  A    between atoms: C_10  and  S_11
REMARK    5  A    between atoms: S_11  and  C_12
REMARK    6  A    between atoms: N_16  and  C_17
REMARK    7  A    between atoms: C_17  and  C_18
REMARK    8  A    between atoms: C_18  and  C_19
REMARK    9  A    between atoms: C_19  and  N_20
REMARK                            x       y       z     vdW  Elec       q    Type
REMARK                         _______ _______ _______ _____ _____    ______ ____
ROOT
ATOM      1  C   UNL     1       5.274   4.048  18.579  0.00  0.00    +0.000 A 
ATOM      2  N   UNL     1       5.850   4.565  19.594  0.00  0.00    +0.000 NA
ATOM      3  C   UNL     1       6.789   5.546  19.383  0.00  0.00    +0.000 A 
ATOM      4  O   UNL     1       7.380   6.030  20.345  0.00  0.00    +0.000 OA
ATOM      5  N   UNL     1       7.094   5.943  18.050  0.00  0.00    +0.000 N 
ATOM      6  C   UNL     1       6.483   5.319  16.954  0.00  0.00    +0.000 A 
ATOM      7  C   UNL     1       5.486   4.436  17.165  0.00  0.00    +0.000 A 
ATOM      8  C   UNL     1       4.642   3.844  16.066  0.00  0.00    +0.000 C 
ATOM      9  C   UNL     1       4.808   4.554  14.729  0.00  0.00    +0.000 C 
ATOM     10  C   UNL     1       6.283   4.738  14.440  0.00  0.00    +0.000 C 
ATOM     11  C   UNL     1       6.921   5.603  15.530  0.00  0.00    +0.000 C 
ENDROOT
BRANCH   1  12
ATOM     12  S   UNL     1       4.250   2.642  18.822  0.00  0.00    +0.000 S 
BRANCH  12  13
ATOM     13  C   UNL     1       3.058   3.197  20.066  0.00  0.00    +0.000 C 
BRANCH  13  15
ATOM     14  N   UNL     1       2.835   5.636  19.926  0.00  0.00    +0.000 N 
ATOM     15  C   UNL     1       2.338   4.413  19.483  0.00  0.00    +0.000 C 
ATOM     16  O   UNL     1       1.367   4.256  18.744  0.00  0.00    +0.000 OA
ATOM     17  H   UNL     1       3.531   5.607  20.661  0.00  0.00    +0.000 HD
BRANCH  14  23
ATOM     18  C   UNL     1       0.383   9.697  21.356  0.00  0.00    +0.000 C 
ATOM     19  C   UNL     1       1.121   8.927  20.300  0.00  0.00    +0.000 A 
ATOM     20  C   UNL     1       1.253   9.454  19.012  0.00  0.00    +0.000 A 
ATOM     21  C   UNL     1       1.919   8.732  18.027  0.00  0.00    +0.000 A 
ATOM     22  C   UNL     1       2.451   7.473  18.315  0.00  0.00    +0.000 A 
ATOM     23  C   UNL     1       2.327   6.917  19.589  0.00  0.00    +0.000 A 
ATOM     24  C   UNL     1       1.671   7.661  20.585  0.00  0.00    +0.000 A 
ENDBRANCH  14  23
ENDBRANCH  13  15
ENDBRANCH  12  13
ENDBRANCH   1  12
BRANCH   5  25
ATOM     25  C   UNL     1       8.225   6.873  17.978  0.00  0.00    +0.000 C 
BRANCH  25  26
ATOM     26  C   UNL     1       8.123   8.379  18.176  0.00  0.00    +0.000 C 
BRANCH  26  27
ATOM     27  C   UNL     1       9.276   9.169  18.819  0.00  0.00    +0.000 C 
BRANCH  27  28
ATOM     28  N   UNL     1       8.747  10.518  19.097  0.00  0.00    +0.000 NA
ATOM     29  C   UNL     1       8.917  11.473  17.982  0.00  0.00    +0.000 C 
ATOM     30  C   UNL     1      10.322  12.076  17.909  0.00  0.00    +0.000 C 
ATOM     31  O   UNL     1      10.609  12.789  19.113  0.00  0.00    +0.000 OA
ATOM     32  C   UNL     1      10.557  11.904  20.240  0.00  0.00    +0.000 C 
ATOM     33  C   UNL     1       9.216  11.152  20.342  0.00  0.00    +0.000 C 
ENDBRANCH  27  28
ENDBRANCH  26  27
ENDBRANCH  25  26
ENDBRANCH   5  25
TORSDOF 8
ENDMDL
MODEL 4
REMARK VINA RESULT:      -7.5      2.905     10.448
REMARK  Name = 
REMARK  9 active torsions:
REMARK  status: ('A' for Active; 'I' for Inactive)
REMARK    1  A    between atoms: C_1  and  C_2
REMARK    2  A    between atoms: C_6  and  N_7
REMARK    3  A    between atoms: C_8  and  C_10
REMARK    4  A    between atoms: C_10  and  S_11
REMARK    5  A    between atoms: S_11  and  C_12
REMARK    6  A    between atoms: N_16  and  C_17
REMARK    7  A    between atoms: C_17  and  C_18
REMARK    8  A    between atoms: C_18  and  C_19
REMARK    9  A    between atoms: C_19  and  N_20
REMARK                            x       y       z     vdW  Elec       q    Type
REMARK                         _______ _______ _______ _____ _____    ______ ____
ROOT
ATOM      1  C   UNL     1       0.933  11.055  19.200  0.00  0.00    +0.000 A 
ATOM      2  N   UNL     1       1.515  10.518  18.200  0.00  0.00    +0.000 NA
ATOM      3  C   UNL     1       1.937   9.216  18.310  0.00  0.00    +0.000 A 
ATOM      4  O   UNL     1       2.531   8.693  17.370  0.00  0.00    +0.000 OA
ATOM      5  N   UNL     1       1.725   8.516  19.533  0.00  0.00    +0.000 N 
ATOM      6  C   UNL     1       1.130   9.150  20.633  0.00  0.00    +0.000 A 
ATOM      7  C   UNL     1       0.619  10.389  20.487  0.00  0.00    +0.000 A 
ATOM      8  C   UNL     1      -0.194  11.092  21.543  0.00  0.00    +0.000 C 
ATOM      9  C   UNL     1      -0.648  10.170  22.667  0.00  0.00    +0.000 C 
ATOM     10  C   UNL     1       0.529   9.344  23.142  0.00  0.00    +0.000 C 
ATOM     11  C   UNL     1       1.056   8.481  21.992  0.00  0.00    +0.000 C 
ENDROOT
BRANCH   1  12
ATOM     12  S   UNL     1       0.599  12.778  19.151  0.00  0.00    +0.000 S 
BRANCH  12  13
ATOM     13  C   UNL     1      -0.808  12.904  18.019  0.00  0.00    +0.000 C 
BRANCH  13  15
ATOM     14  N   UNL     1      -2.491  13.346  19.749  0.00  0.00    +0.000 N 
ATOM     15  C   UNL     1      -2.043  12.440  18.791  0.00  0.00    +0.000 C 
ATOM     16  O   UNL     1      -2.513  11.322  18.583  0.00  0.00    +0.000 OA
ATOM     17  H   UNL     1      -1.906  14.155  19.921  0.00  0.00    +0.000 HD
BRANCH  14  23
ATOM     18  C   UNL     1      -4.040  12.583  24.393  0.00  0.00    +0.000 C 
ATOM     19  C   UNL     1      -4.343  12.784  22.936  0.00  0.00    +0.000 A 
ATOM     20  C   UNL     1      -5.664  12.733  22.483  0.00  0.00    +0.000 A 
ATOM     21  C   UNL     1      -5.944  12.899  21.129  0.00  0.00    +0.000 A 
ATOM     22  C   UNL     1      -4.908  13.108  20.216  0.00  0.00    +0.000 A 
ATOM     23  C   UNL     1      -3.578  13.155  20.639  0.00  0.00    +0.000 A 
ATOM     24  C   UNL     1      -3.305  13.006  22.009  0.00  0.00    +0.000 A 
ENDBRANCH  14  23
ENDBRANCH  13  15
ENDBRANCH  12  13
ENDBRANCH   1  12
BRANCH   5  25
ATOM     25  C   UNL     1       2.373   7.202  19.556  0.00  0.00    +0.000 C 
BRANCH  25  26
ATOM     26  C   UNL     1       1.847   5.962  18.846  0.00  0.00    +0.000 C 
BRANCH  26  27
ATOM     27  C   UNL     1       1.748   4.615  19.581  0.00  0.00    +0.000 C 
BRANCH  27  28
ATOM     28  N   UNL     1       1.529   3.592  18.541  0.00  0.00    +0.000 NA
ATOM     29  C   UNL     1       1.634   2.202  19.031  0.00  0.00    +0.000 C 
ATOM     30  C   UNL     1       3.078   1.712  19.162  0.00  0.00    +0.000 C 
ATOM     31  O   UNL     1       3.723   1.752  17.887  0.00  0.00    +0.000 OA
ATOM     32  C   UNL     1       3.748   3.094  17.383  0.00  0.00    +0.000 C 
ATOM     33  C   UNL     1       2.345   3.729  17.320  0.00  0.00    +0.000 C 
ENDBRANCH  27  28
ENDBRANCH  26  27
ENDBRANCH  25  26
ENDBRANCH   5  25
TORSDOF 8
ENDMDL
MODEL 5
REMARK VINA RESULT:      -7.4      3.059     10.695
REMARK  Name = 
REMARK  9 active torsions:
REMARK  status: ('A' for Active; 'I' for Inactive)
REMARK    1  A    between atoms: C_1  and  C_2
REMARK    2  A    between atoms: C_6  and  N_7
REMARK    3  A    between atoms: C_8  and  C_10
REMARK    4  A    between atoms: C_10  and  S_11
REMARK    5  A    between atoms: S_11  and  C_12
REMARK    6  A    between atoms: N_16  and  C_17
REMARK    7  A    between atoms: C_17  and  C_18
REMARK    8  A    between atoms: C_18  and  C_19
REMARK    9  A    between atoms: C_19  and  N_20
REMARK                            x       y       z     vdW  Elec       q    Type
REMARK                         _______ _______ _______ _____ _____    ______ ____
ROOT
ATOM      1  C   UNL     1       0.236  10.620  18.957  0.00  0.00    +0.000 A 
ATOM      2  N   UNL     1       0.847  10.080  17.976  0.00  0.00    +0.000 NA
ATOM      3  C   UNL     1       1.579   8.941  18.207  0.00  0.00    +0.000 A 
ATOM      4  O   UNL     1       2.202   8.428  17.281  0.00  0.00    +0.000 OA
ATOM      5  N   UNL     1       1.640   8.410  19.528  0.00  0.00    +0.000 N 
ATOM      6  C   UNL     1       1.002   9.055  20.595  0.00  0.00    +0.000 A 
ATOM      7  C   UNL     1       0.197  10.108  20.347  0.00  0.00    +0.000 A 
ATOM      8  C   UNL     1      -0.673  10.762  21.388  0.00  0.00    +0.000 C 
ATOM      9  C   UNL     1      -0.800   9.947  22.669  0.00  0.00    +0.000 C 
ATOM     10  C   UNL     1       0.576   9.494  23.109  0.00  0.00    +0.000 C 
ATOM     11  C   UNL     1       1.201   8.606  22.030  0.00  0.00    +0.000 C 
ENDROOT
BRANCH   1  12
ATOM     12  S   UNL     1      -0.506  12.194  18.721  0.00  0.00    +0.000 S 
BRANCH  12  13
ATOM     13  C   UNL     1      -1.961  11.827  17.707  0.00  0.00    +0.000 C 
BRANCH  13  15
ATOM     14  N   UNL     1      -3.040  12.853  19.657  0.00  0.00    +0.000 N 
ATOM     15  C   UNL     1      -3.180  11.930  18.624  0.00  0.00    +0.000 C 
ATOM     16  O   UNL     1      -4.143  11.184  18.451  0.00  0.00    +0.000 OA
ATOM     17  H   UNL     1      -2.126  13.275  19.772  0.00  0.00    +0.000 HD
BRANCH  14  23
ATOM     18  C   UNL     1      -7.288  15.023  20.994  0.00  0.00    +0.000 C 
ATOM     19  C   UNL     1      -6.092  14.184  21.336  0.00  0.00    +0.000 A 
ATOM     20  C   UNL     1      -5.911  13.723  22.643  0.00  0.00    +0.000 A 
ATOM     21  C   UNL     1      -4.792  12.961  22.966  0.00  0.00    +0.000 A 
ATOM     22  C   UNL     1      -3.839  12.661  21.990  0.00  0.00    +0.000 A 
ATOM     23  C   UNL     1      -3.988  13.116  20.679  0.00  0.00    +0.000 A 
ATOM     24  C   UNL     1      -5.130  13.867  20.356  0.00  0.00    +0.000 A 
ENDBRANCH  14  23
ENDBRANCH  13  15
ENDBRANCH  12  13
ENDBRANCH   1  12
BRANCH   5  25
ATOM     25  C   UNL     1       2.586   7.296  19.648  0.00  0.00    +0.000 C 
BRANCH  25  26
ATOM     26  C   UNL     1       2.191   5.838  19.831  0.00  0.00    +0.000 C 
BRANCH  26  27
ATOM     27  C   UNL     1       2.197   4.864  18.640  0.00  0.00    +0.000 C 
BRANCH  27  28
ATOM     28  N   UNL     1       1.918   3.528  19.198  0.00  0.00    +0.000 NA
ATOM     29  C   UNL     1       2.775   3.163  20.346  0.00  0.00    +0.000 C 
ATOM     30  C   UNL     1       4.162   2.663  19.931  0.00  0.00    +0.000 C 
ATOM     31  O   UNL     1       4.035   1.494  19.120  0.00  0.00    +0.000 OA
ATOM     32  C   UNL     1       3.292   1.791  17.931  0.00  0.00    +0.000 C 
ATOM     33  C   UNL     1       1.914   2.413  18.233  0.00  0.00    +0.000 C 
ENDBRANCH  27  28
ENDBRANCH  26  27
ENDBRANCH  25  26
ENDBRANCH   5  25
TORSDOF 8
ENDMDL
MODEL 6
REMARK VINA RESULT:      -7.4      2.543      3.307
REMARK  Name = 
REMARK  9 active torsions:
REMARK  status: ('A' for Active; 'I' for Inactive)
REMARK    1  A    between atoms: C_1  and  C_2
REMARK    2  A    between atoms: C_6  and  N_7
REMARK    3  A    between atoms: C_8  and  C_10
REMARK    4  A    between atoms: C_10  and  S_11
REMARK    5  A    between atoms: S_11  and  C_12
REMARK    6  A    between atoms: N_16  and  C_17
REMARK    7  A    between atoms: C_17  and  C_18
REMARK    8  A    between atoms: C_18  and  C_19
REMARK    9  A    between atoms: C_19  and  N_20
REMARK                            x       y       z     vdW  Elec       q    Type
REMARK                         _______ _______ _______ _____ _____    ______ ____
ROOT
ATOM      1  C   UNL     1       0.343  10.034  18.778  0.00  0.00    +0.000 A 
ATOM      2  N   UNL     1       1.102  10.487  19.698  0.00  0.00    +0.000 NA
ATOM      3  C   UNL     1       0.606  11.450  20.541  0.00  0.00    +0.000 A 
ATOM      4  O   UNL     1       1.334  11.924  21.410  0.00  0.00    +0.000 OA
ATOM      5  N   UNL     1      -0.727  11.917  20.357  0.00  0.00    +0.000 N 
ATOM      6  C   UNL     1      -1.520  11.439  19.305  0.00  0.00    +0.000 A 
ATOM      7  C   UNL     1      -1.070  10.418  18.547  0.00  0.00    +0.000 A 
ATOM      8  C   UNL     1      -1.905   9.710  17.511  0.00  0.00    +0.000 C 
ATOM      9  C   UNL     1      -3.388  10.041  17.603  0.00  0.00    +0.000 C 
ATOM     10  C   UNL     1      -3.559  11.541  17.715  0.00  0.00    +0.000 C 
ATOM     11  C   UNL     1      -2.872  12.049  18.986  0.00  0.00    +0.000 C 
ENDROOT
BRANCH   1  12
ATOM     12  S   UNL     1       1.038   8.979  17.558  0.00  0.00    +0.000 S 
BRANCH  12  13
ATOM     13  C   UNL     1       2.736   8.730  18.133  0.00  0.00    +0.000 C 
BRANCH  13  15
ATOM     14  N   UNL     1       1.930   6.465  18.622  0.00  0.00    +0.000 N 
ATOM     15  C   UNL     1       2.990   7.222  18.131  0.00  0.00    +0.000 C 
ATOM     16  O   UNL     1       4.084   6.784  17.777  0.00  0.00    +0.000 OA
ATOM     17  H   UNL     1       1.156   6.974  19.031  0.00  0.00    +0.000 HD
BRANCH  14  23
ATOM     18  C   UNL     1       1.575   2.582  21.679  0.00  0.00    +0.000 C 
ATOM     19  C   UNL     1       1.728   3.137  20.293  0.00  0.00    +0.000 A 
ATOM     20  C   UNL     1       1.894   2.273  19.207  0.00  0.00    +0.000 A 
ATOM     21  C   UNL     1       2.057   2.787  17.924  0.00  0.00    +0.000 A 
ATOM     22  C   UNL     1       2.065   4.168  17.715  0.00  0.00    +0.000 A 
ATOM     23  C   UNL     1       1.911   5.056  18.781  0.00  0.00    +0.000 A 
ATOM     24  C   UNL     1       1.727   4.529  20.071  0.00  0.00    +0.000 A 
ENDBRANCH  14  23
ENDBRANCH  13  15
ENDBRANCH  12  13
ENDBRANCH   1  12
BRANCH   5  25
ATOM     25  C   UNL     1      -1.056  13.054  21.222  0.00  0.00    +0.000 C 
BRANCH  25  26
ATOM     26  C   UNL     1      -1.849  12.958  22.517  0.00  0.00    +0.000 C 
BRANCH  26  27
ATOM     27  C   UNL     1      -3.260  12.344  22.535  0.00  0.00    +0.000 C 
BRANCH  27  28
ATOM     28  N   UNL     1      -4.203  13.478  22.512  0.00  0.00    +0.000 NA
ATOM     29  C   UNL     1      -4.827  13.769  23.820  0.00  0.00    +0.000 C 
ATOM     30  C   UNL     1      -5.999  12.843  24.152  0.00  0.00    +0.000 C 
ATOM     31  O   UNL     1      -7.023  12.981  23.165  0.00  0.00    +0.000 OA
ATOM     32  C   UNL     1      -6.519  12.621  21.872  0.00  0.00    +0.000 C 
ATOM     33  C   UNL     1      -5.259  13.418  21.485  0.00  0.00    +0.000 C 
ENDBRANCH  27  28
ENDBRANCH  26  27
ENDBRANCH  25  26
ENDBRANCH   5  25
TORSDOF 8
ENDMDL
MODEL 7
REMARK VINA RESULT:      -7.4      3.693      5.068
REMARK  Name = 
REMARK  9 active torsions:
REMARK  status: ('A' for Active; 'I' for Inactive)
REMARK    1  A    between atoms: C_1  and  C_2
REMARK    2  A    between atoms: C_6  and  N_7
REMARK    3  A    between atoms: C_8  and  C_10
REMARK    4  A    between atoms: C_10  and  S_11
REMARK    5  A    between atoms: S_11  and  C_12
REMARK    6  A    between atoms: N_16  and  C_17
REMARK    7  A    between atoms: C_17  and  C_18
REMARK    8  A    between atoms: C_18  and  C_19
REMARK    9  A    between atoms: C_19  and  N_20
REMARK                            x       y       z     vdW  Elec       q    Type
REMARK                         _______ _______ _______ _____ _____    ______ ____
ROOT
ATOM      1  C   UNL     1       1.752   7.577  20.062  0.00  0.00    +0.000 A 
ATOM      2  N   UNL     1       2.233   7.763  18.895  0.00  0.00    +0.000 NA
ATOM      3  C   UNL     1       2.091   9.002  18.318  0.00  0.00    +0.000 A 
ATOM      4  O   UNL     1       2.516   9.189  17.181  0.00  0.00    +0.000 OA
ATOM      5  N   UNL     1       1.405  10.027  19.032  0.00  0.00    +0.000 N 
ATOM      6  C   UNL     1       0.842   9.777  20.290  0.00  0.00    +0.000 A 
ATOM      7  C   UNL     1       1.077   8.598  20.899  0.00  0.00    +0.000 A 
ATOM      8  C   UNL     1       0.673   8.290  22.318  0.00  0.00    +0.000 C 
ATOM      9  C   UNL     1       0.251   9.523  23.106  0.00  0.00    +0.000 C 
ATOM     10  C   UNL     1      -0.720  10.337  22.276  0.00  0.00    +0.000 C 
ATOM     11  C   UNL     1      -0.039  10.798  20.984  0.00  0.00    +0.000 C 
ENDROOT
BRANCH   1  12
ATOM     12  S   UNL     1       1.725   5.945  20.709  0.00  0.00    +0.000 S 
BRANCH  12  13
ATOM     13  C   UNL     1       1.610   4.906  19.231  0.00  0.00    +0.000 C 
BRANCH  13  15
ATOM     14  N   UNL     1       3.578   5.156  17.788  0.00  0.00    +0.000 N 
ATOM     15  C   UNL     1       3.033   4.477  18.875  0.00  0.00    +0.000 C 
ATOM     16  O   UNL     1       3.570   3.558  19.492  0.00  0.00    +0.000 OA
ATOM     17  H   UNL     1       2.957   5.772  17.277  0.00  0.00    +0.000 HD
BRANCH  14  23
ATOM     18  C   UNL     1       6.224   3.895  13.794  0.00  0.00    +0.000 C 
ATOM     19  C   UNL     1       6.161   4.310  15.235  0.00  0.00    +0.000 A 
ATOM     20  C   UNL     1       7.335   4.417  15.985  0.00  0.00    +0.000 A 
ATOM     21  C   UNL     1       7.276   4.782  17.327  0.00  0.00    +0.000 A 
ATOM     22  C   UNL     1       6.044   5.035  17.934  0.00  0.00    +0.000 A 
ATOM     23  C   UNL     1       4.854   4.927  17.213  0.00  0.00    +0.000 A 
ATOM     24  C   UNL     1       4.923   4.577  15.853  0.00  0.00    +0.000 A 
ENDBRANCH  14  23
ENDBRANCH  13  15
ENDBRANCH  12  13
ENDBRANCH   1  12
BRANCH   5  25
ATOM     25  C   UNL     1       1.189  11.233  18.226  0.00  0.00    +0.000 C 
BRANCH  25  26
ATOM     26  C   UNL     1       2.023  12.503  18.324  0.00  0.00    +0.000 C 
BRANCH  26  27
ATOM     27  C   UNL     1       1.400  13.817  18.826  0.00  0.00    +0.000 C 
BRANCH  27  28
ATOM     28  N   UNL     1       2.524  14.661  19.274  0.00  0.00    +0.000 NA
ATOM     29  C   UNL     1       2.132  16.033  19.658  0.00  0.00    +0.000 C 
ATOM     30  C   UNL     1       1.951  16.969  18.460  0.00  0.00    +0.000 C 
ATOM     31  O   UNL     1       3.178  17.075  17.736  0.00  0.00    +0.000 OA
ATOM     32  C   UNL     1       3.580  15.790  17.244  0.00  0.00    +0.000 C 
ATOM     33  C   UNL     1       3.680  14.734  18.362  0.00  0.00    +0.000 C 
ENDBRANCH  27  28
ENDBRANCH  26  27
ENDBRANCH  25  26
ENDBRANCH   5  25
TORSDOF 8
ENDMDL
MODEL 8
REMARK VINA RESULT:      -7.3      5.141      8.865
REMARK  Name = 
REMARK  9 active torsions:
REMARK  status: ('A' for Active; 'I' for Inactive)
REMARK    1  A    between atoms: C_1  and  C_2
REMARK    2  A    between atoms: C_6  and  N_7
REMARK    3  A    between atoms: C_8  and  C_10
REMARK    4  A    between atoms: C_10  and  S_11
REMARK    5  A    between atoms: S_11  and  C_12
REMARK    6  A    between atoms: N_16  and  C_17
REMARK    7  A    between atoms: C_17  and  C_18
REMARK    8  A    between atoms: C_18  and  C_19
REMARK    9  A    between atoms: C_19  and  N_20
REMARK                            x       y       z     vdW  Elec       q    Type
REMARK                         _______ _______ _______ _____ _____    ______ ____
ROOT
ATOM      1  C   UNL     1       1.206  11.813  19.482  0.00  0.00    +0.000 A 
ATOM      2  N   UNL     1       1.709  11.297  18.429  0.00  0.00    +0.000 NA
ATOM      3  C   UNL     1       1.724   9.929  18.313  0.00  0.00    +0.000 A 
ATOM      4  O   UNL     1       2.236   9.414  17.322  0.00  0.00    +0.000 OA
ATOM      5  N   UNL     1       1.193   9.135  19.370  0.00  0.00    +0.000 N 
ATOM      6  C   UNL     1       0.695   9.729  20.538  0.00  0.00    +0.000 A 
ATOM      7  C   UNL     1       0.581  11.070  20.602  0.00  0.00    +0.000 A 
ATOM      8  C   UNL     1      -0.101  11.802  21.729  0.00  0.00    +0.000 C 
ATOM      9  C   UNL     1      -0.916  10.889  22.636  0.00  0.00    +0.000 C 
ATOM     10  C   UNL     1      -0.083   9.680  23.006  0.00  0.00    +0.000 C 
ATOM     11  C   UNL     1       0.290   8.900  21.742  0.00  0.00    +0.000 C 
ENDROOT
BRANCH   1  12
ATOM     12  S   UNL     1       1.390  13.540  19.741  0.00  0.00    +0.000 S 
BRANCH  12  13
ATOM     13  C   UNL     1       2.339  14.085  18.300  0.00  0.00    +0.000 C 
BRANCH  13  15
ATOM     14  N   UNL     1       4.688  14.559  17.772  0.00  0.00    +0.000 N 
ATOM     15  C   UNL     1       3.750  14.406  18.791  0.00  0.00    +0.000 C 
ATOM     16  O   UNL     1       3.987  14.444  19.998  0.00  0.00    +0.000 OA
ATOM     17  H   UNL     1       4.381  14.337  16.833  0.00  0.00    +0.000 HD
BRANCH  14  23
ATOM     18  C   UNL     1       9.321  12.809  17.645  0.00  0.00    +0.000 C 
ATOM     19  C   UNL     1       8.364  13.943  17.870  0.00  0.00    +0.000 A 
ATOM     20  C   UNL     1       8.842  15.191  18.281  0.00  0.00    +0.000 A 
ATOM     21  C   UNL     1       7.954  16.238  18.510  0.00  0.00    +0.000 A 
ATOM     22  C   UNL     1       6.581  16.046  18.341  0.00  0.00    +0.000 A 
ATOM     23  C   UNL     1       6.074  14.808  17.941  0.00  0.00    +0.000 A 
ATOM     24  C   UNL     1       6.978  13.762  17.692  0.00  0.00    +0.000 A 
ENDBRANCH  14  23
ENDBRANCH  13  15
ENDBRANCH  12  13
ENDBRANCH   1  12
BRANCH   5  25
ATOM     25  C   UNL     1       1.429   7.701  19.178  0.00  0.00    +0.000 C 
BRANCH  25  26
ATOM     26  C   UNL     1       2.636   6.941  19.709  0.00  0.00    +0.000 C 
BRANCH  26  27
ATOM     27  C   UNL     1       3.180   5.708  18.967  0.00  0.00    +0.000 C 
BRANCH  27  28
ATOM     28  N   UNL     1       3.347   4.655  19.986  0.00  0.00    +0.000 NA
ATOM     29  C   UNL     1       3.675   3.325  19.431  0.00  0.00    +0.000 C 
ATOM     30  C   UNL     1       2.453   2.571  18.901  0.00  0.00    +0.000 C 
ATOM     31  O   UNL     1       1.515   2.359  19.959  0.00  0.00    +0.000 OA
ATOM     32  C   UNL     1       1.073   3.614  20.491  0.00  0.00    +0.000 C 
ATOM     33  C   UNL     1       2.241   4.508  20.950  0.00  0.00    +0.000 C 
ENDBRANCH  27  28
ENDBRANCH  26  27
ENDBRANCH  25  26
ENDBRANCH   5  25
TORSDOF 8
ENDMDL
MODEL 9
REMARK VINA RESULT:      -7.3      2.162      3.005
REMARK  Name = 
REMARK  9 active torsions:
REMARK  status: ('A' for Active; 'I' for Inactive)
REMARK    1  A    between atoms: C_1  and  C_2
REMARK    2  A    between atoms: C_6  and  N_7
REMARK    3  A    between atoms: C_8  and  C_10
REMARK    4  A    between atoms: C_10  and  S_11
REMARK    5  A    between atoms: S_11  and  C_12
REMARK    6  A    between atoms: N_16  and  C_17
REMARK    7  A    between atoms: C_17  and  C_18
REMARK    8  A    between atoms: C_18  and  C_19
REMARK    9  A    between atoms: C_19  and  N_20
REMARK                            x       y       z     vdW  Elec       q    Type
REMARK                         _______ _______ _______ _____ _____    ______ ____
ROOT
ATOM      1  C   UNL     1       0.056  10.098  18.845  0.00  0.00    +0.000 A 
ATOM      2  N   UNL     1       0.656  10.480  19.905  0.00  0.00    +0.000 NA
ATOM      3  C   UNL     1      -0.010  11.315  20.768  0.00  0.00    +0.000 A 
ATOM      4  O   UNL     1       0.564  11.722  21.775  0.00  0.00    +0.000 OA
ATOM      5  N   UNL     1      -1.334  11.734  20.450  0.00  0.00    +0.000 N 
ATOM      6  C   UNL     1      -1.947  11.341  19.253  0.00  0.00    +0.000 A 
ATOM      7  C   UNL     1      -1.335  10.436  18.462  0.00  0.00    +0.000 A 
ATOM      8  C   UNL     1      -1.977   9.810  17.250  0.00  0.00    +0.000 C 
ATOM      9  C   UNL     1      -3.477  10.055  17.168  0.00  0.00    +0.000 C 
ATOM     10  C   UNL     1      -3.758  11.522  17.414  0.00  0.00    +0.000 C 
ATOM     11  C   UNL     1      -3.280  11.915  18.814  0.00  0.00    +0.000 C 
ENDROOT
BRANCH   1  12
ATOM     12  S   UNL     1       0.974   9.224  17.630  0.00  0.00    +0.000 S 
BRANCH  12  13
ATOM     13  C   UNL     1       2.554   8.895  18.449  0.00  0.00    +0.000 C 
BRANCH  13  15
ATOM     14  N   UNL     1       2.917   6.569  17.759  0.00  0.00    +0.000 N 
ATOM     15  C   UNL     1       2.567   7.411  18.812  0.00  0.00    +0.000 C 
ATOM     16  O   UNL     1       2.222   7.050  19.937  0.00  0.00    +0.000 OA
ATOM     17  H   UNL     1       3.016   6.997  16.846  0.00  0.00    +0.000 HD
BRANCH  14  23
ATOM     18  C   UNL     1       0.604   2.319  18.824  0.00  0.00    +0.000 C 
ATOM     19  C   UNL     1       1.814   3.052  18.319  0.00  0.00    +0.000 A 
ATOM     20  C   UNL     1       2.958   2.341  17.948  0.00  0.00    +0.000 A 
ATOM     21  C   UNL     1       4.087   3.020  17.499  0.00  0.00    +0.000 A 
ATOM     22  C   UNL     1       4.086   4.415  17.426  0.00  0.00    +0.000 A 
ATOM     23  C   UNL     1       2.961   5.152  17.798  0.00  0.00    +0.000 A 
ATOM     24  C   UNL     1       1.818   4.458  18.232  0.00  0.00    +0.000 A 
ENDBRANCH  14  23
ENDBRANCH  13  15
ENDBRANCH  12  13
ENDBRANCH   1  12
BRANCH   5  25
ATOM     25  C   UNL     1      -1.848  12.748  21.376  0.00  0.00    +0.000 C 
BRANCH  25  26
ATOM     26  C   UNL     1      -2.889  12.488  22.456  0.00  0.00    +0.000 C 
BRANCH  26  27
ATOM     27  C   UNL     1      -4.352  12.922  22.262  0.00  0.00    +0.000 C 
BRANCH  27  28
ATOM     28  N   UNL     1      -4.871  13.234  23.606  0.00  0.00    +0.000 NA
ATOM     29  C   UNL     1      -5.796  14.387  23.643  0.00  0.00    +0.000 C 
ATOM     30  C   UNL     1      -5.078  15.739  23.644  0.00  0.00    +0.000 C 
ATOM     31  O   UNL     1      -4.238  15.844  24.795  0.00  0.00    +0.000 OA
ATOM     32  C   UNL     1      -3.246  14.809  24.783  0.00  0.00    +0.000 C 
ATOM     33  C   UNL     1      -3.860  13.401  24.666  0.00  0.00    +0.000 C 
ENDBRANCH  27  28
ENDBRANCH  26  27
ENDBRANCH  25  26
ENDBRANCH   5  25
TORSDOF 8
ENDMDL
