MODEL 1
REMARK VINA RESULT:      -7.1      0.000      0.000
REMARK  Name = 
REMARK  6 active torsions:
REMARK  status: ('A' for Active; 'I' for Inactive)
REMARK    1  A    between atoms: C_1  and  O_2
REMARK    2  A    between atoms: O_2  and  C_3
REMARK    3  A    between atoms: C_12  and  C_13
REMARK    4  A    between atoms: C_13  and  N_14
REMARK    5  A    between atoms: N_14  and  C_15
REMARK    6  A    between atoms: C_15  and  C_16
REMARK                            x       y       z     vdW  Elec       q    Type
REMARK                         _______ _______ _______ _____ _____    ______ ____
ROOT
ATOM      1  C   UNL     1       1.695   8.295  19.918  0.00  0.00    +0.000 A 
ATOM      2  C   UNL     1       2.132   8.144  18.603  0.00  0.00    +0.000 A 
ATOM      3  C   UNL     1       2.438   6.884  18.078  0.00  0.00    +0.000 A 
ATOM      4  C   UNL     1       2.345   5.781  18.933  0.00  0.00    +0.000 A 
ATOM      5  C   UNL     1       1.898   5.906  20.248  0.00  0.00    +0.000 A 
ATOM      6  C   UNL     1       1.576   7.177  20.751  0.00  0.00    +0.000 A 
ATOM      7  N   UNL     1       1.840   4.682  20.867  0.00  0.00    +0.000 NA
ATOM      8  C   UNL     1       2.241   3.809  19.965  0.00  0.00    +0.000 A 
ATOM      9  N   UNL     1       2.628   4.444  18.807  0.00  0.00    +0.000 N 
ATOM     10  C   UNL     1       3.192   3.723  17.658  0.00  0.00    +0.000 C 
ATOM     11  C   UNL     1       3.536   2.284  18.083  0.00  0.00    +0.000 C 
ATOM     12  O   UNL     1       2.458   1.713  18.834  0.00  0.00    +0.000 OA
ATOM     13  C   UNL     1       2.340   2.331  20.125  0.00  0.00    +0.000 C 
ENDROOT
BRANCH   1  15
ATOM     14  C   UNL     1       0.926   9.432  21.844  0.00  0.00    +0.000 C 
ATOM     15  O   UNL     1       1.389   9.498  20.498  0.00  0.00    +0.000 OA
ENDBRANCH   1  15
BRANCH  10  16
ATOM     16  C   UNL     1       4.437   4.421  17.069  0.00  0.00    +0.000 C 
BRANCH  16  17
ATOM     17  N   UNL     1       5.717   3.852  17.508  0.00  0.00    +0.000 NA
ATOM     18  H   UNL     1       5.725   2.839  17.361  0.00  0.00    +0.000 HD
BRANCH  17  19
ATOM     19  C   UNL     1       6.817   4.412  16.696  0.00  0.00    +0.000 C 
BRANCH  19  20
ATOM     20  C   UNL     1       7.301   5.719  17.260  0.00  0.00    +0.000 A 
ATOM     21  N   UNL     1       7.356   6.847  16.577  0.00  0.00    +0.000 NA
ATOM     22  C   UNL     1       7.840   7.854  17.389  0.00  0.00    +0.000 A 
ATOM     23  C   UNL     1       8.155   7.481  18.677  0.00  0.00    +0.000 A 
ATOM     24  S   UNL     1       7.832   5.814  18.894  0.00  0.00    +0.000 S 
ENDBRANCH  19  20
ENDBRANCH  17  19
ENDBRANCH  16  17
ENDBRANCH  10  16
TORSDOF 5
ENDMDL
MODEL 2
REMARK VINA RESULT:      -7.1      0.977      1.098
REMARK  Name = 
REMARK  6 active torsions:
REMARK  status: ('A' for Active; 'I' for Inactive)
REMARK    1  A    between atoms: C_1  and  O_2
REMARK    2  A    between atoms: O_2  and  C_3
REMARK    3  A    between atoms: C_12  and  C_13
REMARK    4  A    between atoms: C_13  and  N_14
REMARK    5  A    between atoms: N_14  and  C_15
REMARK    6  A    between atoms: C_15  and  C_16
REMARK                            x       y       z     vdW  Elec       q    Type
REMARK                         _______ _______ _______ _____ _____    ______ ____
ROOT
ATOM      1  C   UNL     1       1.654   8.326  19.819  0.00  0.00    +0.000 A 
ATOM      2  C   UNL     1       2.184   8.188  18.537  0.00  0.00    +0.000 A 
ATOM      3  C   UNL     1       2.507   6.932  18.015  0.00  0.00    +0.000 A 
ATOM      4  C   UNL     1       2.333   5.817  18.841  0.00  0.00    +0.000 A 
ATOM      5  C   UNL     1       1.794   5.929  20.122  0.00  0.00    +0.000 A 
ATOM      6  C   UNL     1       1.456   7.197  20.623  0.00  0.00    +0.000 A 
ATOM      7  N   UNL     1       1.670   4.696  20.714  0.00  0.00    +0.000 NA
ATOM      8  C   UNL     1       2.122   3.831  19.829  0.00  0.00    +0.000 A 
ATOM      9  N   UNL     1       2.603   4.477  18.713  0.00  0.00    +0.000 N 
ATOM     10  C   UNL     1       3.238   3.765  17.596  0.00  0.00    +0.000 C 
ATOM     11  C   UNL     1       3.526   2.314  18.019  0.00  0.00    +0.000 C 
ATOM     12  O   UNL     1       2.387   1.750  18.680  0.00  0.00    +0.000 OA
ATOM     13  C   UNL     1       2.185   2.349  19.970  0.00  0.00    +0.000 C 
ENDROOT
BRANCH   1  15
ATOM     14  C   UNL     1      -0.050   9.885  20.328  0.00  0.00    +0.000 C 
ATOM     15  O   UNL     1       1.326   9.525  20.397  0.00  0.00    +0.000 OA
ENDBRANCH   1  15
BRANCH  10  16
ATOM     16  C   UNL     1       4.534   4.451  17.111  0.00  0.00    +0.000 C 
BRANCH  16  17
ATOM     17  N   UNL     1       5.473   3.557  16.423  0.00  0.00    +0.000 NA
ATOM     18  H   UNL     1       5.062   3.212  15.552  0.00  0.00    +0.000 HD
BRANCH  17  19
ATOM     19  C   UNL     1       6.694   4.304  16.056  0.00  0.00    +0.000 C 
BRANCH  19  20
ATOM     20  C   UNL     1       7.221   5.096  17.220  0.00  0.00    +0.000 A 
ATOM     21  N   UNL     1       7.682   4.560  18.334  0.00  0.00    +0.000 NA
ATOM     22  C   UNL     1       8.091   5.562  19.192  0.00  0.00    +0.000 A 
ATOM     23  C   UNL     1       7.930   6.848  18.726  0.00  0.00    +0.000 A 
ATOM     24  S   UNL     1       7.249   6.816  17.156  0.00  0.00    +0.000 S 
ENDBRANCH  19  20
ENDBRANCH  17  19
ENDBRANCH  16  17
ENDBRANCH  10  16
TORSDOF 5
ENDMDL
MODEL 3
REMARK VINA RESULT:      -7.1      3.103      6.129
REMARK  Name = 
REMARK  6 active torsions:
REMARK  status: ('A' for Active; 'I' for Inactive)
REMARK    1  A    between atoms: C_1  and  O_2
REMARK    2  A    between atoms: O_2  and  C_3
REMARK    3  A    between atoms: C_12  and  C_13
REMARK    4  A    between atoms: C_13  and  N_14
REMARK    5  A    between atoms: N_14  and  C_15
REMARK    6  A    between atoms: C_15  and  C_16
REMARK                            x       y       z     vdW  Elec       q    Type
REMARK                         _______ _______ _______ _____ _____    ______ ____
ROOT
ATOM      1  C   UNL     1       5.507   5.474  15.739  0.00  0.00    +0.000 A 
ATOM      2  C   UNL     1       5.273   6.513  16.639  0.00  0.00    +0.000 A 
ATOM      3  C   UNL     1       4.558   6.304  17.823  0.00  0.00    +0.000 A 
ATOM      4  C   UNL     1       4.034   5.029  18.051  0.00  0.00    +0.000 A 
ATOM      5  C   UNL     1       4.264   3.971  17.172  0.00  0.00    +0.000 A 
ATOM      6  C   UNL     1       5.002   4.194  15.998  0.00  0.00    +0.000 A 
ATOM      7  N   UNL     1       3.697   2.811  17.639  0.00  0.00    +0.000 NA
ATOM      8  C   UNL     1       3.124   3.130  18.781  0.00  0.00    +0.000 A 
ATOM      9  N   UNL     1       3.240   4.480  19.027  0.00  0.00    +0.000 N 
ATOM     10  C   UNL     1       2.626   5.129  20.194  0.00  0.00    +0.000 C 
ATOM     11  C   UNL     1       1.643   4.150  20.858  0.00  0.00    +0.000 C 
ATOM     12  O   UNL     1       2.237   2.853  20.985  0.00  0.00    +0.000 OA
ATOM     13  C   UNL     1       2.386   2.221  19.703  0.00  0.00    +0.000 C 
ENDROOT
BRANCH   1  15
ATOM     14  C   UNL     1       6.607   4.395  13.946  0.00  0.00    +0.000 C 
ATOM     15  O   UNL     1       6.188   5.611  14.558  0.00  0.00    +0.000 OA
ENDBRANCH   1  15
BRANCH  10  16
ATOM     16  C   UNL     1       1.909   6.448  19.832  0.00  0.00    +0.000 C 
BRANCH  16  17
ATOM     17  N   UNL     1       2.227   7.574  20.719  0.00  0.00    +0.000 NA
ATOM     18  H   UNL     1       2.742   8.295  20.206  0.00  0.00    +0.000 HD
BRANCH  17  19
ATOM     19  C   UNL     1       0.977   8.199  21.199  0.00  0.00    +0.000 C 
BRANCH  19  20
ATOM     20  C   UNL     1       0.885   9.637  20.769  0.00  0.00    +0.000 A 
ATOM     21  N   UNL     1       0.914  10.662  21.598  0.00  0.00    +0.000 NA
ATOM     22  C   UNL     1       0.814  11.838  20.880  0.00  0.00    +0.000 A 
ATOM     23  C   UNL     1       0.702  11.695  19.515  0.00  0.00    +0.000 A 
ATOM     24  S   UNL     1       0.729  10.034  19.102  0.00  0.00    +0.000 S 
ENDBRANCH  19  20
ENDBRANCH  17  19
ENDBRANCH  16  17
ENDBRANCH  10  16
TORSDOF 5
ENDMDL
MODEL 4
REMARK VINA RESULT:      -7.0      3.210      6.411
REMARK  Name = 
REMARK  6 active torsions:
REMARK  status: ('A' for Active; 'I' for Inactive)
REMARK    1  A    between atoms: C_1  and  O_2
REMARK    2  A    between atoms: O_2  and  C_3
REMARK    3  A    between atoms: C_12  and  C_13
REMARK    4  A    between atoms: C_13  and  N_14
REMARK    5  A    between atoms: N_14  and  C_15
REMARK    6  A    between atoms: C_15  and  C_16
REMARK                            x       y       z     vdW  Elec       q    Type
REMARK                         _______ _______ _______ _____ _____    ______ ____
ROOT
ATOM      1  C   UNL     1       5.337   5.576  15.934  0.00  0.00    +0.000 A 
ATOM      2  C   UNL     1       5.075   6.570  16.876  0.00  0.00    +0.000 A 
ATOM      3  C   UNL     1       4.335   6.300  18.032  0.00  0.00    +0.000 A 
ATOM      4  C   UNL     1       3.817   5.011  18.189  0.00  0.00    +0.000 A 
ATOM      5  C   UNL     1       4.076   3.997  17.267  0.00  0.00    +0.000 A 
ATOM      6  C   UNL     1       4.839   4.282  16.122  0.00  0.00    +0.000 A 
ATOM      7  N   UNL     1       3.509   2.812  17.666  0.00  0.00    +0.000 NA
ATOM      8  C   UNL     1       2.908   3.073  18.808  0.00  0.00    +0.000 A 
ATOM      9  N   UNL     1       3.006   4.411  19.120  0.00  0.00    +0.000 N 
ATOM     10  C   UNL     1       2.361   4.999  20.301  0.00  0.00    +0.000 C 
ATOM     11  C   UNL     1       1.372   3.982  20.897  0.00  0.00    +0.000 C 
ATOM     12  O   UNL     1       1.975   2.685  20.976  0.00  0.00    +0.000 OA
ATOM     13  C   UNL     1       2.158   2.116  19.670  0.00  0.00    +0.000 C 
ENDROOT
BRANCH   1  15
ATOM     14  C   UNL     1       7.070   4.822  14.513  0.00  0.00    +0.000 C 
ATOM     15  O   UNL     1       6.044   5.774  14.777  0.00  0.00    +0.000 OA
ENDBRANCH   1  15
BRANCH  10  16
ATOM     16  C   UNL     1       1.640   6.328  19.986  0.00  0.00    +0.000 C 
BRANCH  16  17
ATOM     17  N   UNL     1       1.778   7.355  21.026  0.00  0.00    +0.000 NA
ATOM     18  H   UNL     1       2.745   7.398  21.358  0.00  0.00    +0.000 HD
BRANCH  17  19
ATOM     19  C   UNL     1       1.458   8.682  20.462  0.00  0.00    +0.000 C 
BRANCH  19  20
ATOM     20  C   UNL     1       0.592   9.480  21.397  0.00  0.00    +0.000 A 
ATOM     21  N   UNL     1       0.193   9.056  22.581  0.00  0.00    +0.000 NA
ATOM     22  C   UNL     1      -0.580  10.030  23.183  0.00  0.00    +0.000 A 
ATOM     23  C   UNL     1      -0.767  11.180  22.448  0.00  0.00    +0.000 A 
ATOM     24  S   UNL     1       0.055  11.053  20.951  0.00  0.00    +0.000 S 
ENDBRANCH  19  20
ENDBRANCH  17  19
ENDBRANCH  16  17
ENDBRANCH  10  16
TORSDOF 5
ENDMDL
MODEL 5
REMARK VINA RESULT:      -7.0      2.120      2.676
REMARK  Name = 
REMARK  6 active torsions:
REMARK  status: ('A' for Active; 'I' for Inactive)
REMARK    1  A    between atoms: C_1  and  O_2
REMARK    2  A    between atoms: O_2  and  C_3
REMARK    3  A    between atoms: C_12  and  C_13
REMARK    4  A    between atoms: C_13  and  N_14
REMARK    5  A    between atoms: N_14  and  C_15
REMARK    6  A    between atoms: C_15  and  C_16
REMARK                            x       y       z     vdW  Elec       q    Type
REMARK                         _______ _______ _______ _____ _____    ______ ____
ROOT
ATOM      1  C   UNL     1       2.420   8.645  18.056  0.00  0.00    +0.000 A 
ATOM      2  C   UNL     1       3.289   7.863  17.295  0.00  0.00    +0.000 A 
ATOM      3  C   UNL     1       3.584   6.544  17.654  0.00  0.00    +0.000 A 
ATOM      4  C   UNL     1       3.024   6.048  18.835  0.00  0.00    +0.000 A 
ATOM      5  C   UNL     1       2.143   6.807  19.606  0.00  0.00    +0.000 A 
ATOM      6  C   UNL     1       1.842   8.123  19.218  0.00  0.00    +0.000 A 
ATOM      7  N   UNL     1       1.685   6.087  20.682  0.00  0.00    +0.000 NA
ATOM      8  C   UNL     1       2.263   4.906  20.591  0.00  0.00    +0.000 A 
ATOM      9  N   UNL     1       3.140   4.870  19.530  0.00  0.00    +0.000 N 
ATOM     10  C   UNL     1       3.981   3.702  19.236  0.00  0.00    +0.000 C 
ATOM     11  C   UNL     1       3.934   2.731  20.429  0.00  0.00    +0.000 C 
ATOM     12  O   UNL     1       2.584   2.554  20.876  0.00  0.00    +0.000 OA
ATOM     13  C   UNL     1       2.084   3.744  21.506  0.00  0.00    +0.000 C 
ENDROOT
BRANCH   1  15
ATOM     14  C   UNL     1       1.058  10.509  18.564  0.00  0.00    +0.000 C 
ATOM     15  O   UNL     1       2.096   9.945  17.769  0.00  0.00    +0.000 OA
ENDBRANCH   1  15
BRANCH  10  16
ATOM     16  C   UNL     1       5.442   4.086  18.914  0.00  0.00    +0.000 C 
BRANCH  16  17
ATOM     17  N   UNL     1       5.872   3.750  17.552  0.00  0.00    +0.000 NA
ATOM     18  H   UNL     1       5.061   3.662  16.935  0.00  0.00    +0.000 HD
BRANCH  17  19
ATOM     19  C   UNL     1       6.709   4.840  17.010  0.00  0.00    +0.000 C 
BRANCH  19  20
ATOM     20  C   UNL     1       6.837   4.739  15.515  0.00  0.00    +0.000 A 
ATOM     21  N   UNL     1       7.729   5.398  14.801  0.00  0.00    +0.000 NA
ATOM     22  C   UNL     1       7.579   5.076  13.466  0.00  0.00    +0.000 A 
ATOM     23  C   UNL     1       6.571   4.182  13.178  0.00  0.00    +0.000 A 
ATOM     24  S   UNL     1       5.779   3.716  14.622  0.00  0.00    +0.000 S 
ENDBRANCH  19  20
ENDBRANCH  17  19
ENDBRANCH  16  17
ENDBRANCH  10  16
TORSDOF 5
ENDMDL
MODEL 6
REMARK VINA RESULT:      -6.8      3.230      5.924
REMARK  Name = 
REMARK  6 active torsions:
REMARK  status: ('A' for Active; 'I' for Inactive)
REMARK    1  A    between atoms: C_1  and  O_2
REMARK    2  A    between atoms: O_2  and  C_3
REMARK    3  A    between atoms: C_12  and  C_13
REMARK    4  A    between atoms: C_13  and  N_14
REMARK    5  A    between atoms: N_14  and  C_15
REMARK    6  A    between atoms: C_15  and  C_16
REMARK                            x       y       z     vdW  Elec       q    Type
REMARK                         _______ _______ _______ _____ _____    ______ ____
ROOT
ATOM      1  C   UNL     1       5.549   5.438  16.158  0.00  0.00    +0.000 A 
ATOM      2  C   UNL     1       5.260   6.383  17.141  0.00  0.00    +0.000 A 
ATOM      3  C   UNL     1       4.421   6.080  18.218  0.00  0.00    +0.000 A 
ATOM      4  C   UNL     1       3.833   4.811  18.250  0.00  0.00    +0.000 A 
ATOM      5  C   UNL     1       4.116   3.846  17.285  0.00  0.00    +0.000 A 
ATOM      6  C   UNL     1       4.978   4.161  16.222  0.00  0.00    +0.000 A 
ATOM      7  N   UNL     1       3.465   2.669  17.560  0.00  0.00    +0.000 NA
ATOM      8  C   UNL     1       2.788   2.888  18.669  0.00  0.00    +0.000 A 
ATOM      9  N   UNL     1       2.925   4.196  19.076  0.00  0.00    +0.000 N 
ATOM     10  C   UNL     1       2.217   4.743  20.241  0.00  0.00    +0.000 C 
ATOM     11  C   UNL     1       1.138   3.742  20.692  0.00  0.00    +0.000 C 
ATOM     12  O   UNL     1       1.672   2.414  20.730  0.00  0.00    +0.000 OA
ATOM     13  C   UNL     1       1.930   1.919  19.407  0.00  0.00    +0.000 C 
ENDROOT
BRANCH   1  15
ATOM     14  C   UNL     1       6.627   4.536  14.256  0.00  0.00    +0.000 C 
ATOM     15  O   UNL     1       6.353   5.670  15.072  0.00  0.00    +0.000 OA
ENDBRANCH   1  15
BRANCH  10  16
ATOM     16  C   UNL     1       1.586   6.124  19.962  0.00  0.00    +0.000 C 
BRANCH  16  17
ATOM     17  N   UNL     1       2.196   7.232  20.706  0.00  0.00    +0.000 NA
ATOM     18  H   UNL     1       2.792   7.790  20.088  0.00  0.00    +0.000 HD
BRANCH  17  19
ATOM     19  C   UNL     1       1.141   8.133  21.213  0.00  0.00    +0.000 C 
BRANCH  19  20
ATOM     20  C   UNL     1       0.886   9.267  20.259  0.00  0.00    +0.000 A 
ATOM     21  N   UNL     1       1.528   9.437  19.119  0.00  0.00    +0.000 NA
ATOM     22  C   UNL     1       1.050  10.566  18.485  0.00  0.00    +0.000 A 
ATOM     23  C   UNL     1       0.056  11.249  19.151  0.00  0.00    +0.000 A 
ATOM     24  S   UNL     1      -0.306  10.454  20.623  0.00  0.00    +0.000 S 
ENDBRANCH  19  20
ENDBRANCH  17  19
ENDBRANCH  16  17
ENDBRANCH  10  16
TORSDOF 5
ENDMDL
MODEL 7
REMARK VINA RESULT:      -6.8      3.392      5.611
REMARK  Name = 
REMARK  6 active torsions:
REMARK  status: ('A' for Active; 'I' for Inactive)
REMARK    1  A    between atoms: C_1  and  O_2
REMARK    2  A    between atoms: O_2  and  C_3
REMARK    3  A    between atoms: C_12  and  C_13
REMARK    4  A    between atoms: C_13  and  N_14
REMARK    5  A    between atoms: N_14  and  C_15
REMARK    6  A    between atoms: C_15  and  C_16
REMARK                            x       y       z     vdW  Elec       q    Type
REMARK                         _______ _______ _______ _____ _____    ______ ____
ROOT
ATOM      1  C   UNL     1      -0.770  10.769  22.633  0.00  0.00    +0.000 A 
ATOM      2  C   UNL     1      -0.110   9.667  23.176  0.00  0.00    +0.000 A 
ATOM      3  C   UNL     1       0.721   8.858  22.394  0.00  0.00    +0.000 A 
ATOM      4  C   UNL     1       0.827   9.156  21.032  0.00  0.00    +0.000 A 
ATOM      5  C   UNL     1       0.186  10.259  20.469  0.00  0.00    +0.000 A 
ATOM      6  C   UNL     1      -0.628  11.073  21.274  0.00  0.00    +0.000 A 
ATOM      7  N   UNL     1       0.485  10.373  19.134  0.00  0.00    +0.000 NA
ATOM      8  C   UNL     1       1.293   9.368  18.863  0.00  0.00    +0.000 A 
ATOM      9  N   UNL     1       1.462   8.564  19.968  0.00  0.00    +0.000 N 
ATOM     10  C   UNL     1       2.250   7.325  19.934  0.00  0.00    +0.000 C 
ATOM     11  C   UNL     1       2.559   6.961  18.471  0.00  0.00    +0.000 C 
ATOM     12  O   UNL     1       3.001   8.118  17.751  0.00  0.00    +0.000 OA
ATOM     13  C   UNL     1       1.927   9.050  17.553  0.00  0.00    +0.000 C 
ENDROOT
BRANCH   1  15
ATOM     14  C   UNL     1      -1.622  12.956  22.917  0.00  0.00    +0.000 C 
ATOM     15  O   UNL     1      -1.605  11.595  23.338  0.00  0.00    +0.000 OA
ENDBRANCH   1  15
BRANCH  10  16
ATOM     16  C   UNL     1       1.543   6.149  20.643  0.00  0.00    +0.000 C 
BRANCH  16  17
ATOM     17  N   UNL     1       2.448   5.227  21.340  0.00  0.00    +0.000 NA
ATOM     18  H   UNL     1       2.437   5.412  22.346  0.00  0.00    +0.000 HD
BRANCH  17  19
ATOM     19  C   UNL     1       1.984   3.837  21.153  0.00  0.00    +0.000 C 
BRANCH  19  20
ATOM     20  C   UNL     1       2.405   3.296  19.815  0.00  0.00    +0.000 A 
ATOM     21  N   UNL     1       3.612   3.441  19.302  0.00  0.00    +0.000 NA
ATOM     22  C   UNL     1       3.666   2.823  18.068  0.00  0.00    +0.000 A 
ATOM     23  C   UNL     1       2.499   2.222  17.652  0.00  0.00    +0.000 A 
ATOM     24  S   UNL     1       1.285   2.425  18.841  0.00  0.00    +0.000 S 
ENDBRANCH  19  20
ENDBRANCH  17  19
ENDBRANCH  16  17
ENDBRANCH  10  16
TORSDOF 5
ENDMDL
MODEL 8
REMARK VINA RESULT:      -6.7      3.014      5.877
REMARK  Name = 
REMARK  6 active torsions:
REMARK  status: ('A' for Active; 'I' for Inactive)
REMARK    1  A    between atoms: C_1  and  O_2
REMARK    2  A    between atoms: O_2  and  C_3
REMARK    3  A    between atoms: C_12  and  C_13
REMARK    4  A    between atoms: C_13  and  N_14
REMARK    5  A    between atoms: N_14  and  C_15
REMARK    6  A    between atoms: C_15  and  C_16
REMARK                            x       y       z     vdW  Elec       q    Type
REMARK                         _______ _______ _______ _____ _____    ______ ____
ROOT
ATOM      1  C   UNL     1       6.405   4.732  16.984  0.00  0.00    +0.000 A 
ATOM      2  C   UNL     1       6.453   5.078  18.333  0.00  0.00    +0.000 A 
ATOM      3  C   UNL     1       5.418   4.738  19.210  0.00  0.00    +0.000 A 
ATOM      4  C   UNL     1       4.302   4.085  18.678  0.00  0.00    +0.000 A 
ATOM      5  C   UNL     1       4.236   3.718  17.334  0.00  0.00    +0.000 A 
ATOM      6  C   UNL     1       5.295   4.050  16.473  0.00  0.00    +0.000 A 
ATOM      7  N   UNL     1       3.071   3.043  17.065  0.00  0.00    +0.000 NA
ATOM      8  C   UNL     1       2.420   2.988  18.209  0.00  0.00    +0.000 A 
ATOM      9  N   UNL     1       3.097   3.674  19.192  0.00  0.00    +0.000 N 
ATOM     10  C   UNL     1       2.565   3.844  20.551  0.00  0.00    +0.000 C 
ATOM     11  C   UNL     1       1.086   3.419  20.572  0.00  0.00    +0.000 C 
ATOM     12  O   UNL     1       0.913   2.177  19.880  0.00  0.00    +0.000 OA
ATOM     13  C   UNL     1       1.103   2.339  18.466  0.00  0.00    +0.000 C 
ENDROOT
BRANCH   1  15
ATOM     14  C   UNL     1       7.022   4.847  14.704  0.00  0.00    +0.000 C 
ATOM     15  O   UNL     1       7.377   5.043  16.069  0.00  0.00    +0.000 OA
ENDBRANCH   1  15
BRANCH  10  16
ATOM     16  C   UNL     1       2.716   5.290  21.073  0.00  0.00    +0.000 C 
BRANCH  16  17
ATOM     17  N   UNL     1       1.642   6.201  20.658  0.00  0.00    +0.000 NA
ATOM     18  H   UNL     1       1.187   6.611  21.478  0.00  0.00    +0.000 HD
BRANCH  17  19
ATOM     19  C   UNL     1       2.211   7.319  19.878  0.00  0.00    +0.000 C 
BRANCH  19  20
ATOM     20  C   UNL     1       1.491   8.607  20.165  0.00  0.00    +0.000 A 
ATOM     21  N   UNL     1       1.171   9.499  19.248  0.00  0.00    +0.000 NA
ATOM     22  C   UNL     1       0.516  10.559  19.843  0.00  0.00    +0.000 A 
ATOM     23  C   UNL     1       0.352  10.466  21.208  0.00  0.00    +0.000 A 
ATOM     24  S   UNL     1       1.032   9.002  21.776  0.00  0.00    +0.000 S 
ENDBRANCH  19  20
ENDBRANCH  17  19
ENDBRANCH  16  17
ENDBRANCH  10  16
TORSDOF 5
ENDMDL
MODEL 9
REMARK VINA RESULT:      -6.7      1.820      2.300
REMARK  Name = 
REMARK  6 active torsions:
REMARK  status: ('A' for Active; 'I' for Inactive)
REMARK    1  A    between atoms: C_1  and  O_2
REMARK    2  A    between atoms: O_2  and  C_3
REMARK    3  A    between atoms: C_12  and  C_13
REMARK    4  A    between atoms: C_13  and  N_14
REMARK    5  A    between atoms: N_14  and  C_15
REMARK    6  A    between atoms: C_15  and  C_16
REMARK                            x       y       z     vdW  Elec       q    Type
REMARK                         _______ _______ _______ _____ _____    ______ ____
ROOT
ATOM      1  C   UNL     1       1.728   8.227  20.031  0.00  0.00    +0.000 A 
ATOM      2  C   UNL     1       2.083   8.136  18.686  0.00  0.00    +0.000 A 
ATOM      3  C   UNL     1       2.425   6.910  18.105  0.00  0.00    +0.000 A 
ATOM      4  C   UNL     1       2.453   5.782  18.930  0.00  0.00    +0.000 A 
ATOM      5  C   UNL     1       2.089   5.846  20.275  0.00  0.00    +0.000 A 
ATOM      6  C   UNL     1       1.729   7.082  20.836  0.00  0.00    +0.000 A 
ATOM      7  N   UNL     1       2.143   4.605  20.859  0.00  0.00    +0.000 NA
ATOM      8  C   UNL     1       2.531   3.781  19.907  0.00  0.00    +0.000 A 
ATOM      9  N   UNL     1       2.802   4.467  18.745  0.00  0.00    +0.000 N 
ATOM     10  C   UNL     1       3.328   3.811  17.541  0.00  0.00    +0.000 C 
ATOM     11  C   UNL     1       3.781   2.385  17.899  0.00  0.00    +0.000 C 
ATOM     12  O   UNL     1       2.791   1.732  18.702  0.00  0.00    +0.000 OA
ATOM     13  C   UNL     1       2.725   2.307  20.016  0.00  0.00    +0.000 C 
ENDROOT
BRANCH   1  15
ATOM     14  C   UNL     1       0.689   9.246  21.894  0.00  0.00    +0.000 C 
ATOM     15  O   UNL     1       1.394   9.394  20.666  0.00  0.00    +0.000 OA
ENDBRANCH   1  15
BRANCH  10  16
ATOM     16  C   UNL     1       4.488   4.597  16.892  0.00  0.00    +0.000 C 
BRANCH  16  17
ATOM     17  N   UNL     1       5.770   3.881  16.872  0.00  0.00    +0.000 NA
ATOM     18  H   UNL     1       5.742   3.122  16.186  0.00  0.00    +0.000 HD
BRANCH  17  19
ATOM     19  C   UNL     1       6.848   4.800  16.453  0.00  0.00    +0.000 C 
BRANCH  19  20
ATOM     20  C   UNL     1       7.031   4.783  14.961  0.00  0.00    +0.000 A 
ATOM     21  N   UNL     1       7.941   5.489  14.317  0.00  0.00    +0.000 NA
ATOM     22  C   UNL     1       7.844   5.239  12.962  0.00  0.00    +0.000 A 
ATOM     23  C   UNL     1       6.858   4.353  12.589  0.00  0.00    +0.000 A 
ATOM     24  S   UNL     1       6.019   3.800  13.975  0.00  0.00    +0.000 S 
ENDBRANCH  19  20
ENDBRANCH  17  19
ENDBRANCH  16  17
ENDBRANCH  10  16
TORSDOF 5
ENDMDL
