MODEL 1
REMARK VINA RESULT:      -6.7      0.000      0.000
REMARK  Name = 
REMARK  18 active torsions:
REMARK  status: ('A' for Active; 'I' for Inactive)
REMARK    1  A    between atoms: C_1  and  C_2
REMARK    2  A    between atoms: C_2  and  N_3
REMARK    3  A    between atoms: N_3  and  C_4
REMARK    4  A    between atoms: N_3  and  C_6
REMARK    5  A    between atoms: C_4  and  C_5
REMARK    6  A    between atoms: C_6  and  C_7
REMARK    7  A    between atoms: C_7  and  O_8
REMARK    8  A    between atoms: O_8  and  C_9
REMARK    9  A    between atoms: C_9  and  C_11
REMARK   10  A    between atoms: C_21  and  C_22
REMARK   11  A    between atoms: C_22  and  O_24
REMARK   12  A    between atoms: O_24  and  C_25
REMARK   13  A    between atoms: C_25  and  C_26
REMARK   14  A    between atoms: C_26  and  N_27
REMARK   15  A    between atoms: N_27  and  C_28
REMARK   16  A    between atoms: N_27  and  C_30
REMARK   17  A    between atoms: C_28  and  C_29
REMARK   18  A    between atoms: C_30  and  C_31
REMARK                            x       y       z     vdW  Elec       q    Type
REMARK                         _______ _______ _______ _____ _____    ______ ____
ROOT
ATOM      1  C   UNL     1       1.406  10.808  19.051  0.00  0.00    +0.000 A 
ATOM      2  C   UNL     1       1.872  10.268  17.851  0.00  0.00    +0.000 A 
ATOM      3  C   UNL     1       2.129   8.896  17.746  0.00  0.00    +0.000 A 
ATOM      4  C   UNL     1       1.933   8.039  18.860  0.00  0.00    +0.000 A 
ATOM      5  C   UNL     1       1.435   8.598  20.035  0.00  0.00    +0.000 A 
ATOM      6  C   UNL     1       1.158   9.972  20.144  0.00  0.00    +0.000 A 
ATOM      7  S   UNL     1       1.228   7.416  21.259  0.00  0.00    +0.000 S 
ATOM      8  C   UNL     1       1.877   6.162  20.288  0.00  0.00    +0.000 A 
ATOM      9  C   UNL     1       2.093   4.825  20.674  0.00  0.00    +0.000 A 
ATOM     10  C   UNL     1       2.647   3.933  19.755  0.00  0.00    +0.000 A 
ATOM     11  C   UNL     1       2.960   4.352  18.466  0.00  0.00    +0.000 A 
ATOM     12  C   UNL     1       2.731   5.687  18.088  0.00  0.00    +0.000 A 
ATOM     13  C   UNL     1       2.192   6.620  19.009  0.00  0.00    +0.000 A 
ENDROOT
BRANCH   1  14
ATOM     14  C   UNL     1       1.081  12.256  19.202  0.00  0.00    +0.000 C 
ATOM     15  O   UNL     1       1.859  13.162  18.974  0.00  0.00    +0.000 OA
BRANCH  14  16
ATOM     16  O   UNL     1      -0.155  12.397  19.739  0.00  0.00    +0.000 OA
BRANCH  16  17
ATOM     17  C   UNL     1      -1.184  12.543  18.746  0.00  0.00    +0.000 C 
BRANCH  17  18
ATOM     18  C   UNL     1      -2.565  12.137  19.271  0.00  0.00    +0.000 C 
BRANCH  18  19
ATOM     19  N   UNL     1      -3.317  11.237  18.363  0.00  0.00    +0.000 NA
BRANCH  19  21
ATOM     20  C   UNL     1      -5.401  12.088  17.184  0.00  0.00    +0.000 C 
ATOM     21  C   UNL     1      -4.758  11.539  18.458  0.00  0.00    +0.000 C 
ENDBRANCH  19  21
BRANCH  19  22
ATOM     22  C   UNL     1      -2.806  11.207  16.984  0.00  0.00    +0.000 C 
ATOM     23  C   UNL     1      -2.312   9.854  16.483  0.00  0.00    +0.000 C 
ENDBRANCH  19  22
ENDBRANCH  18  19
ENDBRANCH  17  18
ENDBRANCH  16  17
ENDBRANCH  14  16
ENDBRANCH   1  14
BRANCH  11  24
ATOM     24  C   UNL     1       3.642   3.390  17.560  0.00  0.00    +0.000 C 
ATOM     25  O   UNL     1       3.959   2.257  17.877  0.00  0.00    +0.000 OA
BRANCH  24  26
ATOM     26  O   UNL     1       3.992   4.032  16.423  0.00  0.00    +0.000 OA
BRANCH  26  27
ATOM     27  C   UNL     1       5.398   3.993  16.131  0.00  0.00    +0.000 C 
BRANCH  27  28
ATOM     28  C   UNL     1       5.865   5.456  15.981  0.00  0.00    +0.000 C 
BRANCH  28  29
ATOM     29  N   UNL     1       6.877   5.925  16.944  0.00  0.00    +0.000 NA
BRANCH  29  30
ATOM     30  C   UNL     1       6.657   7.309  17.388  0.00  0.00    +0.000 C 
ATOM     31  C   UNL     1       7.907   8.149  17.633  0.00  0.00    +0.000 C 
ENDBRANCH  29  30
BRANCH  29  32
ATOM     32  C   UNL     1       7.002   4.949  18.039  0.00  0.00    +0.000 C 
ATOM     33  C   UNL     1       6.326   5.368  19.340  0.00  0.00    +0.000 C 
ENDBRANCH  29  32
ENDBRANCH  28  29
ENDBRANCH  27  28
ENDBRANCH  26  27
ENDBRANCH  24  26
ENDBRANCH  11  24
TORSDOF 14
ENDMDL
MODEL 2
REMARK VINA RESULT:      -6.7      3.135      4.391
REMARK  Name = 
REMARK  18 active torsions:
REMARK  status: ('A' for Active; 'I' for Inactive)
REMARK    1  A    between atoms: C_1  and  C_2
REMARK    2  A    between atoms: C_2  and  N_3
REMARK    3  A    between atoms: N_3  and  C_4
REMARK    4  A    between atoms: N_3  and  C_6
REMARK    5  A    between atoms: C_4  and  C_5
REMARK    6  A    between atoms: C_6  and  C_7
REMARK    7  A    between atoms: C_7  and  O_8
REMARK    8  A    between atoms: O_8  and  C_9
REMARK    9  A    between atoms: C_9  and  C_11
REMARK   10  A    between atoms: C_21  and  C_22
REMARK   11  A    between atoms: C_22  and  O_24
REMARK   12  A    between atoms: O_24  and  C_25
REMARK   13  A    between atoms: C_25  and  C_26
REMARK   14  A    between atoms: C_26  and  N_27
REMARK   15  A    between atoms: N_27  and  C_28
REMARK   16  A    between atoms: N_27  and  C_30
REMARK   17  A    between atoms: C_28  and  C_29
REMARK   18  A    between atoms: C_30  and  C_31
REMARK                            x       y       z     vdW  Elec       q    Type
REMARK                         _______ _______ _______ _____ _____    ______ ____
ROOT
ATOM      1  C   UNL     1      -1.222  11.629  22.399  0.00  0.00    +0.000 A 
ATOM      2  C   UNL     1      -0.763  10.524  23.115  0.00  0.00    +0.000 A 
ATOM      3  C   UNL     1       0.056   9.571  22.497  0.00  0.00    +0.000 A 
ATOM      4  C   UNL     1       0.420   9.710  21.133  0.00  0.00    +0.000 A 
ATOM      5  C   UNL     1      -0.023  10.841  20.450  0.00  0.00    +0.000 A 
ATOM      6  C   UNL     1      -0.833  11.811  21.068  0.00  0.00    +0.000 A 
ATOM      7  S   UNL     1       0.537  10.862  18.830  0.00  0.00    +0.000 S 
ATOM      8  C   UNL     1       1.300   9.334  18.975  0.00  0.00    +0.000 A 
ATOM      9  C   UNL     1       1.963   8.625  17.956  0.00  0.00    +0.000 A 
ATOM     10  C   UNL     1       2.519   7.378  18.246  0.00  0.00    +0.000 A 
ATOM     11  C   UNL     1       2.440   6.853  19.533  0.00  0.00    +0.000 A 
ATOM     12  C   UNL     1       1.783   7.575  20.545  0.00  0.00    +0.000 A 
ATOM     13  C   UNL     1       1.189   8.832  20.272  0.00  0.00    +0.000 A 
ENDROOT
BRANCH   1  14
ATOM     14  C   UNL     1      -2.064  12.691  23.022  0.00  0.00    +0.000 C 
ATOM     15  O   UNL     1      -1.656  13.508  23.825  0.00  0.00    +0.000 OA
BRANCH  14  16
ATOM     16  O   UNL     1      -3.357  12.529  22.653  0.00  0.00    +0.000 OA
BRANCH  16  17
ATOM     17  C   UNL     1      -4.199  13.615  23.074  0.00  0.00    +0.000 C 
BRANCH  17  18
ATOM     18  C   UNL     1      -5.237  13.996  22.013  0.00  0.00    +0.000 C 
BRANCH  18  19
ATOM     19  N   UNL     1      -6.491  13.207  22.081  0.00  0.00    +0.000 NA
BRANCH  19  21
ATOM     20  C   UNL     1      -7.626  11.971  20.175  0.00  0.00    +0.000 C 
ATOM     21  C   UNL     1      -6.425  12.097  21.111  0.00  0.00    +0.000 C 
ENDBRANCH  19  21
BRANCH  19  22
ATOM     22  C   UNL     1      -6.865  12.786  23.440  0.00  0.00    +0.000 C 
ATOM     23  C   UNL     1      -7.777  13.736  24.208  0.00  0.00    +0.000 C 
ENDBRANCH  19  22
ENDBRANCH  18  19
ENDBRANCH  17  18
ENDBRANCH  16  17
ENDBRANCH  14  16
ENDBRANCH   1  14
BRANCH  11  24
ATOM     24  C   UNL     1       2.957   5.478  19.763  0.00  0.00    +0.000 C 
ATOM     25  O   UNL     1       2.274   4.542  20.140  0.00  0.00    +0.000 OA
BRANCH  24  26
ATOM     26  O   UNL     1       4.304   5.492  19.652  0.00  0.00    +0.000 OA
BRANCH  26  27
ATOM     27  C   UNL     1       4.867   4.286  19.114  0.00  0.00    +0.000 C 
BRANCH  27  28
ATOM     28  C   UNL     1       4.650   4.332  17.587  0.00  0.00    +0.000 C 
BRANCH  28  29
ATOM     29  N   UNL     1       5.790   4.790  16.775  0.00  0.00    +0.000 NA
BRANCH  29  30
ATOM     30  C   UNL     1       7.000   5.051  17.570  0.00  0.00    +0.000 C 
ATOM     31  C   UNL     1       7.426   6.512  17.695  0.00  0.00    +0.000 C 
ENDBRANCH  29  30
BRANCH  29  32
ATOM     32  C   UNL     1       5.994   3.864  15.649  0.00  0.00    +0.000 C 
ATOM     33  C   UNL     1       6.571   4.511  14.394  0.00  0.00    +0.000 C 
ENDBRANCH  29  32
ENDBRANCH  28  29
ENDBRANCH  27  28
ENDBRANCH  26  27
ENDBRANCH  24  26
ENDBRANCH  11  24
TORSDOF 14
ENDMDL
MODEL 3
REMARK VINA RESULT:      -6.4      3.530      4.828
REMARK  Name = 
REMARK  18 active torsions:
REMARK  status: ('A' for Active; 'I' for Inactive)
REMARK    1  A    between atoms: C_1  and  C_2
REMARK    2  A    between atoms: C_2  and  N_3
REMARK    3  A    between atoms: N_3  and  C_4
REMARK    4  A    between atoms: N_3  and  C_6
REMARK    5  A    between atoms: C_4  and  C_5
REMARK    6  A    between atoms: C_6  and  C_7
REMARK    7  A    between atoms: C_7  and  O_8
REMARK    8  A    between atoms: O_8  and  C_9
REMARK    9  A    between atoms: C_9  and  C_11
REMARK   10  A    between atoms: C_21  and  C_22
REMARK   11  A    between atoms: C_22  and  O_24
REMARK   12  A    between atoms: O_24  and  C_25
REMARK   13  A    between atoms: C_25  and  C_26
REMARK   14  A    between atoms: C_26  and  N_27
REMARK   15  A    between atoms: N_27  and  C_28
REMARK   16  A    between atoms: N_27  and  C_30
REMARK   17  A    between atoms: C_28  and  C_29
REMARK   18  A    between atoms: C_30  and  C_31
REMARK                            x       y       z     vdW  Elec       q    Type
REMARK                         _______ _______ _______ _____ _____    ______ ____
ROOT
ATOM      1  C   UNL     1      -0.450  10.674  21.994  0.00  0.00    +0.000 A 
ATOM      2  C   UNL     1       0.017   9.568  22.705  0.00  0.00    +0.000 A 
ATOM      3  C   UNL     1       0.830   8.616  22.077  0.00  0.00    +0.000 A 
ATOM      4  C   UNL     1       1.180   8.756  20.710  0.00  0.00    +0.000 A 
ATOM      5  C   UNL     1       0.730   9.888  20.033  0.00  0.00    +0.000 A 
ATOM      6  C   UNL     1      -0.074  10.857  20.659  0.00  0.00    +0.000 A 
ATOM      7  S   UNL     1       1.273   9.911  18.407  0.00  0.00    +0.000 S 
ATOM      8  C   UNL     1       2.038   8.383  18.543  0.00  0.00    +0.000 A 
ATOM      9  C   UNL     1       2.692   7.675  17.517  0.00  0.00    +0.000 A 
ATOM     10  C   UNL     1       3.251   6.428  17.800  0.00  0.00    +0.000 A 
ATOM     11  C   UNL     1       3.186   5.903  19.087  0.00  0.00    +0.000 A 
ATOM     12  C   UNL     1       2.538   6.623  20.107  0.00  0.00    +0.000 A 
ATOM     13  C   UNL     1       1.940   7.880  19.841  0.00  0.00    +0.000 A 
ENDROOT
BRANCH   1  14
ATOM     14  C   UNL     1      -1.286  11.735  22.626  0.00  0.00    +0.000 C 
ATOM     15  O   UNL     1      -2.197  11.519  23.402  0.00  0.00    +0.000 OA
BRANCH  14  16
ATOM     16  O   UNL     1      -0.957  12.946  22.117  0.00  0.00    +0.000 OA
BRANCH  16  17
ATOM     17  C   UNL     1      -1.748  14.016  22.661  0.00  0.00    +0.000 C 
BRANCH  17  18
ATOM     18  C   UNL     1      -1.043  14.738  23.813  0.00  0.00    +0.000 C 
BRANCH  18  19
ATOM     19  N   UNL     1      -1.851  14.836  25.052  0.00  0.00    +0.000 NA
BRANCH  19  21
ATOM     20  C   UNL     1      -0.298  16.841  25.209  0.00  0.00    +0.000 C 
ATOM     21  C   UNL     1      -1.363  15.965  25.868  0.00  0.00    +0.000 C 
ENDBRANCH  19  21
BRANCH  19  22
ATOM     22  C   UNL     1      -3.304  14.852  24.824  0.00  0.00    +0.000 C 
ATOM     23  C   UNL     1      -3.979  16.217  24.905  0.00  0.00    +0.000 C 
ENDBRANCH  19  22
ENDBRANCH  18  19
ENDBRANCH  17  18
ENDBRANCH  16  17
ENDBRANCH  14  16
ENDBRANCH   1  14
BRANCH  11  24
ATOM     24  C   UNL     1       3.706   4.528  19.311  0.00  0.00    +0.000 C 
ATOM     25  O   UNL     1       3.235   3.738  20.111  0.00  0.00    +0.000 OA
BRANCH  24  26
ATOM     26  O   UNL     1       4.858   4.377  18.620  0.00  0.00    +0.000 OA
BRANCH  26  27
ATOM     27  C   UNL     1       5.944   5.184  19.099  0.00  0.00    +0.000 C 
BRANCH  27  28
ATOM     28  C   UNL     1       7.179   4.827  18.246  0.00  0.00    +0.000 C 
BRANCH  28  29
ATOM     29  N   UNL     1       7.386   5.623  17.024  0.00  0.00    +0.000 NA
BRANCH  29  30
ATOM     30  C   UNL     1       6.935   4.938  15.804  0.00  0.00    +0.000 C 
ATOM     31  C   UNL     1       5.612   5.414  15.209  0.00  0.00    +0.000 C 
ENDBRANCH  29  30
BRANCH  29  32
ATOM     32  C   UNL     1       6.816   6.967  17.211  0.00  0.00    +0.000 C 
ATOM     33  C   UNL     1       7.825   8.028  17.639  0.00  0.00    +0.000 C 
ENDBRANCH  29  32
ENDBRANCH  28  29
ENDBRANCH  27  28
ENDBRANCH  26  27
ENDBRANCH  24  26
ENDBRANCH  11  24
TORSDOF 14
ENDMDL
MODEL 4
REMARK VINA RESULT:      -6.4      3.236      4.428
REMARK  Name = 
REMARK  18 active torsions:
REMARK  status: ('A' for Active; 'I' for Inactive)
REMARK    1  A    between atoms: C_1  and  C_2
REMARK    2  A    between atoms: C_2  and  N_3
REMARK    3  A    between atoms: N_3  and  C_4
REMARK    4  A    between atoms: N_3  and  C_6
REMARK    5  A    between atoms: C_4  and  C_5
REMARK    6  A    between atoms: C_6  and  C_7
REMARK    7  A    between atoms: C_7  and  O_8
REMARK    8  A    between atoms: O_8  and  C_9
REMARK    9  A    between atoms: C_9  and  C_11
REMARK   10  A    between atoms: C_21  and  C_22
REMARK   11  A    between atoms: C_22  and  O_24
REMARK   12  A    between atoms: O_24  and  C_25
REMARK   13  A    between atoms: C_25  and  C_26
REMARK   14  A    between atoms: C_26  and  N_27
REMARK   15  A    between atoms: N_27  and  C_28
REMARK   16  A    between atoms: N_27  and  C_30
REMARK   17  A    between atoms: C_28  and  C_29
REMARK   18  A    between atoms: C_30  and  C_31
REMARK                            x       y       z     vdW  Elec       q    Type
REMARK                         _______ _______ _______ _____ _____    ______ ____
ROOT
ATOM      1  C   UNL     1      -1.566  11.420  22.619  0.00  0.00    +0.000 A 
ATOM      2  C   UNL     1      -1.025  10.299  23.248  0.00  0.00    +0.000 A 
ATOM      3  C   UNL     1      -0.152   9.451  22.555  0.00  0.00    +0.000 A 
ATOM      4  C   UNL     1       0.184   9.713  21.202  0.00  0.00    +0.000 A 
ATOM      5  C   UNL     1      -0.342  10.859  20.608  0.00  0.00    +0.000 A 
ATOM      6  C   UNL     1      -1.207  11.724  21.302  0.00  0.00    +0.000 A 
ATOM      7  S   UNL     1       0.194  11.035  18.990  0.00  0.00    +0.000 S 
ATOM      8  C   UNL     1       1.058   9.556  19.016  0.00  0.00    +0.000 A 
ATOM      9  C   UNL     1       1.754   8.969  17.942  0.00  0.00    +0.000 A 
ATOM     10  C   UNL     1       2.396   7.745  18.135  0.00  0.00    +0.000 A 
ATOM     11  C   UNL     1       2.369   7.124  19.380  0.00  0.00    +0.000 A 
ATOM     12  C   UNL     1       1.678   7.723  20.448  0.00  0.00    +0.000 A 
ATOM     13  C   UNL     1       0.998   8.954  20.273  0.00  0.00    +0.000 A 
ENDROOT
BRANCH   1  14
ATOM     14  C   UNL     1      -2.468  12.375  23.325  0.00  0.00    +0.000 C 
ATOM     15  O   UNL     1      -3.519  12.064  23.853  0.00  0.00    +0.000 OA
BRANCH  14  16
ATOM     16  O   UNL     1      -2.004  13.639  23.184  0.00  0.00    +0.000 OA
BRANCH  16  17
ATOM     17  C   UNL     1      -2.955  14.635  23.597  0.00  0.00    +0.000 C 
BRANCH  17  18
ATOM     18  C   UNL     1      -3.637  15.321  22.409  0.00  0.00    +0.000 C 
BRANCH  18  19
ATOM     19  N   UNL     1      -5.104  15.115  22.352  0.00  0.00    +0.000 NA
BRANCH  19  21
ATOM     20  C   UNL     1      -4.833  17.363  21.199  0.00  0.00    +0.000 C 
ATOM     21  C   UNL     1      -5.755  16.353  21.881  0.00  0.00    +0.000 C 
ENDBRANCH  19  21
BRANCH  19  22
ATOM     22  C   UNL     1      -5.516  13.910  21.615  0.00  0.00    +0.000 C 
ATOM     23  C   UNL     1      -4.601  13.480  20.473  0.00  0.00    +0.000 C 
ENDBRANCH  19  22
ENDBRANCH  18  19
ENDBRANCH  17  18
ENDBRANCH  16  17
ENDBRANCH  14  16
ENDBRANCH   1  14
BRANCH  11  24
ATOM     24  C   UNL     1       2.979   5.773  19.504  0.00  0.00    +0.000 C 
ATOM     25  O   UNL     1       2.463   4.838  20.092  0.00  0.00    +0.000 OA
BRANCH  24  26
ATOM     26  O   UNL     1       4.240   5.816  19.018  0.00  0.00    +0.000 OA
BRANCH  26  27
ATOM     27  C   UNL     1       4.530   4.807  18.038  0.00  0.00    +0.000 C 
BRANCH  27  28
ATOM     28  C   UNL     1       5.164   5.525  16.829  0.00  0.00    +0.000 C 
BRANCH  28  29
ATOM     29  N   UNL     1       6.610   5.325  16.630  0.00  0.00    +0.000 NA
BRANCH  29  30
ATOM     30  C   UNL     1       6.960   4.958  15.250  0.00  0.00    +0.000 C 
ATOM     31  C   UNL     1       6.139   3.838  14.618  0.00  0.00    +0.000 C 
ENDBRANCH  29  30
BRANCH  29  32
ATOM     32  C   UNL     1       7.342   6.491  17.152  0.00  0.00    +0.000 C 
ATOM     33  C   UNL     1       7.778   6.365  18.609  0.00  0.00    +0.000 C 
ENDBRANCH  29  32
ENDBRANCH  28  29
ENDBRANCH  27  28
ENDBRANCH  26  27
ENDBRANCH  24  26
ENDBRANCH  11  24
TORSDOF 14
ENDMDL
MODEL 5
REMARK VINA RESULT:      -6.3      3.358      4.715
REMARK  Name = 
REMARK  18 active torsions:
REMARK  status: ('A' for Active; 'I' for Inactive)
REMARK    1  A    between atoms: C_1  and  C_2
REMARK    2  A    between atoms: C_2  and  N_3
REMARK    3  A    between atoms: N_3  and  C_4
REMARK    4  A    between atoms: N_3  and  C_6
REMARK    5  A    between atoms: C_4  and  C_5
REMARK    6  A    between atoms: C_6  and  C_7
REMARK    7  A    between atoms: C_7  and  O_8
REMARK    8  A    between atoms: O_8  and  C_9
REMARK    9  A    between atoms: C_9  and  C_11
REMARK   10  A    between atoms: C_21  and  C_22
REMARK   11  A    between atoms: C_22  and  O_24
REMARK   12  A    between atoms: O_24  and  C_25
REMARK   13  A    between atoms: C_25  and  C_26
REMARK   14  A    between atoms: C_26  and  N_27
REMARK   15  A    between atoms: N_27  and  C_28
REMARK   16  A    between atoms: N_27  and  C_30
REMARK   17  A    between atoms: C_28  and  C_29
REMARK   18  A    between atoms: C_30  and  C_31
REMARK                            x       y       z     vdW  Elec       q    Type
REMARK                         _______ _______ _______ _____ _____    ______ ____
ROOT
ATOM      1  C   UNL     1      -1.344  11.232  22.610  0.00  0.00    +0.000 A 
ATOM      2  C   UNL     1      -0.763  10.099  23.179  0.00  0.00    +0.000 A 
ATOM      3  C   UNL     1       0.093   9.288  22.423  0.00  0.00    +0.000 A 
ATOM      4  C   UNL     1       0.369   9.600  21.067  0.00  0.00    +0.000 A 
ATOM      5  C   UNL     1      -0.196  10.756  20.534  0.00  0.00    +0.000 A 
ATOM      6  C   UNL     1      -1.044  11.585  21.291  0.00  0.00    +0.000 A 
ATOM      7  S   UNL     1       0.271  10.995  18.902  0.00  0.00    +0.000 S 
ATOM      8  C   UNL     1       1.157   9.529  18.844  0.00  0.00    +0.000 A 
ATOM      9  C   UNL     1       1.816   8.989  17.723  0.00  0.00    +0.000 A 
ATOM     10  C   UNL     1       2.482   7.769  17.849  0.00  0.00    +0.000 A 
ATOM     11  C   UNL     1       2.515   7.106  19.072  0.00  0.00    +0.000 A 
ATOM     12  C   UNL     1       1.860   7.659  20.187  0.00  0.00    +0.000 A 
ATOM     13  C   UNL     1       1.156   8.885  20.081  0.00  0.00    +0.000 A 
ENDROOT
BRANCH   1  14
ATOM     14  C   UNL     1      -2.231  12.148  23.384  0.00  0.00    +0.000 C 
ATOM     15  O   UNL     1      -3.399  11.922  23.637  0.00  0.00    +0.000 OA
BRANCH  14  16
ATOM     16  O   UNL     1      -1.578  13.305  23.651  0.00  0.00    +0.000 OA
BRANCH  16  17
ATOM     17  C   UNL     1      -2.432  14.312  24.218  0.00  0.00    +0.000 C 
BRANCH  17  18
ATOM     18  C   UNL     1      -2.574  15.539  23.311  0.00  0.00    +0.000 C 
BRANCH  18  19
ATOM     19  N   UNL     1      -3.847  15.588  22.552  0.00  0.00    +0.000 NA
BRANCH  19  21
ATOM     20  C   UNL     1      -2.309  14.953  20.633  0.00  0.00    +0.000 C 
ATOM     21  C   UNL     1      -3.689  14.855  21.281  0.00  0.00    +0.000 C 
ENDBRANCH  19  21
BRANCH  19  22
ATOM     22  C   UNL     1      -5.028  15.181  23.330  0.00  0.00    +0.000 C 
ATOM     23  C   UNL     1      -5.689  16.274  24.163  0.00  0.00    +0.000 C 
ENDBRANCH  19  22
ENDBRANCH  18  19
ENDBRANCH  17  18
ENDBRANCH  16  17
ENDBRANCH  14  16
ENDBRANCH   1  14
BRANCH  11  24
ATOM     24  C   UNL     1       3.148   5.762  19.126  0.00  0.00    +0.000 C 
ATOM     25  O   UNL     1       4.103   5.481  19.830  0.00  0.00    +0.000 OA
BRANCH  24  26
ATOM     26  O   UNL     1       2.608   4.984  18.162  0.00  0.00    +0.000 OA
BRANCH  26  27
ATOM     27  C   UNL     1       3.544   4.109  17.514  0.00  0.00    +0.000 C 
BRANCH  27  28
ATOM     28  C   UNL     1       4.530   5.004  16.735  0.00  0.00    +0.000 C 
BRANCH  28  29
ATOM     29  N   UNL     1       5.568   4.312  15.952  0.00  0.00    +0.000 NA
BRANCH  29  30
ATOM     30  C   UNL     1       5.528   4.641  14.519  0.00  0.00    +0.000 C 
ATOM     31  C   UNL     1       6.472   3.851  13.616  0.00  0.00    +0.000 C 
ENDBRANCH  29  30
BRANCH  29  32
ATOM     32  C   UNL     1       6.881   4.520  16.585  0.00  0.00    +0.000 C 
ATOM     33  C   UNL     1       7.180   5.968  16.960  0.00  0.00    +0.000 C 
ENDBRANCH  29  32
ENDBRANCH  28  29
ENDBRANCH  27  28
ENDBRANCH  26  27
ENDBRANCH  24  26
ENDBRANCH  11  24
TORSDOF 14
ENDMDL
MODEL 6
REMARK VINA RESULT:      -6.3      1.648      2.133
REMARK  Name = 
REMARK  18 active torsions:
REMARK  status: ('A' for Active; 'I' for Inactive)
REMARK    1  A    between atoms: C_1  and  C_2
REMARK    2  A    between atoms: C_2  and  N_3
REMARK    3  A    between atoms: N_3  and  C_4
REMARK    4  A    between atoms: N_3  and  C_6
REMARK    5  A    between atoms: C_4  and  C_5
REMARK    6  A    between atoms: C_6  and  C_7
REMARK    7  A    between atoms: C_7  and  O_8
REMARK    8  A    between atoms: O_8  and  C_9
REMARK    9  A    between atoms: C_9  and  C_11
REMARK   10  A    between atoms: C_21  and  C_22
REMARK   11  A    between atoms: C_22  and  O_24
REMARK   12  A    between atoms: O_24  and  C_25
REMARK   13  A    between atoms: C_25  and  C_26
REMARK   14  A    between atoms: C_26  and  N_27
REMARK   15  A    between atoms: N_27  and  C_28
REMARK   16  A    between atoms: N_27  and  C_30
REMARK   17  A    between atoms: C_28  and  C_29
REMARK   18  A    between atoms: C_30  and  C_31
REMARK                            x       y       z     vdW  Elec       q    Type
REMARK                         _______ _______ _______ _____ _____    ______ ____
ROOT
ATOM      1  C   UNL     1       1.299  11.157  19.085  0.00  0.00    +0.000 A 
ATOM      2  C   UNL     1       1.851  10.652  17.907  0.00  0.00    +0.000 A 
ATOM      3  C   UNL     1       2.159   9.290  17.798  0.00  0.00    +0.000 A 
ATOM      4  C   UNL     1       1.926   8.409  18.885  0.00  0.00    +0.000 A 
ATOM      5  C   UNL     1       1.342   8.933  20.037  0.00  0.00    +0.000 A 
ATOM      6  C   UNL     1       1.015  10.295  20.150  0.00  0.00    +0.000 A 
ATOM      7  S   UNL     1       1.102   7.725  21.230  0.00  0.00    +0.000 S 
ATOM      8  C   UNL     1       1.847   6.508  20.281  0.00  0.00    +0.000 A 
ATOM      9  C   UNL     1       2.083   5.173  20.660  0.00  0.00    +0.000 A 
ATOM     10  C   UNL     1       2.719   4.313  19.763  0.00  0.00    +0.000 A 
ATOM     11  C   UNL     1       3.092   4.764  18.500  0.00  0.00    +0.000 A 
ATOM     12  C   UNL     1       2.843   6.097  18.129  0.00  0.00    +0.000 A 
ATOM     13  C   UNL     1       2.221   6.997  19.029  0.00  0.00    +0.000 A 
ENDROOT
BRANCH   1  14
ATOM     14  C   UNL     1       0.918  12.591  19.237  0.00  0.00    +0.000 C 
ATOM     15  O   UNL     1       1.685  13.473  19.572  0.00  0.00    +0.000 OA
BRANCH  14  16
ATOM     16  O   UNL     1      -0.418  12.734  19.066  0.00  0.00    +0.000 OA
BRANCH  16  17
ATOM     17  C   UNL     1      -1.044  13.467  20.131  0.00  0.00    +0.000 C 
BRANCH  17  18
ATOM     18  C   UNL     1      -2.330  12.797  20.627  0.00  0.00    +0.000 C 
BRANCH  18  19
ATOM     19  N   UNL     1      -2.723  13.184  22.003  0.00  0.00    +0.000 NA
BRANCH  19  21
ATOM     20  C   UNL     1      -5.030  12.698  21.056  0.00  0.00    +0.000 C 
ATOM     21  C   UNL     1      -4.099  12.722  22.268  0.00  0.00    +0.000 C 
ENDBRANCH  19  21
BRANCH  19  22
ATOM     22  C   UNL     1      -1.755  12.793  23.039  0.00  0.00    +0.000 C 
ATOM     23  C   UNL     1      -1.538  11.294  23.221  0.00  0.00    +0.000 C 
ENDBRANCH  19  22
ENDBRANCH  18  19
ENDBRANCH  17  18
ENDBRANCH  16  17
ENDBRANCH  14  16
ENDBRANCH   1  14
BRANCH  11  24
ATOM     24  C   UNL     1       3.858   3.838  17.623  0.00  0.00    +0.000 C 
ATOM     25  O   UNL     1       4.014   2.651  17.848  0.00  0.00    +0.000 OA
BRANCH  24  26
ATOM     26  O   UNL     1       4.473   4.558  16.658  0.00  0.00    +0.000 OA
BRANCH  26  27
ATOM     27  C   UNL     1       5.745   4.032  16.248  0.00  0.00    +0.000 C 
BRANCH  27  28
ATOM     28  C   UNL     1       6.618   5.237  15.841  0.00  0.00    +0.000 C 
BRANCH  28  29
ATOM     29  N   UNL     1       7.414   5.863  16.911  0.00  0.00    +0.000 NA
BRANCH  29  30
ATOM     30  C   UNL     1       6.866   7.152  17.361  0.00  0.00    +0.000 C 
ATOM     31  C   UNL     1       7.864   8.298  17.508  0.00  0.00    +0.000 C 
ENDBRANCH  29  30
BRANCH  29  32
ATOM     32  C   UNL     1       7.637   4.889  17.991  0.00  0.00    +0.000 C 
ATOM     33  C   UNL     1       7.639   5.488  19.394  0.00  0.00    +0.000 C 
ENDBRANCH  29  32
ENDBRANCH  28  29
ENDBRANCH  27  28
ENDBRANCH  26  27
ENDBRANCH  24  26
ENDBRANCH  11  24
TORSDOF 14
ENDMDL
MODEL 7
REMARK VINA RESULT:      -6.3      2.812      9.651
REMARK  Name = 
REMARK  18 active torsions:
REMARK  status: ('A' for Active; 'I' for Inactive)
REMARK    1  A    between atoms: C_1  and  C_2
REMARK    2  A    between atoms: C_2  and  N_3
REMARK    3  A    between atoms: N_3  and  C_4
REMARK    4  A    between atoms: N_3  and  C_6
REMARK    5  A    between atoms: C_4  and  C_5
REMARK    6  A    between atoms: C_6  and  C_7
REMARK    7  A    between atoms: C_7  and  O_8
REMARK    8  A    between atoms: O_8  and  C_9
REMARK    9  A    between atoms: C_9  and  C_11
REMARK   10  A    between atoms: C_21  and  C_22
REMARK   11  A    between atoms: C_22  and  O_24
REMARK   12  A    between atoms: O_24  and  C_25
REMARK   13  A    between atoms: C_25  and  C_26
REMARK   14  A    between atoms: C_26  and  N_27
REMARK   15  A    between atoms: N_27  and  C_28
REMARK   16  A    between atoms: N_27  and  C_30
REMARK   17  A    between atoms: C_28  and  C_29
REMARK   18  A    between atoms: C_30  and  C_31
REMARK                            x       y       z     vdW  Elec       q    Type
REMARK                         _______ _______ _______ _____ _____    ______ ____
ROOT
ATOM      1  C   UNL     1       5.496   5.359  16.352  0.00  0.00    +0.000 A 
ATOM      2  C   UNL     1       5.120   6.644  15.960  0.00  0.00    +0.000 A 
ATOM      3  C   UNL     1       4.223   7.387  16.738  0.00  0.00    +0.000 A 
ATOM      4  C   UNL     1       3.676   6.839  17.927  0.00  0.00    +0.000 A 
ATOM      5  C   UNL     1       4.095   5.568  18.314  0.00  0.00    +0.000 A 
ATOM      6  C   UNL     1       5.007   4.821  17.548  0.00  0.00    +0.000 A 
ATOM      7  S   UNL     1       3.362   5.081  19.785  0.00  0.00    +0.000 S 
ATOM      8  C   UNL     1       2.411   6.503  19.890  0.00  0.00    +0.000 A 
ATOM      9  C   UNL     1       1.450   6.801  20.876  0.00  0.00    +0.000 A 
ATOM     10  C   UNL     1       0.752   8.008  20.801  0.00  0.00    +0.000 A 
ATOM     11  C   UNL     1       1.019   8.915  19.780  0.00  0.00    +0.000 A 
ATOM     12  C   UNL     1       1.988   8.610  18.807  0.00  0.00    +0.000 A 
ATOM     13  C   UNL     1       2.694   7.382  18.845  0.00  0.00    +0.000 A 
ENDROOT
BRANCH   1  14
ATOM     14  C   UNL     1       6.477   4.543  15.580  0.00  0.00    +0.000 C 
ATOM     15  O   UNL     1       7.585   4.241  15.979  0.00  0.00    +0.000 OA
BRANCH  14  16
ATOM     16  O   UNL     1       5.995   4.298  14.337  0.00  0.00    +0.000 OA
BRANCH  16  17
ATOM     17  C   UNL     1       6.937   4.614  13.299  0.00  0.00    +0.000 C 
BRANCH  17  18
ATOM     18  C   UNL     1       6.630   3.883  11.988  0.00  0.00    +0.000 C 
BRANCH  18  19
ATOM     19  N   UNL     1       5.469   2.965  12.064  0.00  0.00    +0.000 NA
BRANCH  19  21
ATOM     20  C   UNL     1       3.452   3.074  10.523  0.00  0.00    +0.000 C 
ATOM     21  C   UNL     1       4.244   3.690  11.676  0.00  0.00    +0.000 C 
ENDBRANCH  19  21
BRANCH  19  22
ATOM     22  C   UNL     1       5.658   1.693  11.349  0.00  0.00    +0.000 C 
ATOM     23  C   UNL     1       7.079   1.390  10.887  0.00  0.00    +0.000 C 
ENDBRANCH  19  22
ENDBRANCH  18  19
ENDBRANCH  17  18
ENDBRANCH  16  17
ENDBRANCH  14  16
ENDBRANCH   1  14
BRANCH  11  24
ATOM     24  C   UNL     1       0.176  10.136  19.687  0.00  0.00    +0.000 C 
ATOM     25  O   UNL     1      -0.498  10.576  20.602  0.00  0.00    +0.000 OA
BRANCH  24  26
ATOM     26  O   UNL     1       0.155  10.557  18.403  0.00  0.00    +0.000 OA
BRANCH  26  27
ATOM     27  C   UNL     1      -0.883  11.506  18.109  0.00  0.00    +0.000 C 
BRANCH  27  28
ATOM     28  C   UNL     1      -2.109  10.698  17.634  0.00  0.00    +0.000 C 
BRANCH  28  29
ATOM     29  N   UNL     1      -3.299  11.475  17.249  0.00  0.00    +0.000 NA
BRANCH  29  30
ATOM     30  C   UNL     1      -3.879  11.049  15.967  0.00  0.00    +0.000 C 
ATOM     31  C   UNL     1      -3.074  10.031  15.164  0.00  0.00    +0.000 C 
ENDBRANCH  29  30
BRANCH  29  32
ATOM     32  C   UNL     1      -4.254  11.497  18.369  0.00  0.00    +0.000 C 
ATOM     33  C   UNL     1      -5.689  11.151  17.985  0.00  0.00    +0.000 C 
ENDBRANCH  29  32
ENDBRANCH  28  29
ENDBRANCH  27  28
ENDBRANCH  26  27
ENDBRANCH  24  26
ENDBRANCH  11  24
TORSDOF 14
ENDMDL
MODEL 8
REMARK VINA RESULT:      -6.3      3.347      5.034
REMARK  Name = 
REMARK  18 active torsions:
REMARK  status: ('A' for Active; 'I' for Inactive)
REMARK    1  A    between atoms: C_1  and  C_2
REMARK    2  A    between atoms: C_2  and  N_3
REMARK    3  A    between atoms: N_3  and  C_4
REMARK    4  A    between atoms: N_3  and  C_6
REMARK    5  A    between atoms: C_4  and  C_5
REMARK    6  A    between atoms: C_6  and  C_7
REMARK    7  A    between atoms: C_7  and  O_8
REMARK    8  A    between atoms: O_8  and  C_9
REMARK    9  A    between atoms: C_9  and  C_11
REMARK   10  A    between atoms: C_21  and  C_22
REMARK   11  A    between atoms: C_22  and  O_24
REMARK   12  A    between atoms: O_24  and  C_25
REMARK   13  A    between atoms: C_25  and  C_26
REMARK   14  A    between atoms: C_26  and  N_27
REMARK   15  A    between atoms: N_27  and  C_28
REMARK   16  A    between atoms: N_27  and  C_30
REMARK   17  A    between atoms: C_28  and  C_29
REMARK   18  A    between atoms: C_30  and  C_31
REMARK                            x       y       z     vdW  Elec       q    Type
REMARK                         _______ _______ _______ _____ _____    ______ ____
ROOT
ATOM      1  C   UNL     1      -2.079  12.076  22.372  0.00  0.00    +0.000 A 
ATOM      2  C   UNL     1      -1.471  11.056  23.105  0.00  0.00    +0.000 A 
ATOM      3  C   UNL     1      -0.559  10.190  22.490  0.00  0.00    +0.000 A 
ATOM      4  C   UNL     1      -0.250  10.329  21.112  0.00  0.00    +0.000 A 
ATOM      5  C   UNL     1      -0.844  11.377  20.412  0.00  0.00    +0.000 A 
ATOM      6  C   UNL     1      -1.748  12.261  21.026  0.00  0.00    +0.000 A 
ATOM      7  S   UNL     1      -0.332  11.415  18.777  0.00  0.00    +0.000 S 
ATOM      8  C   UNL     1       0.614   9.995  18.942  0.00  0.00    +0.000 A 
ATOM      9  C   UNL     1       1.332   9.340  17.924  0.00  0.00    +0.000 A 
ATOM     10  C   UNL     1       2.042   8.178  18.232  0.00  0.00    +0.000 A 
ATOM     11  C   UNL     1       2.060   7.688  19.535  0.00  0.00    +0.000 A 
ATOM     12  C   UNL     1       1.346   8.356  20.545  0.00  0.00    +0.000 A 
ATOM     13  C   UNL     1       0.597   9.524  20.255  0.00  0.00    +0.000 A 
ENDROOT
BRANCH   1  14
ATOM     14  C   UNL     1      -3.027  13.047  22.990  0.00  0.00    +0.000 C 
ATOM     15  O   UNL     1      -2.719  14.162  23.367  0.00  0.00    +0.000 OA
BRANCH  14  16
ATOM     16  O   UNL     1      -4.234  12.461  23.172  0.00  0.00    +0.000 OA
BRANCH  16  17
ATOM     17  C   UNL     1      -5.290  13.116  22.450  0.00  0.00    +0.000 C 
BRANCH  17  18
ATOM     18  C   UNL     1      -5.499  12.523  21.053  0.00  0.00    +0.000 C 
BRANCH  18  19
ATOM     19  N   UNL     1      -6.922  12.341  20.679  0.00  0.00    +0.000 NA
BRANCH  19  21
ATOM     20  C   UNL     1      -6.852  14.518  19.372  0.00  0.00    +0.000 C 
ATOM     21  C   UNL     1      -7.185  13.027  19.399  0.00  0.00    +0.000 C 
ENDBRANCH  19  21
BRANCH  19  22
ATOM     22  C   UNL     1      -7.378  10.943  20.708  0.00  0.00    +0.000 C 
ATOM     23  C   UNL     1      -7.062  10.110  19.470  0.00  0.00    +0.000 C 
ENDBRANCH  19  22
ENDBRANCH  18  19
ENDBRANCH  17  18
ENDBRANCH  16  17
ENDBRANCH  14  16
ENDBRANCH   1  14
BRANCH  11  24
ATOM     24  C   UNL     1       2.745   6.393  19.788  0.00  0.00    +0.000 C 
ATOM     25  O   UNL     1       3.602   5.917  19.064  0.00  0.00    +0.000 OA
BRANCH  24  26
ATOM     26  O   UNL     1       2.146   5.777  20.832  0.00  0.00    +0.000 OA
BRANCH  26  27
ATOM     27  C   UNL     1       1.398   4.604  20.476  0.00  0.00    +0.000 C 
BRANCH  27  28
ATOM     28  C   UNL     1       2.211   3.387  20.966  0.00  0.00    +0.000 C 
BRANCH  28  29
ATOM     29  N   UNL     1       2.609   2.407  19.941  0.00  0.00    +0.000 NA
BRANCH  29  30
ATOM     30  C   UNL     1       1.790   2.480  18.721  0.00  0.00    +0.000 C 
ATOM     31  C   UNL     1       2.507   2.930  17.450  0.00  0.00    +0.000 C 
ENDBRANCH  29  30
BRANCH  29  32
ATOM     32  C   UNL     1       4.058   2.504  19.705  0.00  0.00    +0.000 C 
ATOM     33  C   UNL     1       4.905   1.581  20.576  0.00  0.00    +0.000 C 
ENDBRANCH  29  32
ENDBRANCH  28  29
ENDBRANCH  27  28
ENDBRANCH  26  27
ENDBRANCH  24  26
ENDBRANCH  11  24
TORSDOF 14
ENDMDL
MODEL 9
REMARK VINA RESULT:      -6.3      3.000     10.245
REMARK  Name = 
REMARK  18 active torsions:
REMARK  status: ('A' for Active; 'I' for Inactive)
REMARK    1  A    between atoms: C_1  and  C_2
REMARK    2  A    between atoms: C_2  and  N_3
REMARK    3  A    between atoms: N_3  and  C_4
REMARK    4  A    between atoms: N_3  and  C_6
REMARK    5  A    between atoms: C_4  and  C_5
REMARK    6  A    between atoms: C_6  and  C_7
REMARK    7  A    between atoms: C_7  and  O_8
REMARK    8  A    between atoms: O_8  and  C_9
REMARK    9  A    between atoms: C_9  and  C_11
REMARK   10  A    between atoms: C_21  and  C_22
REMARK   11  A    between atoms: C_22  and  O_24
REMARK   12  A    between atoms: O_24  and  C_25
REMARK   13  A    between atoms: C_25  and  C_26
REMARK   14  A    between atoms: C_26  and  N_27
REMARK   15  A    between atoms: N_27  and  C_28
REMARK   16  A    between atoms: N_27  and  C_30
REMARK   17  A    between atoms: C_28  and  C_29
REMARK   18  A    between atoms: C_30  and  C_31
REMARK                            x       y       z     vdW  Elec       q    Type
REMARK                         _______ _______ _______ _____ _____    ______ ____
ROOT
ATOM      1  C   UNL     1       3.413   4.791  19.097  0.00  0.00    +0.000 A 
ATOM      2  C   UNL     1       2.733   4.782  20.314  0.00  0.00    +0.000 A 
ATOM      3  C   UNL     1       1.996   5.901  20.722  0.00  0.00    +0.000 A 
ATOM      4  C   UNL     1       1.941   7.062  19.909  0.00  0.00    +0.000 A 
ATOM      5  C   UNL     1       2.601   7.033  18.682  0.00  0.00    +0.000 A 
ATOM      6  C   UNL     1       3.330   5.908  18.258  0.00  0.00    +0.000 A 
ATOM      7  S   UNL     1       2.401   8.501  17.820  0.00  0.00    +0.000 S 
ATOM      8  C   UNL     1       1.514   9.234  19.091  0.00  0.00    +0.000 A 
ATOM      9  C   UNL     1       1.031  10.556  19.125  0.00  0.00    +0.000 A 
ATOM     10  C   UNL     1       0.336  10.997  20.253  0.00  0.00    +0.000 A 
ATOM     11  C   UNL     1       0.101  10.133  21.318  0.00  0.00    +0.000 A 
ATOM     12  C   UNL     1       0.580   8.812  21.268  0.00  0.00    +0.000 A 
ATOM     13  C   UNL     1       1.310   8.345  20.147  0.00  0.00    +0.000 A 
ENDROOT
BRANCH   1  14
ATOM     14  C   UNL     1       4.180   3.612  18.601  0.00  0.00    +0.000 C 
ATOM     15  O   UNL     1       3.729   2.764  17.856  0.00  0.00    +0.000 OA
BRANCH  14  16
ATOM     16  O   UNL     1       5.396   3.569  19.197  0.00  0.00    +0.000 OA
BRANCH  16  17
ATOM     17  C   UNL     1       6.148   4.781  19.025  0.00  0.00    +0.000 C 
BRANCH  17  18
ATOM     18  C   UNL     1       7.355   4.594  18.099  0.00  0.00    +0.000 C 
BRANCH  18  19
ATOM     19  N   UNL     1       7.389   5.531  16.951  0.00  0.00    +0.000 NA
BRANCH  19  21
ATOM     20  C   UNL     1       6.198   4.035  15.279  0.00  0.00    +0.000 C 
ATOM     21  C   UNL     1       6.196   5.318  16.109  0.00  0.00    +0.000 C 
ENDBRANCH  19  21
BRANCH  19  22
ATOM     22  C   UNL     1       7.607   6.937  17.326  0.00  0.00    +0.000 C 
ATOM     23  C   UNL     1       6.379   7.840  17.282  0.00  0.00    +0.000 C 
ENDBRANCH  19  22
ENDBRANCH  18  19
ENDBRANCH  17  18
ENDBRANCH  16  17
ENDBRANCH  14  16
ENDBRANCH   1  14
BRANCH  11  24
ATOM     24  C   UNL     1      -0.553  10.681  22.536  0.00  0.00    +0.000 C 
ATOM     25  O   UNL     1      -0.438  10.203  23.651  0.00  0.00    +0.000 OA
BRANCH  24  26
ATOM     26  O   UNL     1      -1.405  11.665  22.170  0.00  0.00    +0.000 OA
BRANCH  26  27
ATOM     27  C   UNL     1      -1.445  12.779  23.075  0.00  0.00    +0.000 C 
BRANCH  27  28
ATOM     28  C   UNL     1      -2.756  13.541  22.791  0.00  0.00    +0.000 C 
BRANCH  28  29
ATOM     29  N   UNL     1      -3.619  13.818  23.952  0.00  0.00    +0.000 NA
BRANCH  29  30
ATOM     30  C   UNL     1      -4.169  12.602  24.569  0.00  0.00    +0.000 C 
ATOM     31  C   UNL     1      -5.651  12.329  24.326  0.00  0.00    +0.000 C 
ENDBRANCH  29  30
BRANCH  29  32
ATOM     32  C   UNL     1      -2.912  14.707  24.888  0.00  0.00    +0.000 C 
ATOM     33  C   UNL     1      -3.513  16.103  25.013  0.00  0.00    +0.000 C 
ENDBRANCH  29  32
ENDBRANCH  28  29
ENDBRANCH  27  28
ENDBRANCH  26  27
ENDBRANCH  24  26
ENDBRANCH  11  24
TORSDOF 14
ENDMDL
