MODEL 1
REMARK VINA RESULT:      -7.6      0.000      0.000
REMARK  Name = 
REMARK  9 active torsions:
REMARK  status: ('A' for Active; 'I' for Inactive)
REMARK    1  A    between atoms: C_1  and  C_2
REMARK    2  A    between atoms: C_2  and  C_3
REMARK    3  A    between atoms: C_3  and  N_4
REMARK    4  A    between atoms: C_10  and  N_11
REMARK    5  A    between atoms: C_15  and  N_16
REMARK    6  A    between atoms: C_17  and  C_19
REMARK    7  A    between atoms: C_19  and  C_20
REMARK    8  A    between atoms: C_20  and  O_21
REMARK    9  A    between atoms: O_21  and  C_22
REMARK                            x       y       z     vdW  Elec       q    Type
REMARK                         _______ _______ _______ _____ _____    ______ ____
ROOT
ATOM      1  N   UNL     1       5.942   4.196  17.191  0.00  0.00    +0.000 N 
ATOM      2  N   UNL     1       5.370   3.490  16.198  0.00  0.00    +0.000 NA
ATOM      3  C   UNL     1       5.959   3.928  15.091  0.00  0.00    +0.000 A 
ATOM      4  C   UNL     1       6.936   4.894  15.360  0.00  0.00    +0.000 A 
ATOM      5  C   UNL     1       6.912   5.073  16.724  0.00  0.00    +0.000 A 
ENDROOT
BRANCH   1  12
ATOM      6  N   UNL     1       1.930   6.941  20.544  0.00  0.00    +0.000 N 
ATOM      7  C   UNL     1       1.878   5.718  19.926  0.00  0.00    +0.000 C 
ATOM      8  O   UNL     1       0.976   4.911  20.133  0.00  0.00    +0.000 OA
ATOM      9  N   UNL     1       2.939   5.454  19.076  0.00  0.00    +0.000 N 
ATOM     10  C   UNL     1       2.906   4.249  18.255  0.00  0.00    +0.000 C 
ATOM     11  C   UNL     1       4.070   3.320  18.598  0.00  0.00    +0.000 C 
ATOM     12  C   UNL     1       5.431   4.037  18.555  0.00  0.00    +0.000 C 
ATOM     13  C   UNL     1       5.378   5.365  19.344  0.00  0.00    +0.000 C 
ATOM     14  C   UNL     1       4.170   6.235  18.989  0.00  0.00    +0.000 C 
ATOM     15  H   UNL     1       2.293   7.682  19.967  0.00  0.00    +0.000 HD
BRANCH   6  16
ATOM     16  C   UNL     1       0.906   7.343  21.490  0.00  0.00    +0.000 C 
BRANCH  16  18
ATOM     17  C   UNL     1       0.879   9.450  20.088  0.00  0.00    +0.000 C 
ATOM     18  C   UNL     1       0.697   8.854  21.478  0.00  0.00    +0.000 C 
ENDBRANCH  16  18
ENDBRANCH   6  16
ENDBRANCH   1  12
BRANCH   5  19
ATOM     19  N   UNL     1       7.715   5.924  17.469  0.00  0.00    +0.000 N 
ATOM     20  C   UNL     1       7.516   7.367  17.524  0.00  0.00    +0.000 C 
ATOM     21  O   UNL     1       6.560   7.876  16.950  0.00  0.00    +0.000 OA
ATOM     22  H   UNL     1       8.458   5.482  17.988  0.00  0.00    +0.000 HD
BRANCH  20  23
ATOM     23  C   UNL     1       8.481   8.194  18.334  0.00  0.00    +0.000 C 
BRANCH  23  24
ATOM     24  C   UNL     1       8.360   9.660  17.996  0.00  0.00    +0.000 C 
BRANCH  24  25
ATOM     25  O   UNL     1       8.915  10.493  18.998  0.00  0.00    +0.000 OA
BRANCH  25  26
ATOM     26  C   UNL     1       9.477  11.634  18.482  0.00  0.00    +0.000 A 
ATOM     27  C   UNL     1      10.695  11.457  17.825  0.00  0.00    +0.000 A 
ATOM     28  C   UNL     1      11.356  12.555  17.272  0.00  0.00    +0.000 A 
ATOM     29  C   UNL     1      10.794  13.830  17.357  0.00  0.00    +0.000 A 
ATOM     30  C   UNL     1       9.573  14.010  17.995  0.00  0.00    +0.000 A 
ATOM     31  C   UNL     1       8.912  12.915  18.553  0.00  0.00    +0.000 A 
ENDBRANCH  25  26
ENDBRANCH  24  25
ENDBRANCH  23  24
ENDBRANCH  20  23
ENDBRANCH   5  19
TORSDOF 8
ENDMDL
MODEL 2
REMARK VINA RESULT:      -7.6      3.808      5.814
REMARK  Name = 
REMARK  9 active torsions:
REMARK  status: ('A' for Active; 'I' for Inactive)
REMARK    1  A    between atoms: C_1  and  C_2
REMARK    2  A    between atoms: C_2  and  C_3
REMARK    3  A    between atoms: C_3  and  N_4
REMARK    4  A    between atoms: C_10  and  N_11
REMARK    5  A    between atoms: C_15  and  N_16
REMARK    6  A    between atoms: C_17  and  C_19
REMARK    7  A    between atoms: C_19  and  C_20
REMARK    8  A    between atoms: C_20  and  O_21
REMARK    9  A    between atoms: O_21  and  C_22
REMARK                            x       y       z     vdW  Elec       q    Type
REMARK                         _______ _______ _______ _____ _____    ______ ____
ROOT
ATOM      1  N   UNL     1       3.325   3.683  19.431  0.00  0.00    +0.000 N 
ATOM      2  N   UNL     1       3.046   2.687  20.293  0.00  0.00    +0.000 NA
ATOM      3  C   UNL     1       4.208   2.069  20.481  0.00  0.00    +0.000 A 
ATOM      4  C   UNL     1       5.249   2.677  19.769  0.00  0.00    +0.000 A 
ATOM      5  C   UNL     1       4.668   3.717  19.081  0.00  0.00    +0.000 A 
ENDROOT
BRANCH   1  12
ATOM      6  N   UNL     1       0.387   8.459  21.284  0.00  0.00    +0.000 N 
ATOM      7  C   UNL     1       1.318   8.326  20.286  0.00  0.00    +0.000 C 
ATOM      8  O   UNL     1       1.567   9.226  19.490  0.00  0.00    +0.000 OA
ATOM      9  N   UNL     1       1.931   7.085  20.229  0.00  0.00    +0.000 N 
ATOM     10  C   UNL     1       3.042   6.885  19.304  0.00  0.00    +0.000 C 
ATOM     11  C   UNL     1       2.707   5.810  18.271  0.00  0.00    +0.000 C 
ATOM     12  C   UNL     1       2.223   4.500  18.917  0.00  0.00    +0.000 C 
ATOM     13  C   UNL     1       1.129   4.779  19.971  0.00  0.00    +0.000 C 
ATOM     14  C   UNL     1       1.501   5.892  20.953  0.00  0.00    +0.000 C 
ATOM     15  H   UNL     1       0.629   7.991  22.142  0.00  0.00    +0.000 HD
BRANCH   6  16
ATOM     16  C   UNL     1      -0.362   9.691  21.445  0.00  0.00    +0.000 C 
BRANCH  16  18
ATOM     17  C   UNL     1      -1.426  11.271  23.112  0.00  0.00    +0.000 C 
ATOM     18  C   UNL     1      -0.529  10.054  22.917  0.00  0.00    +0.000 C 
ENDBRANCH  16  18
ENDBRANCH   6  16
ENDBRANCH   1  12
BRANCH   5  19
ATOM     19  N   UNL     1       5.303   4.624  18.244  0.00  0.00    +0.000 N 
ATOM     20  C   UNL     1       6.392   5.488  18.680  0.00  0.00    +0.000 C 
ATOM     21  O   UNL     1       6.839   5.382  19.817  0.00  0.00    +0.000 OA
ATOM     22  H   UNL     1       4.966   4.652  17.294  0.00  0.00    +0.000 HD
BRANCH  20  23
ATOM     23  C   UNL     1       6.974   6.464  17.692  0.00  0.00    +0.000 C 
BRANCH  23  24
ATOM     24  C   UNL     1       6.524   6.150  16.286  0.00  0.00    +0.000 C 
BRANCH  24  25
ATOM     25  O   UNL     1       7.538   5.525  15.520  0.00  0.00    +0.000 OA
BRANCH  25  26
ATOM     26  C   UNL     1       7.042   4.887  14.411  0.00  0.00    +0.000 A 
ATOM     27  C   UNL     1       7.780   5.064  13.239  0.00  0.00    +0.000 A 
ATOM     28  C   UNL     1       7.357   4.467  12.050  0.00  0.00    +0.000 A 
ATOM     29  C   UNL     1       6.207   3.674  12.032  0.00  0.00    +0.000 A 
ATOM     30  C   UNL     1       5.479   3.480  13.199  0.00  0.00    +0.000 A 
ATOM     31  C   UNL     1       5.896   4.080  14.388  0.00  0.00    +0.000 A 
ENDBRANCH  25  26
ENDBRANCH  24  25
ENDBRANCH  23  24
ENDBRANCH  20  23
ENDBRANCH   5  19
TORSDOF 8
ENDMDL
MODEL 3
REMARK VINA RESULT:      -7.4      4.346      5.987
REMARK  Name = 
REMARK  9 active torsions:
REMARK  status: ('A' for Active; 'I' for Inactive)
REMARK    1  A    between atoms: C_1  and  C_2
REMARK    2  A    between atoms: C_2  and  C_3
REMARK    3  A    between atoms: C_3  and  N_4
REMARK    4  A    between atoms: C_10  and  N_11
REMARK    5  A    between atoms: C_15  and  N_16
REMARK    6  A    between atoms: C_17  and  C_19
REMARK    7  A    between atoms: C_19  and  C_20
REMARK    8  A    between atoms: C_20  and  O_21
REMARK    9  A    between atoms: O_21  and  C_22
REMARK                            x       y       z     vdW  Elec       q    Type
REMARK                         _______ _______ _______ _____ _____    ______ ____
ROOT
ATOM      1  N   UNL     1       3.212   3.352  19.671  0.00  0.00    +0.000 N 
ATOM      2  N   UNL     1       2.803   2.634  20.734  0.00  0.00    +0.000 NA
ATOM      3  C   UNL     1       3.866   1.918  21.086  0.00  0.00    +0.000 A 
ATOM      4  C   UNL     1       4.976   2.189  20.276  0.00  0.00    +0.000 A 
ATOM      5  C   UNL     1       4.542   3.112  19.353  0.00  0.00    +0.000 A 
ENDROOT
BRANCH   1  12
ATOM      6  N   UNL     1       0.726   8.642  20.516  0.00  0.00    +0.000 N 
ATOM      7  C   UNL     1       1.686   8.249  19.619  0.00  0.00    +0.000 C 
ATOM      8  O   UNL     1       2.071   8.973  18.705  0.00  0.00    +0.000 OA
ATOM      9  N   UNL     1       2.161   6.962  19.807  0.00  0.00    +0.000 N 
ATOM     10  C   UNL     1       3.288   6.498  19.004  0.00  0.00    +0.000 C 
ATOM     11  C   UNL     1       2.890   5.303  18.140  0.00  0.00    +0.000 C 
ATOM     12  C   UNL     1       2.234   4.176  18.958  0.00  0.00    +0.000 C 
ATOM     13  C   UNL     1       1.125   4.738  19.876  0.00  0.00    +0.000 C 
ATOM     14  C   UNL     1       1.567   5.958  20.685  0.00  0.00    +0.000 C 
ATOM     15  H   UNL     1       0.872   8.304  21.453  0.00  0.00    +0.000 HD
BRANCH   6  16
ATOM     16  C   UNL     1       0.109   9.951  20.423  0.00  0.00    +0.000 C 
BRANCH  16  18
ATOM     17  C   UNL     1      -0.772  11.096  22.501  0.00  0.00    +0.000 C 
ATOM     18  C   UNL     1       0.448  10.816  21.633  0.00  0.00    +0.000 C 
ENDBRANCH  16  18
ENDBRANCH   6  16
ENDBRANCH   1  12
BRANCH   5  19
ATOM     19  N   UNL     1       5.291   3.699  18.343  0.00  0.00    +0.000 N 
ATOM     20  C   UNL     1       6.330   4.691  18.591  0.00  0.00    +0.000 C 
ATOM     21  O   UNL     1       6.628   4.990  19.742  0.00  0.00    +0.000 OA
ATOM     22  H   UNL     1       5.077   3.394  17.406  0.00  0.00    +0.000 HD
BRANCH  20  23
ATOM     23  C   UNL     1       7.046   5.291  17.409  0.00  0.00    +0.000 C 
BRANCH  23  24
ATOM     24  C   UNL     1       6.073   5.697  16.330  0.00  0.00    +0.000 C 
BRANCH  24  25
ATOM     25  O   UNL     1       5.572   4.586  15.608  0.00  0.00    +0.000 OA
BRANCH  25  26
ATOM     26  C   UNL     1       6.142   4.466  14.364  0.00  0.00    +0.000 A 
ATOM     27  C   UNL     1       5.514   3.566  13.503  0.00  0.00    +0.000 A 
ATOM     28  C   UNL     1       6.019   3.361  12.217  0.00  0.00    +0.000 A 
ATOM     29  C   UNL     1       7.141   4.069  11.782  0.00  0.00    +0.000 A 
ATOM     30  C   UNL     1       7.760   4.979  12.630  0.00  0.00    +0.000 A 
ATOM     31  C   UNL     1       7.260   5.182  13.917  0.00  0.00    +0.000 A 
ENDBRANCH  25  26
ENDBRANCH  24  25
ENDBRANCH  23  24
ENDBRANCH  20  23
ENDBRANCH   5  19
TORSDOF 8
ENDMDL
MODEL 4
REMARK VINA RESULT:      -7.3      0.842      1.295
REMARK  Name = 
REMARK  9 active torsions:
REMARK  status: ('A' for Active; 'I' for Inactive)
REMARK    1  A    between atoms: C_1  and  C_2
REMARK    2  A    between atoms: C_2  and  C_3
REMARK    3  A    between atoms: C_3  and  N_4
REMARK    4  A    between atoms: C_10  and  N_11
REMARK    5  A    between atoms: C_15  and  N_16
REMARK    6  A    between atoms: C_17  and  C_19
REMARK    7  A    between atoms: C_19  and  C_20
REMARK    8  A    between atoms: C_20  and  O_21
REMARK    9  A    between atoms: O_21  and  C_22
REMARK                            x       y       z     vdW  Elec       q    Type
REMARK                         _______ _______ _______ _____ _____    ______ ____
ROOT
ATOM      1  N   UNL     1       6.028   4.250  17.002  0.00  0.00    +0.000 N 
ATOM      2  N   UNL     1       5.496   3.561  15.976  0.00  0.00    +0.000 NA
ATOM      3  C   UNL     1       6.086   4.058  14.894  0.00  0.00    +0.000 A 
ATOM      4  C   UNL     1       7.025   5.047  15.213  0.00  0.00    +0.000 A 
ATOM      5  C   UNL     1       6.974   5.176  16.582  0.00  0.00    +0.000 A 
ENDROOT
BRANCH   1  12
ATOM      6  N   UNL     1       2.028   6.872  20.467  0.00  0.00    +0.000 N 
ATOM      7  C   UNL     1       1.964   5.685  19.783  0.00  0.00    +0.000 C 
ATOM      8  O   UNL     1       1.048   4.883  19.938  0.00  0.00    +0.000 OA
ATOM      9  N   UNL     1       3.028   5.451  18.928  0.00  0.00    +0.000 N 
ATOM     10  C   UNL     1       2.984   4.293  18.042  0.00  0.00    +0.000 C 
ATOM     11  C   UNL     1       4.130   3.329  18.344  0.00  0.00    +0.000 C 
ATOM     12  C   UNL     1       5.503   4.026  18.351  0.00  0.00    +0.000 C 
ATOM     13  C   UNL     1       5.463   5.309  19.211  0.00  0.00    +0.000 C 
ATOM     14  C   UNL     1       4.272   6.216  18.894  0.00  0.00    +0.000 C 
ATOM     15  H   UNL     1       2.409   7.637  19.935  0.00  0.00    +0.000 HD
BRANCH   6  16
ATOM     16  C   UNL     1       1.003   7.238  21.425  0.00  0.00    +0.000 C 
BRANCH  16  18
ATOM     17  C   UNL     1       0.476   9.514  20.453  0.00  0.00    +0.000 C 
ATOM     18  C   UNL     1       0.977   8.744  21.668  0.00  0.00    +0.000 C 
ENDBRANCH  16  18
ENDBRANCH   6  16
ENDBRANCH   1  12
BRANCH   5  19
ATOM     19  N   UNL     1       7.736   6.027  17.369  0.00  0.00    +0.000 N 
ATOM     20  C   UNL     1       7.482   7.458  17.477  0.00  0.00    +0.000 C 
ATOM     21  O   UNL     1       6.513   7.953  16.911  0.00  0.00    +0.000 OA
ATOM     22  H   UNL     1       8.489   5.593  17.880  0.00  0.00    +0.000 HD
BRANCH  20  23
ATOM     23  C   UNL     1       8.405   8.289  18.330  0.00  0.00    +0.000 C 
BRANCH  23  24
ATOM     24  C   UNL     1       8.344   9.746  17.942  0.00  0.00    +0.000 C 
BRANCH  24  25
ATOM     25  O   UNL     1       9.608  10.380  18.025  0.00  0.00    +0.000 OA
BRANCH  25  26
ATOM     26  C   UNL     1       9.610  11.435  18.903  0.00  0.00    +0.000 A 
ATOM     27  C   UNL     1       8.951  12.583  18.462  0.00  0.00    +0.000 A 
ATOM     28  C   UNL     1       8.903  13.717  19.275  0.00  0.00    +0.000 A 
ATOM     29  C   UNL     1       9.498  13.701  20.539  0.00  0.00    +0.000 A 
ATOM     30  C   UNL     1      10.141  12.555  20.990  0.00  0.00    +0.000 A 
ATOM     31  C   UNL     1      10.194  11.422  20.178  0.00  0.00    +0.000 A 
ENDBRANCH  25  26
ENDBRANCH  24  25
ENDBRANCH  23  24
ENDBRANCH  20  23
ENDBRANCH   5  19
TORSDOF 8
ENDMDL
MODEL 5
REMARK VINA RESULT:      -7.2      4.626      8.369
REMARK  Name = 
REMARK  9 active torsions:
REMARK  status: ('A' for Active; 'I' for Inactive)
REMARK    1  A    between atoms: C_1  and  C_2
REMARK    2  A    between atoms: C_2  and  C_3
REMARK    3  A    between atoms: C_3  and  N_4
REMARK    4  A    between atoms: C_10  and  N_11
REMARK    5  A    between atoms: C_15  and  N_16
REMARK    6  A    between atoms: C_17  and  C_19
REMARK    7  A    between atoms: C_19  and  C_20
REMARK    8  A    between atoms: C_20  and  O_21
REMARK    9  A    between atoms: O_21  and  C_22
REMARK                            x       y       z     vdW  Elec       q    Type
REMARK                         _______ _______ _______ _____ _____    ______ ____
ROOT
ATOM      1  N   UNL     1       3.099   4.383  19.772  0.00  0.00    +0.000 N 
ATOM      2  N   UNL     1       2.617   3.130  19.873  0.00  0.00    +0.000 NA
ATOM      3  C   UNL     1       1.418   3.274  20.429  0.00  0.00    +0.000 A 
ATOM      4  C   UNL     1       1.103   4.618  20.663  0.00  0.00    +0.000 A 
ATOM      5  C   UNL     1       2.203   5.333  20.245  0.00  0.00    +0.000 A 
ENDROOT
BRANCH   1  12
ATOM      6  N   UNL     1       5.845   4.067  14.553  0.00  0.00    +0.000 N 
ATOM      7  C   UNL     1       5.499   5.160  15.306  0.00  0.00    +0.000 C 
ATOM      8  O   UNL     1       5.882   6.295  15.037  0.00  0.00    +0.000 OA
ATOM      9  N   UNL     1       4.711   4.877  16.409  0.00  0.00    +0.000 N 
ATOM     10  C   UNL     1       4.163   5.981  17.190  0.00  0.00    +0.000 C 
ATOM     11  C   UNL     1       4.681   5.944  18.627  0.00  0.00    +0.000 C 
ATOM     12  C   UNL     1       4.471   4.574  19.297  0.00  0.00    +0.000 C 
ATOM     13  C   UNL     1       4.963   3.433  18.379  0.00  0.00    +0.000 C 
ATOM     14  C   UNL     1       4.446   3.544  16.943  0.00  0.00    +0.000 C 
ATOM     15  H   UNL     1       5.120   3.372  14.474  0.00  0.00    +0.000 HD
BRANCH   6  16
ATOM     16  C   UNL     1       6.697   4.203  13.387  0.00  0.00    +0.000 C 
BRANCH  16  18
ATOM     17  C   UNL     1       4.794   3.422  11.913  0.00  0.00    +0.000 C 
ATOM     18  C   UNL     1       6.267   3.260  12.268  0.00  0.00    +0.000 C 
ENDBRANCH  16  18
ENDBRANCH   6  16
ENDBRANCH   1  12
BRANCH   5  19
ATOM     19  N   UNL     1       2.360   6.711  20.263  0.00  0.00    +0.000 N 
ATOM     20  C   UNL     1       1.327   7.628  20.727  0.00  0.00    +0.000 C 
ATOM     21  O   UNL     1       0.283   7.187  21.195  0.00  0.00    +0.000 OA
ATOM     22  H   UNL     1       3.250   7.053  19.935  0.00  0.00    +0.000 HD
BRANCH  20  23
ATOM     23  C   UNL     1       1.597   9.108  20.657  0.00  0.00    +0.000 C 
BRANCH  23  24
ATOM     24  C   UNL     1       1.082   9.697  19.367  0.00  0.00    +0.000 C 
BRANCH  24  25
ATOM     25  O   UNL     1       0.203  10.787  19.584  0.00  0.00    +0.000 OA
BRANCH  25  26
ATOM     26  C   UNL     1      -0.915  10.728  18.790  0.00  0.00    +0.000 A 
ATOM     27  C   UNL     1      -1.968  11.558  19.176  0.00  0.00    +0.000 A 
ATOM     28  C   UNL     1      -3.156  11.567  18.443  0.00  0.00    +0.000 A 
ATOM     29  C   UNL     1      -3.289  10.761  17.310  0.00  0.00    +0.000 A 
ATOM     30  C   UNL     1      -2.238   9.944  16.911  0.00  0.00    +0.000 A 
ATOM     31  C   UNL     1      -1.051   9.930  17.645  0.00  0.00    +0.000 A 
ENDBRANCH  25  26
ENDBRANCH  24  25
ENDBRANCH  23  24
ENDBRANCH  20  23
ENDBRANCH   5  19
TORSDOF 8
ENDMDL
MODEL 6
REMARK VINA RESULT:      -7.2      4.611      8.013
REMARK  Name = 
REMARK  9 active torsions:
REMARK  status: ('A' for Active; 'I' for Inactive)
REMARK    1  A    between atoms: C_1  and  C_2
REMARK    2  A    between atoms: C_2  and  C_3
REMARK    3  A    between atoms: C_3  and  N_4
REMARK    4  A    between atoms: C_10  and  N_11
REMARK    5  A    between atoms: C_15  and  N_16
REMARK    6  A    between atoms: C_17  and  C_19
REMARK    7  A    between atoms: C_19  and  C_20
REMARK    8  A    between atoms: C_20  and  O_21
REMARK    9  A    between atoms: O_21  and  C_22
REMARK                            x       y       z     vdW  Elec       q    Type
REMARK                         _______ _______ _______ _____ _____    ______ ____
ROOT
ATOM      1  N   UNL     1       3.223   3.900  19.909  0.00  0.00    +0.000 N 
ATOM      2  N   UNL     1       2.738   3.083  20.862  0.00  0.00    +0.000 NA
ATOM      3  C   UNL     1       1.621   3.672  21.275  0.00  0.00    +0.000 A 
ATOM      4  C   UNL     1       1.358   4.855  20.574  0.00  0.00    +0.000 A 
ATOM      5  C   UNL     1       2.408   5.004  19.696  0.00  0.00    +0.000 A 
ENDROOT
BRANCH   1  12
ATOM      6  N   UNL     1       5.575   4.184  14.500  0.00  0.00    +0.000 N 
ATOM      7  C   UNL     1       5.781   4.982  15.596  0.00  0.00    +0.000 C 
ATOM      8  O   UNL     1       6.664   5.833  15.638  0.00  0.00    +0.000 OA
ATOM      9  N   UNL     1       4.934   4.728  16.663  0.00  0.00    +0.000 N 
ATOM     10  C   UNL     1       4.966   5.616  17.820  0.00  0.00    +0.000 C 
ATOM     11  C   UNL     1       5.379   4.859  19.081  0.00  0.00    +0.000 C 
ATOM     12  C   UNL     1       4.528   3.598  19.317  0.00  0.00    +0.000 C 
ATOM     13  C   UNL     1       4.431   2.751  18.029  0.00  0.00    +0.000 C 
ATOM     14  C   UNL     1       4.055   3.569  16.791  0.00  0.00    +0.000 C 
ATOM     15  H   UNL     1       4.608   3.969  14.319  0.00  0.00    +0.000 HD
BRANCH   6  16
ATOM     16  C   UNL     1       6.409   4.309  13.319  0.00  0.00    +0.000 C 
BRANCH  16  18
ATOM     17  C   UNL     1       4.658   3.386  11.742  0.00  0.00    +0.000 C 
ATOM     18  C   UNL     1       6.075   3.240  12.284  0.00  0.00    +0.000 C 
ENDBRANCH  16  18
ENDBRANCH   6  16
ENDBRANCH   1  12
BRANCH   5  19
ATOM     19  N   UNL     1       2.587   6.025  18.774  0.00  0.00    +0.000 N 
ATOM     20  C   UNL     1       2.349   7.430  19.080  0.00  0.00    +0.000 C 
ATOM     21  O   UNL     1       2.042   7.766  20.218  0.00  0.00    +0.000 OA
ATOM     22  H   UNL     1       2.903   5.738  17.860  0.00  0.00    +0.000 HD
BRANCH  20  23
ATOM     23  C   UNL     1       2.536   8.445  17.982  0.00  0.00    +0.000 C 
BRANCH  23  24
ATOM     24  C   UNL     1       1.266   9.222  17.735  0.00  0.00    +0.000 C 
BRANCH  24  25
ATOM     25  O   UNL     1       0.890  10.010  18.849  0.00  0.00    +0.000 OA
BRANCH  25  26
ATOM     26  C   UNL     1      -0.364  10.552  18.712  0.00  0.00    +0.000 A 
ATOM     27  C   UNL     1      -1.186   9.929  17.771  0.00  0.00    +0.000 A 
ATOM     28  C   UNL     1      -2.478  10.407  17.546  0.00  0.00    +0.000 A 
ATOM     29  C   UNL     1      -2.960  11.498  18.273  0.00  0.00    +0.000 A 
ATOM     30  C   UNL     1      -2.153  12.112  19.222  0.00  0.00    +0.000 A 
ATOM     31  C   UNL     1      -0.859  11.639  19.446  0.00  0.00    +0.000 A 
ENDBRANCH  25  26
ENDBRANCH  24  25
ENDBRANCH  23  24
ENDBRANCH  20  23
ENDBRANCH   5  19
TORSDOF 8
ENDMDL
MODEL 7
REMARK VINA RESULT:      -7.1      4.531      7.869
REMARK  Name = 
REMARK  9 active torsions:
REMARK  status: ('A' for Active; 'I' for Inactive)
REMARK    1  A    between atoms: C_1  and  C_2
REMARK    2  A    between atoms: C_2  and  C_3
REMARK    3  A    between atoms: C_3  and  N_4
REMARK    4  A    between atoms: C_10  and  N_11
REMARK    5  A    between atoms: C_15  and  N_16
REMARK    6  A    between atoms: C_17  and  C_19
REMARK    7  A    between atoms: C_19  and  C_20
REMARK    8  A    between atoms: C_20  and  O_21
REMARK    9  A    between atoms: O_21  and  C_22
REMARK                            x       y       z     vdW  Elec       q    Type
REMARK                         _______ _______ _______ _____ _____    ______ ____
ROOT
ATOM      1  N   UNL     1       3.404   4.489  19.758  0.00  0.00    +0.000 N 
ATOM      2  N   UNL     1       2.954   3.274  20.123  0.00  0.00    +0.000 NA
ATOM      3  C   UNL     1       1.771   3.507  20.682  0.00  0.00    +0.000 A 
ATOM      4  C   UNL     1       1.434   4.865  20.655  0.00  0.00    +0.000 A 
ATOM      5  C   UNL     1       2.503   5.499  20.064  0.00  0.00    +0.000 A 
ENDROOT
BRANCH   1  12
ATOM      6  N   UNL     1       5.854   3.869  14.420  0.00  0.00    +0.000 N 
ATOM      7  C   UNL     1       5.595   5.002  15.148  0.00  0.00    +0.000 C 
ATOM      8  O   UNL     1       6.010   6.109  14.818  0.00  0.00    +0.000 OA
ATOM      9  N   UNL     1       4.856   4.793  16.300  0.00  0.00    +0.000 N 
ATOM     10  C   UNL     1       4.396   5.946  17.067  0.00  0.00    +0.000 C 
ATOM     11  C   UNL     1       4.987   5.938  18.476  0.00  0.00    +0.000 C 
ATOM     12  C   UNL     1       4.756   4.603  19.206  0.00  0.00    +0.000 C 
ATOM     13  C   UNL     1       5.151   3.410  18.308  0.00  0.00    +0.000 C 
ATOM     14  C   UNL     1       4.564   3.492  16.897  0.00  0.00    +0.000 C 
ATOM     15  H   UNL     1       5.099   3.204  14.406  0.00  0.00    +0.000 HD
BRANCH   6  16
ATOM     16  C   UNL     1       6.648   3.926  13.208  0.00  0.00    +0.000 C 
BRANCH  16  18
ATOM     17  C   UNL     1       4.591   3.369  11.844  0.00  0.00    +0.000 C 
ATOM     18  C   UNL     1       6.056   3.047  12.111  0.00  0.00    +0.000 C 
ENDBRANCH  16  18
ENDBRANCH   6  16
ENDBRANCH   1  12
BRANCH   5  19
ATOM     19  N   UNL     1       2.629   6.856  19.802  0.00  0.00    +0.000 N 
ATOM     20  C   UNL     1       2.040   7.504  18.637  0.00  0.00    +0.000 C 
ATOM     21  O   UNL     1       1.334   6.859  17.870  0.00  0.00    +0.000 OA
ATOM     22  H   UNL     1       3.159   7.384  20.479  0.00  0.00    +0.000 HD
BRANCH  20  23
ATOM     23  C   UNL     1       2.283   8.977  18.436  0.00  0.00    +0.000 C 
BRANCH  23  24
ATOM     24  C   UNL     1       1.277   9.805  19.198  0.00  0.00    +0.000 C 
BRANCH  24  25
ATOM     25  O   UNL     1       1.052   9.313  20.507  0.00  0.00    +0.000 OA
BRANCH  25  26
ATOM     26  C   UNL     1       0.351  10.197  21.288  0.00  0.00    +0.000 A 
ATOM     27  C   UNL     1       0.473  11.540  20.929  0.00  0.00    +0.000 A 
ATOM     28  C   UNL     1      -0.191  12.523  21.665  0.00  0.00    +0.000 A 
ATOM     29  C   UNL     1      -0.994  12.167  22.750  0.00  0.00    +0.000 A 
ATOM     30  C   UNL     1      -1.133  10.830  23.102  0.00  0.00    +0.000 A 
ATOM     31  C   UNL     1      -0.466   9.845  22.371  0.00  0.00    +0.000 A 
ENDBRANCH  25  26
ENDBRANCH  24  25
ENDBRANCH  23  24
ENDBRANCH  20  23
ENDBRANCH   5  19
TORSDOF 8
ENDMDL
MODEL 8
REMARK VINA RESULT:      -7.1      4.544      8.380
REMARK  Name = 
REMARK  9 active torsions:
REMARK  status: ('A' for Active; 'I' for Inactive)
REMARK    1  A    between atoms: C_1  and  C_2
REMARK    2  A    between atoms: C_2  and  C_3
REMARK    3  A    between atoms: C_3  and  N_4
REMARK    4  A    between atoms: C_10  and  N_11
REMARK    5  A    between atoms: C_15  and  N_16
REMARK    6  A    between atoms: C_17  and  C_19
REMARK    7  A    between atoms: C_19  and  C_20
REMARK    8  A    between atoms: C_20  and  O_21
REMARK    9  A    between atoms: O_21  and  C_22
REMARK                            x       y       z     vdW  Elec       q    Type
REMARK                         _______ _______ _______ _____ _____    ______ ____
ROOT
ATOM      1  N   UNL     1       3.281   4.800  19.925  0.00  0.00    +0.000 N 
ATOM      2  N   UNL     1       2.988   3.547  20.322  0.00  0.00    +0.000 NA
ATOM      3  C   UNL     1       1.792   3.646  20.892  0.00  0.00    +0.000 A 
ATOM      4  C   UNL     1       1.290   4.952  20.842  0.00  0.00    +0.000 A 
ATOM      5  C   UNL     1       2.266   5.699  20.223  0.00  0.00    +0.000 A 
ENDROOT
BRANCH   1  12
ATOM      6  N   UNL     1       5.864   3.939  14.684  0.00  0.00    +0.000 N 
ATOM      7  C   UNL     1       5.413   5.095  15.269  0.00  0.00    +0.000 C 
ATOM      8  O   UNL     1       5.644   6.205  14.801  0.00  0.00    +0.000 OA
ATOM      9  N   UNL     1       4.704   4.910  16.444  0.00  0.00    +0.000 N 
ATOM     10  C   UNL     1       4.052   6.057  17.066  0.00  0.00    +0.000 C 
ATOM     11  C   UNL     1       4.620   6.321  18.460  0.00  0.00    +0.000 C 
ATOM     12  C   UNL     1       4.602   5.066  19.352  0.00  0.00    +0.000 C 
ATOM     13  C   UNL     1       5.199   3.853  18.604  0.00  0.00    +0.000 C 
ATOM     14  C   UNL     1       4.624   3.663  17.200  0.00  0.00    +0.000 C 
ATOM     15  H   UNL     1       5.228   3.162  14.758  0.00  0.00    +0.000 HD
BRANCH   6  16
ATOM     16  C   UNL     1       6.652   3.976  13.467  0.00  0.00    +0.000 C 
BRANCH  16  18
ATOM     17  C   UNL     1       6.123   2.208  11.736  0.00  0.00    +0.000 C 
ATOM     18  C   UNL     1       5.814   3.610  12.247  0.00  0.00    +0.000 C 
ENDBRANCH  16  18
ENDBRANCH   6  16
ENDBRANCH   1  12
BRANCH   5  19
ATOM     19  N   UNL     1       2.222   7.054  19.931  0.00  0.00    +0.000 N 
ATOM     20  C   UNL     1       1.389   8.003  20.660  0.00  0.00    +0.000 C 
ATOM     21  O   UNL     1       0.737   7.628  21.628  0.00  0.00    +0.000 OA
ATOM     22  H   UNL     1       2.815   7.358  19.174  0.00  0.00    +0.000 HD
BRANCH  20  23
ATOM     23  C   UNL     1       1.392   9.444  20.222  0.00  0.00    +0.000 C 
BRANCH  23  24
ATOM     24  C   UNL     1       1.093   9.568  18.748  0.00  0.00    +0.000 C 
BRANCH  24  25
ATOM     25  O   UNL     1       0.601  10.850  18.402  0.00  0.00    +0.000 OA
BRANCH  25  26
ATOM     26  C   UNL     1      -0.767  10.877  18.292  0.00  0.00    +0.000 A 
ATOM     27  C   UNL     1      -1.317   9.924  17.433  0.00  0.00    +0.000 A 
ATOM     28  C   UNL     1      -2.699   9.872  17.242  0.00  0.00    +0.000 A 
ATOM     29  C   UNL     1      -3.537  10.758  17.922  0.00  0.00    +0.000 A 
ATOM     30  C   UNL     1      -2.997  11.697  18.791  0.00  0.00    +0.000 A 
ATOM     31  C   UNL     1      -1.615  11.755  18.981  0.00  0.00    +0.000 A 
ENDBRANCH  25  26
ENDBRANCH  24  25
ENDBRANCH  23  24
ENDBRANCH  20  23
ENDBRANCH   5  19
TORSDOF 8
ENDMDL
MODEL 9
REMARK VINA RESULT:      -7.1      4.692      8.333
REMARK  Name = 
REMARK  9 active torsions:
REMARK  status: ('A' for Active; 'I' for Inactive)
REMARK    1  A    between atoms: C_1  and  C_2
REMARK    2  A    between atoms: C_2  and  C_3
REMARK    3  A    between atoms: C_3  and  N_4
REMARK    4  A    between atoms: C_10  and  N_11
REMARK    5  A    between atoms: C_15  and  N_16
REMARK    6  A    between atoms: C_17  and  C_19
REMARK    7  A    between atoms: C_19  and  C_20
REMARK    8  A    between atoms: C_20  and  O_21
REMARK    9  A    between atoms: O_21  and  C_22
REMARK                            x       y       z     vdW  Elec       q    Type
REMARK                         _______ _______ _______ _____ _____    ______ ____
ROOT
ATOM      1  N   UNL     1       2.798   4.122  19.646  0.00  0.00    +0.000 N 
ATOM      2  N   UNL     1       2.350   2.970  19.113  0.00  0.00    +0.000 NA
ATOM      3  C   UNL     1       1.148   2.794  19.653  0.00  0.00    +0.000 A 
ATOM      4  C   UNL     1       0.797   3.842  20.512  0.00  0.00    +0.000 A 
ATOM      5  C   UNL     1       1.877   4.695  20.513  0.00  0.00    +0.000 A 
ENDROOT
BRANCH   1  12
ATOM      6  N   UNL     1       6.157   4.427  14.799  0.00  0.00    +0.000 N 
ATOM      7  C   UNL     1       5.545   5.424  15.514  0.00  0.00    +0.000 C 
ATOM      8  O   UNL     1       5.759   6.614  15.305  0.00  0.00    +0.000 OA
ATOM      9  N   UNL     1       4.691   4.980  16.510  0.00  0.00    +0.000 N 
ATOM     10  C   UNL     1       3.875   5.952  17.230  0.00  0.00    +0.000 C 
ATOM     11  C   UNL     1       4.217   5.960  18.719  0.00  0.00    +0.000 C 
ATOM     12  C   UNL     1       4.164   4.554  19.344  0.00  0.00    +0.000 C 
ATOM     13  C   UNL     1       4.948   3.540  18.482  0.00  0.00    +0.000 C 
ATOM     14  C   UNL     1       4.594   3.606  16.995  0.00  0.00    +0.000 C 
ATOM     15  H   UNL     1       5.576   3.624  14.625  0.00  0.00    +0.000 HD
BRANCH   6  16
ATOM     16  C   UNL     1       7.106   4.739  13.747  0.00  0.00    +0.000 C 
BRANCH  16  18
ATOM     17  C   UNL     1       5.405   3.364  12.474  0.00  0.00    +0.000 C 
ATOM     18  C   UNL     1       6.813   3.946  12.477  0.00  0.00    +0.000 C 
ENDBRANCH  16  18
ENDBRANCH   6  16
ENDBRANCH   1  12
BRANCH   5  19
ATOM     19  N   UNL     1       1.997   5.890  21.207  0.00  0.00    +0.000 N 
ATOM     20  C   UNL     1       1.684   7.189  20.625  0.00  0.00    +0.000 C 
ATOM     21  O   UNL     1       1.223   7.256  19.491  0.00  0.00    +0.000 OA
ATOM     22  H   UNL     1       2.316   5.811  22.161  0.00  0.00    +0.000 HD
BRANCH  20  23
ATOM     23  C   UNL     1       1.896   8.422  21.464  0.00  0.00    +0.000 C 
BRANCH  23  24
ATOM     24  C   UNL     1       0.594   9.143  21.713  0.00  0.00    +0.000 C 
BRANCH  24  25
ATOM     25  O   UNL     1       0.773  10.537  21.890  0.00  0.00    +0.000 OA
BRANCH  25  26
ATOM     26  C   UNL     1      -0.413  11.227  21.864  0.00  0.00    +0.000 A 
ATOM     27  C   UNL     1      -1.141  11.211  23.055  0.00  0.00    +0.000 A 
ATOM     28  C   UNL     1      -2.367  11.874  23.134  0.00  0.00    +0.000 A 
ATOM     29  C   UNL     1      -2.861  12.572  22.029  0.00  0.00    +0.000 A 
ATOM     30  C   UNL     1      -2.132  12.607  20.847  0.00  0.00    +0.000 A 
ATOM     31  C   UNL     1      -0.909  11.940  20.764  0.00  0.00    +0.000 A 
ENDBRANCH  25  26
ENDBRANCH  24  25
ENDBRANCH  23  24
ENDBRANCH  20  23
ENDBRANCH   5  19
TORSDOF 8
ENDMDL
