MODEL 1
REMARK VINA RESULT:      -6.6      0.000      0.000
REMARK  Name = 
REMARK  22 active torsions:
REMARK  status: ('A' for Active; 'I' for Inactive)
REMARK    1  A    between atoms: C_1  and  C_2
REMARK    2  A    between atoms: C_2  and  C_3
REMARK    3  A    between atoms: C_3  and  C_4
REMARK    4  A    between atoms: C_4  and  C_5
REMARK    5  A    between atoms: C_5  and  C_6
REMARK    6  A    between atoms: C_6  and  C_7
REMARK    7  A    between atoms: C_7  and  C_8
REMARK    8  A    between atoms: C_8  and  C_9
REMARK    9  A    between atoms: C_9  and  C_10
REMARK   10  A    between atoms: C_10  and  C_11
REMARK   11  A    between atoms: C_11  and  C_12
REMARK   12  A    between atoms: C_12  and  C_13
REMARK   13  A    between atoms: C_13  and  C_14
REMARK   14  A    between atoms: C_14  and  C_15
REMARK   15  A    between atoms: C_15  and  C_16
REMARK   16  A    between atoms: C_15  and  C_19
REMARK   17  A    between atoms: C_16  and  C_17
REMARK   18  A    between atoms: C_17  and  C_18
REMARK   19  A    between atoms: C_23  and  C_24
REMARK   20  A    between atoms: C_24  and  C_26
REMARK   21  A    between atoms: C_27  and  C_28
REMARK   22  A    between atoms: C_28  and  O_30
REMARK                            x       y       z     vdW  Elec       q    Type
REMARK                         _______ _______ _______ _____ _____    ______ ____
ROOT
ATOM      1  C   UNL     1       3.979   3.370  18.615  0.00  0.00    +0.000 C 
ENDROOT
BRANCH   1   2
ATOM      2  C   UNL     1       5.179   4.182  18.112  0.00  0.00    +0.000 A 
ATOM      3  C   UNL     1       5.859   5.107  18.921  0.00  0.00    +0.000 A 
ATOM      4  C   UNL     1       6.888   5.897  18.407  0.00  0.00    +0.000 A 
ATOM      5  C   UNL     1       7.251   5.786  17.067  0.00  0.00    +0.000 A 
ATOM      6  C   UNL     1       6.610   4.850  16.244  0.00  0.00    +0.000 A 
ATOM      7  C   UNL     1       5.618   4.022  16.787  0.00  0.00    +0.000 A 
BRANCH   6   8
ATOM      8  C   UNL     1       6.964   4.774  14.794  0.00  0.00    +0.000 C 
ATOM      9  O   UNL     1       7.719   5.572  14.257  0.00  0.00    +0.000 OA
BRANCH   8  10
ATOM     10  C   UNL     1       6.337   3.699  13.985  0.00  0.00    +0.000 C 
ATOM     11  C   UNL     1       5.938   4.023  12.745  0.00  0.00    +0.000 C 
BRANCH  11  12
ATOM     12  C   UNL     1       5.319   2.979  11.924  0.00  0.00    +0.000 C 
ATOM     13  O   UNL     1       4.242   3.103  11.374  0.00  0.00    +0.000 OA
BRANCH  12  14
ATOM     14  O   UNL     1       6.084   1.883  11.868  0.00  0.00    +0.000 OA
ATOM     15  H   UNL     1       6.663   1.861  11.082  0.00  0.00    +0.000 HD
ENDBRANCH  12  14
ENDBRANCH  11  12
ENDBRANCH   8  10
ENDBRANCH   6   8
ENDBRANCH   1   2
BRANCH   1  16
ATOM     16  C   UNL     1       4.411   2.004  19.238  0.00  0.00    +0.000 C 
BRANCH  16  17
ATOM     17  C   UNL     1       4.512   1.981  20.769  0.00  0.00    +0.000 C 
ATOM     18  C   UNL     1       3.197   2.378  21.432  0.00  0.00    +0.000 C 
ENDBRANCH  16  17
ENDBRANCH   1  16
BRANCH   1  19
ATOM     19  C   UNL     1       2.875   3.224  17.540  0.00  0.00    +0.000 C 
BRANCH  19  20
ATOM     20  C   UNL     1       1.642   2.480  18.016  0.00  0.00    +0.000 C 
BRANCH  20  21
ATOM     21  C   UNL     1       0.933   3.233  19.135  0.00  0.00    +0.000 C 
BRANCH  21  22
ATOM     22  C   UNL     1       1.178   4.718  18.924  0.00  0.00    +0.000 C 
BRANCH  22  23
ATOM     23  C   UNL     1       1.596   5.394  20.212  0.00  0.00    +0.000 C 
BRANCH  23  24
ATOM     24  C   UNL     1       2.483   6.585  19.887  0.00  0.00    +0.000 C 
BRANCH  24  25
ATOM     25  C   UNL     1       2.494   6.801  18.388  0.00  0.00    +0.000 C 
BRANCH  25  26
ATOM     26  C   UNL     1       2.737   8.262  18.063  0.00  0.00    +0.000 C 
BRANCH  26  27
ATOM     27  C   UNL     1       1.418   8.921  17.701  0.00  0.00    +0.000 C 
BRANCH  27  28
ATOM     28  C   UNL     1       1.240  10.210  18.482  0.00  0.00    +0.000 C 
BRANCH  28  29
ATOM     29  C   UNL     1       0.295   9.987  19.653  0.00  0.00    +0.000 C 
BRANCH  29  30
ATOM     30  C   UNL     1       0.992  10.326  20.963  0.00  0.00    +0.000 C 
BRANCH  30  32
ATOM     31  C   UNL     1      -0.382   8.363  21.687  0.00  0.00    +0.000 C 
ATOM     32  C   UNL     1       0.872   9.175  21.954  0.00  0.00    +0.000 C 
ENDBRANCH  30  32
ENDBRANCH  29  30
ENDBRANCH  28  29
ENDBRANCH  27  28
ENDBRANCH  26  27
ENDBRANCH  25  26
ENDBRANCH  24  25
ENDBRANCH  23  24
ENDBRANCH  22  23
ENDBRANCH  21  22
ENDBRANCH  20  21
ENDBRANCH  19  20
ENDBRANCH   1  19
TORSDOF 20
ENDMDL
MODEL 2
REMARK VINA RESULT:      -6.4      2.253      3.692
REMARK  Name = 
REMARK  22 active torsions:
REMARK  status: ('A' for Active; 'I' for Inactive)
REMARK    1  A    between atoms: C_1  and  C_2
REMARK    2  A    between atoms: C_2  and  C_3
REMARK    3  A    between atoms: C_3  and  C_4
REMARK    4  A    between atoms: C_4  and  C_5
REMARK    5  A    between atoms: C_5  and  C_6
REMARK    6  A    between atoms: C_6  and  C_7
REMARK    7  A    between atoms: C_7  and  C_8
REMARK    8  A    between atoms: C_8  and  C_9
REMARK    9  A    between atoms: C_9  and  C_10
REMARK   10  A    between atoms: C_10  and  C_11
REMARK   11  A    between atoms: C_11  and  C_12
REMARK   12  A    between atoms: C_12  and  C_13
REMARK   13  A    between atoms: C_13  and  C_14
REMARK   14  A    between atoms: C_14  and  C_15
REMARK   15  A    between atoms: C_15  and  C_16
REMARK   16  A    between atoms: C_15  and  C_19
REMARK   17  A    between atoms: C_16  and  C_17
REMARK   18  A    between atoms: C_17  and  C_18
REMARK   19  A    between atoms: C_23  and  C_24
REMARK   20  A    between atoms: C_24  and  C_26
REMARK   21  A    between atoms: C_27  and  C_28
REMARK   22  A    between atoms: C_28  and  O_30
REMARK                            x       y       z     vdW  Elec       q    Type
REMARK                         _______ _______ _______ _____ _____    ______ ____
ROOT
ATOM      1  C   UNL     1       3.093   4.609  18.531  0.00  0.00    +0.000 C 
ENDROOT
BRANCH   1   2
ATOM      2  C   UNL     1       4.585   4.705  18.183  0.00  0.00    +0.000 A 
ATOM      3  C   UNL     1       5.566   5.009  19.140  0.00  0.00    +0.000 A 
ATOM      4  C   UNL     1       6.902   5.179  18.776  0.00  0.00    +0.000 A 
ATOM      5  C   UNL     1       7.283   5.061  17.442  0.00  0.00    +0.000 A 
ATOM      6  C   UNL     1       6.330   4.730  16.469  0.00  0.00    +0.000 A 
ATOM      7  C   UNL     1       5.002   4.504  16.856  0.00  0.00    +0.000 A 
BRANCH   6   8
ATOM      8  C   UNL     1       6.733   4.660  15.032  0.00  0.00    +0.000 C 
ATOM      9  O   UNL     1       7.644   5.331  14.568  0.00  0.00    +0.000 OA
BRANCH   8  10
ATOM     10  C   UNL     1       5.959   3.759  14.141  0.00  0.00    +0.000 C 
ATOM     11  C   UNL     1       6.283   3.762  12.839  0.00  0.00    +0.000 C 
BRANCH  11  12
ATOM     12  C   UNL     1       5.538   2.879  11.938  0.00  0.00    +0.000 C 
ATOM     13  O   UNL     1       4.440   3.144  11.488  0.00  0.00    +0.000 OA
BRANCH  12  14
ATOM     14  O   UNL     1       6.215   1.754  11.686  0.00  0.00    +0.000 OA
ATOM     15  H   UNL     1       5.636   0.977  11.564  0.00  0.00    +0.000 HD
ENDBRANCH  12  14
ENDBRANCH  11  12
ENDBRANCH   8  10
ENDBRANCH   6   8
ENDBRANCH   1   2
BRANCH   1  16
ATOM     16  C   UNL     1       2.483   3.228  18.131  0.00  0.00    +0.000 C 
BRANCH  16  17
ATOM     17  C   UNL     1       1.154   2.873  18.811  0.00  0.00    +0.000 C 
ATOM     18  C   UNL     1       1.152   3.253  20.288  0.00  0.00    +0.000 C 
ENDBRANCH  16  17
ENDBRANCH   1  16
BRANCH   1  19
ATOM     19  C   UNL     1       2.285   5.811  17.986  0.00  0.00    +0.000 C 
BRANCH  19  20
ATOM     20  C   UNL     1       2.995   7.145  18.116  0.00  0.00    +0.000 C 
BRANCH  20  21
ATOM     21  C   UNL     1       2.158   8.148  18.901  0.00  0.00    +0.000 C 
BRANCH  21  22
ATOM     22  C   UNL     1       1.382   8.990  17.903  0.00  0.00    +0.000 C 
BRANCH  22  23
ATOM     23  C   UNL     1       1.756  10.452  18.009  0.00  0.00    +0.000 C 
BRANCH  23  24
ATOM     24  C   UNL     1       1.407  10.959  19.399  0.00  0.00    +0.000 C 
BRANCH  24  25
ATOM     25  C   UNL     1       0.487  12.156  19.273  0.00  0.00    +0.000 C 
BRANCH  25  26
ATOM     26  C   UNL     1      -0.835  11.887  19.966  0.00  0.00    +0.000 C 
BRANCH  26  27
ATOM     27  C   UNL     1      -1.749  11.125  19.023  0.00  0.00    +0.000 C 
BRANCH  27  28
ATOM     28  C   UNL     1      -1.850  11.845  17.691  0.00  0.00    +0.000 C 
BRANCH  28  29
ATOM     29  C   UNL     1      -2.315  10.883  16.608  0.00  0.00    +0.000 C 
BRANCH  29  30
ATOM     30  C   UNL     1      -3.689  10.327  16.952  0.00  0.00    +0.000 C 
BRANCH  30  32
ATOM     31  C   UNL     1      -5.825  11.181  17.938  0.00  0.00    +0.000 C 
ATOM     32  C   UNL     1      -4.745  11.424  16.899  0.00  0.00    +0.000 C 
ENDBRANCH  30  32
ENDBRANCH  29  30
ENDBRANCH  28  29
ENDBRANCH  27  28
ENDBRANCH  26  27
ENDBRANCH  25  26
ENDBRANCH  24  25
ENDBRANCH  23  24
ENDBRANCH  22  23
ENDBRANCH  21  22
ENDBRANCH  20  21
ENDBRANCH  19  20
ENDBRANCH   1  19
TORSDOF 20
ENDMDL
MODEL 3
REMARK VINA RESULT:      -6.2      1.097      1.717
REMARK  Name = 
REMARK  22 active torsions:
REMARK  status: ('A' for Active; 'I' for Inactive)
REMARK    1  A    between atoms: C_1  and  C_2
REMARK    2  A    between atoms: C_2  and  C_3
REMARK    3  A    between atoms: C_3  and  C_4
REMARK    4  A    between atoms: C_4  and  C_5
REMARK    5  A    between atoms: C_5  and  C_6
REMARK    6  A    between atoms: C_6  and  C_7
REMARK    7  A    between atoms: C_7  and  C_8
REMARK    8  A    between atoms: C_8  and  C_9
REMARK    9  A    between atoms: C_9  and  C_10
REMARK   10  A    between atoms: C_10  and  C_11
REMARK   11  A    between atoms: C_11  and  C_12
REMARK   12  A    between atoms: C_12  and  C_13
REMARK   13  A    between atoms: C_13  and  C_14
REMARK   14  A    between atoms: C_14  and  C_15
REMARK   15  A    between atoms: C_15  and  C_16
REMARK   16  A    between atoms: C_15  and  C_19
REMARK   17  A    between atoms: C_16  and  C_17
REMARK   18  A    between atoms: C_17  and  C_18
REMARK   19  A    between atoms: C_23  and  C_24
REMARK   20  A    between atoms: C_24  and  C_26
REMARK   21  A    between atoms: C_27  and  C_28
REMARK   22  A    between atoms: C_28  and  O_30
REMARK                            x       y       z     vdW  Elec       q    Type
REMARK                         _______ _______ _______ _____ _____    ______ ____
ROOT
ATOM      1  C   UNL     1       4.017   3.164  18.963  0.00  0.00    +0.000 C 
ENDROOT
BRANCH   1   2
ATOM      2  C   UNL     1       5.163   4.047  18.453  0.00  0.00    +0.000 A 
ATOM      3  C   UNL     1       5.817   4.983  19.270  0.00  0.00    +0.000 A 
ATOM      4  C   UNL     1       6.794   5.836  18.753  0.00  0.00    +0.000 A 
ATOM      5  C   UNL     1       7.128   5.777  17.402  0.00  0.00    +0.000 A 
ATOM      6  C   UNL     1       6.512   4.833  16.570  0.00  0.00    +0.000 A 
ATOM      7  C   UNL     1       5.576   3.943  17.113  0.00  0.00    +0.000 A 
BRANCH   6   8
ATOM      8  C   UNL     1       6.833   4.812  15.110  0.00  0.00    +0.000 C 
ATOM      9  O   UNL     1       7.759   5.449  14.629  0.00  0.00    +0.000 OA
BRANCH   8  10
ATOM     10  C   UNL     1       5.958   4.007  14.222  0.00  0.00    +0.000 C 
ATOM     11  C   UNL     1       6.390   3.793  12.970  0.00  0.00    +0.000 C 
BRANCH  11  12
ATOM     12  C   UNL     1       5.547   2.999  12.073  0.00  0.00    +0.000 C 
ATOM     13  O   UNL     1       4.474   3.377  11.642  0.00  0.00    +0.000 OA
BRANCH  12  14
ATOM     14  O   UNL     1       6.104   1.814  11.801  0.00  0.00    +0.000 OA
ATOM     15  H   UNL     1       5.607   1.062  12.176  0.00  0.00    +0.000 HD
ENDBRANCH  12  14
ENDBRANCH  11  12
ENDBRANCH   8  10
ENDBRANCH   6   8
ENDBRANCH   1   2
BRANCH   1  16
ATOM     16  C   UNL     1       4.278   2.636  20.409  0.00  0.00    +0.000 C 
BRANCH  16  17
ATOM     17  C   UNL     1       3.031   2.489  21.292  0.00  0.00    +0.000 C 
ATOM     18  C   UNL     1       2.391   3.838  21.602  0.00  0.00    +0.000 C 
ENDBRANCH  16  17
ENDBRANCH   1  16
BRANCH   1  19
ATOM     19  C   UNL     1       3.652   2.040  17.963  0.00  0.00    +0.000 C 
BRANCH  19  20
ATOM     20  C   UNL     1       2.160   1.828  17.788  0.00  0.00    +0.000 C 
BRANCH  20  21
ATOM     21  C   UNL     1       1.363   3.014  18.317  0.00  0.00    +0.000 C 
BRANCH  21  22
ATOM     22  C   UNL     1       1.652   4.207  17.422  0.00  0.00    +0.000 C 
BRANCH  22  23
ATOM     23  C   UNL     1       1.535   5.508  18.185  0.00  0.00    +0.000 C 
BRANCH  23  24
ATOM     24  C   UNL     1       2.689   6.420  17.802  0.00  0.00    +0.000 C 
BRANCH  24  25
ATOM     25  C   UNL     1       2.651   7.659  18.672  0.00  0.00    +0.000 C 
BRANCH  25  26
ATOM     26  C   UNL     1       2.145   7.319  20.061  0.00  0.00    +0.000 C 
BRANCH  26  27
ATOM     27  C   UNL     1       1.250   8.440  20.557  0.00  0.00    +0.000 C 
BRANCH  27  28
ATOM     28  C   UNL     1       0.973   9.428  19.438  0.00  0.00    +0.000 C 
BRANCH  28  29
ATOM     29  C   UNL     1      -0.067  10.445  19.882  0.00  0.00    +0.000 C 
BRANCH  29  30
ATOM     30  C   UNL     1       0.607  11.617  20.581  0.00  0.00    +0.000 C 
BRANCH  30  32
ATOM     31  C   UNL     1      -0.172  12.899  18.578  0.00  0.00    +0.000 C 
ATOM     32  C   UNL     1       0.948  12.718  19.585  0.00  0.00    +0.000 C 
ENDBRANCH  30  32
ENDBRANCH  29  30
ENDBRANCH  28  29
ENDBRANCH  27  28
ENDBRANCH  26  27
ENDBRANCH  25  26
ENDBRANCH  24  25
ENDBRANCH  23  24
ENDBRANCH  22  23
ENDBRANCH  21  22
ENDBRANCH  20  21
ENDBRANCH  19  20
ENDBRANCH   1  19
TORSDOF 20
ENDMDL
MODEL 4
REMARK VINA RESULT:      -6.1      1.952      3.080
REMARK  Name = 
REMARK  22 active torsions:
REMARK  status: ('A' for Active; 'I' for Inactive)
REMARK    1  A    between atoms: C_1  and  C_2
REMARK    2  A    between atoms: C_2  and  C_3
REMARK    3  A    between atoms: C_3  and  C_4
REMARK    4  A    between atoms: C_4  and  C_5
REMARK    5  A    between atoms: C_5  and  C_6
REMARK    6  A    between atoms: C_6  and  C_7
REMARK    7  A    between atoms: C_7  and  C_8
REMARK    8  A    between atoms: C_8  and  C_9
REMARK    9  A    between atoms: C_9  and  C_10
REMARK   10  A    between atoms: C_10  and  C_11
REMARK   11  A    between atoms: C_11  and  C_12
REMARK   12  A    between atoms: C_12  and  C_13
REMARK   13  A    between atoms: C_13  and  C_14
REMARK   14  A    between atoms: C_14  and  C_15
REMARK   15  A    between atoms: C_15  and  C_16
REMARK   16  A    between atoms: C_15  and  C_19
REMARK   17  A    between atoms: C_16  and  C_17
REMARK   18  A    between atoms: C_17  and  C_18
REMARK   19  A    between atoms: C_23  and  C_24
REMARK   20  A    between atoms: C_24  and  C_26
REMARK   21  A    between atoms: C_27  and  C_28
REMARK   22  A    between atoms: C_28  and  O_30
REMARK                            x       y       z     vdW  Elec       q    Type
REMARK                         _______ _______ _______ _____ _____    ______ ____
ROOT
ATOM      1  C   UNL     1       3.399   4.387  18.494  0.00  0.00    +0.000 C 
ENDROOT
BRANCH   1   2
ATOM      2  C   UNL     1       4.824   4.728  18.036  0.00  0.00    +0.000 A 
ATOM      3  C   UNL     1       5.785   5.277  18.900  0.00  0.00    +0.000 A 
ATOM      4  C   UNL     1       7.042   5.661  18.432  0.00  0.00    +0.000 A 
ATOM      5  C   UNL     1       7.360   5.512  17.084  0.00  0.00    +0.000 A 
ATOM      6  C   UNL     1       6.431   4.940  16.205  0.00  0.00    +0.000 A 
ATOM      7  C   UNL     1       5.194   4.505  16.699  0.00  0.00    +0.000 A 
BRANCH   6   8
ATOM      8  C   UNL     1       6.756   4.835  14.750  0.00  0.00    +0.000 C 
ATOM      9  O   UNL     1       7.696   5.428  14.239  0.00  0.00    +0.000 OA
BRANCH   8  10
ATOM     10  C   UNL     1       5.869   3.999  13.902  0.00  0.00    +0.000 C 
ATOM     11  C   UNL     1       6.342   3.631  12.702  0.00  0.00    +0.000 C 
BRANCH  11  12
ATOM     12  C   UNL     1       5.487   2.803  11.847  0.00  0.00    +0.000 C 
ATOM     13  O   UNL     1       4.391   3.148  11.450  0.00  0.00    +0.000 OA
BRANCH  12  14
ATOM     14  O   UNL     1       6.065   1.628  11.570  0.00  0.00    +0.000 OA
ATOM     15  H   UNL     1       5.811   1.274  10.696  0.00  0.00    +0.000 HD
ENDBRANCH  12  14
ENDBRANCH  11  12
ENDBRANCH   8  10
ENDBRANCH   6   8
ENDBRANCH   1   2
BRANCH   1  16
ATOM     16  C   UNL     1       2.961   2.958  18.042  0.00  0.00    +0.000 C 
BRANCH  16  17
ATOM     17  C   UNL     1       3.627   1.797  18.792  0.00  0.00    +0.000 C 
ATOM     18  C   UNL     1       4.058   2.200  20.198  0.00  0.00    +0.000 C 
ENDBRANCH  16  17
ENDBRANCH   1  16
BRANCH   1  19
ATOM     19  C   UNL     1       2.380   5.486  18.108  0.00  0.00    +0.000 C 
BRANCH  19  20
ATOM     20  C   UNL     1       2.570   6.795  18.850  0.00  0.00    +0.000 C 
BRANCH  20  21
ATOM     21  C   UNL     1       2.898   7.935  17.894  0.00  0.00    +0.000 C 
BRANCH  21  22
ATOM     22  C   UNL     1       1.769   8.949  17.972  0.00  0.00    +0.000 C 
BRANCH  22  23
ATOM     23  C   UNL     1       1.185   9.015  19.366  0.00  0.00    +0.000 C 
BRANCH  23  24
ATOM     24  C   UNL     1       0.441  10.329  19.537  0.00  0.00    +0.000 C 
BRANCH  24  25
ATOM     25  C   UNL     1       0.992  11.056  20.747  0.00  0.00    +0.000 C 
BRANCH  25  26
ATOM     26  C   UNL     1       1.046  12.550  20.490  0.00  0.00    +0.000 C 
BRANCH  26  27
ATOM     27  C   UNL     1       0.174  12.884  19.292  0.00  0.00    +0.000 C 
BRANCH  27  28
ATOM     28  C   UNL     1      -1.035  13.691  19.729  0.00  0.00    +0.000 C 
BRANCH  28  29
ATOM     29  C   UNL     1      -2.241  12.779  19.897  0.00  0.00    +0.000 C 
BRANCH  29  30
ATOM     30  C   UNL     1      -2.927  13.054  21.227  0.00  0.00    +0.000 C 
BRANCH  30  32
ATOM     31  C   UNL     1      -3.144  12.210  23.572  0.00  0.00    +0.000 C 
ATOM     32  C   UNL     1      -2.239  12.299  22.357  0.00  0.00    +0.000 C 
ENDBRANCH  30  32
ENDBRANCH  29  30
ENDBRANCH  28  29
ENDBRANCH  27  28
ENDBRANCH  26  27
ENDBRANCH  25  26
ENDBRANCH  24  25
ENDBRANCH  23  24
ENDBRANCH  22  23
ENDBRANCH  21  22
ENDBRANCH  20  21
ENDBRANCH  19  20
ENDBRANCH   1  19
TORSDOF 20
ENDMDL
MODEL 5
REMARK VINA RESULT:      -6.1      3.243      4.436
REMARK  Name = 
REMARK  22 active torsions:
REMARK  status: ('A' for Active; 'I' for Inactive)
REMARK    1  A    between atoms: C_1  and  C_2
REMARK    2  A    between atoms: C_2  and  C_3
REMARK    3  A    between atoms: C_3  and  C_4
REMARK    4  A    between atoms: C_4  and  C_5
REMARK    5  A    between atoms: C_5  and  C_6
REMARK    6  A    between atoms: C_6  and  C_7
REMARK    7  A    between atoms: C_7  and  C_8
REMARK    8  A    between atoms: C_8  and  C_9
REMARK    9  A    between atoms: C_9  and  C_10
REMARK   10  A    between atoms: C_10  and  C_11
REMARK   11  A    between atoms: C_11  and  C_12
REMARK   12  A    between atoms: C_12  and  C_13
REMARK   13  A    between atoms: C_13  and  C_14
REMARK   14  A    between atoms: C_14  and  C_15
REMARK   15  A    between atoms: C_15  and  C_16
REMARK   16  A    between atoms: C_15  and  C_19
REMARK   17  A    between atoms: C_16  and  C_17
REMARK   18  A    between atoms: C_17  and  C_18
REMARK   19  A    between atoms: C_23  and  C_24
REMARK   20  A    between atoms: C_24  and  C_26
REMARK   21  A    between atoms: C_27  and  C_28
REMARK   22  A    between atoms: C_28  and  O_30
REMARK                            x       y       z     vdW  Elec       q    Type
REMARK                         _______ _______ _______ _____ _____    ______ ____
ROOT
ATOM      1  C   UNL     1       3.107   5.034  18.456  0.00  0.00    +0.000 C 
ENDROOT
BRANCH   1   2
ATOM      2  C   UNL     1       4.594   5.011  18.077  0.00  0.00    +0.000 A 
ATOM      3  C   UNL     1       5.617   5.223  19.014  0.00  0.00    +0.000 A 
ATOM      4  C   UNL     1       6.955   5.286  18.622  0.00  0.00    +0.000 A 
ATOM      5  C   UNL     1       7.296   5.150  17.279  0.00  0.00    +0.000 A 
ATOM      6  C   UNL     1       6.298   4.909  16.325  0.00  0.00    +0.000 A 
ATOM      7  C   UNL     1       4.964   4.789  16.739  0.00  0.00    +0.000 A 
BRANCH   6   8
ATOM      8  C   UNL     1       6.663   4.820  14.878  0.00  0.00    +0.000 C 
ATOM      9  O   UNL     1       7.630   5.399  14.405  0.00  0.00    +0.000 OA
BRANCH   8  10
ATOM     10  C   UNL     1       5.782   4.020  13.991  0.00  0.00    +0.000 C 
ATOM     11  C   UNL     1       6.294   3.628  12.815  0.00  0.00    +0.000 C 
BRANCH  11  12
ATOM     12  C   UNL     1       5.445   2.833  11.922  0.00  0.00    +0.000 C 
ATOM     13  O   UNL     1       5.772   1.756  11.462  0.00  0.00    +0.000 OA
BRANCH  12  14
ATOM     14  O   UNL     1       4.282   3.448  11.679  0.00  0.00    +0.000 OA
ATOM     15  H   UNL     1       4.307   4.405  11.872  0.00  0.00    +0.000 HD
ENDBRANCH  12  14
ENDBRANCH  11  12
ENDBRANCH   8  10
ENDBRANCH   6   8
ENDBRANCH   1   2
BRANCH   1  16
ATOM     16  C   UNL     1       2.431   3.638  18.277  0.00  0.00    +0.000 C 
BRANCH  16  17
ATOM     17  C   UNL     1       2.960   2.528  19.194  0.00  0.00    +0.000 C 
ATOM     18  C   UNL     1       3.644   1.415  18.406  0.00  0.00    +0.000 C 
ENDBRANCH  16  17
ENDBRANCH   1  16
BRANCH   1  19
ATOM     19  C   UNL     1       2.339   6.176  17.750  0.00  0.00    +0.000 C 
BRANCH  19  20
ATOM     20  C   UNL     1       2.615   7.555  18.321  0.00  0.00    +0.000 C 
BRANCH  20  21
ATOM     21  C   UNL     1       1.678   8.601  17.729  0.00  0.00    +0.000 C 
BRANCH  21  22
ATOM     22  C   UNL     1       1.538   9.726  18.740  0.00  0.00    +0.000 C 
BRANCH  22  23
ATOM     23  C   UNL     1       0.229   9.629  19.492  0.00  0.00    +0.000 C 
BRANCH  23  24
ATOM     24  C   UNL     1      -0.663  10.796  19.099  0.00  0.00    +0.000 C 
BRANCH  24  25
ATOM     25  C   UNL     1      -1.293  10.506  17.752  0.00  0.00    +0.000 C 
BRANCH  25  26
ATOM     26  C   UNL     1      -2.701   9.971  17.928  0.00  0.00    +0.000 C 
BRANCH  26  27
ATOM     27  C   UNL     1      -3.546  10.384  16.736  0.00  0.00    +0.000 C 
BRANCH  27  28
ATOM     28  C   UNL     1      -4.427  11.565  17.097  0.00  0.00    +0.000 C 
BRANCH  28  29
ATOM     29  C   UNL     1      -5.527  11.127  18.052  0.00  0.00    +0.000 C 
BRANCH  29  30
ATOM     30  C   UNL     1      -6.515  12.263  18.273  0.00  0.00    +0.000 C 
BRANCH  30  32
ATOM     31  C   UNL     1      -6.916  14.483  17.191  0.00  0.00    +0.000 C 
ATOM     32  C   UNL     1      -6.810  12.986  16.965  0.00  0.00    +0.000 C 
ENDBRANCH  30  32
ENDBRANCH  29  30
ENDBRANCH  28  29
ENDBRANCH  27  28
ENDBRANCH  26  27
ENDBRANCH  25  26
ENDBRANCH  24  25
ENDBRANCH  23  24
ENDBRANCH  22  23
ENDBRANCH  21  22
ENDBRANCH  20  21
ENDBRANCH  19  20
ENDBRANCH   1  19
TORSDOF 20
ENDMDL
MODEL 6
REMARK VINA RESULT:      -5.9      3.121      4.316
REMARK  Name = 
REMARK  22 active torsions:
REMARK  status: ('A' for Active; 'I' for Inactive)
REMARK    1  A    between atoms: C_1  and  C_2
REMARK    2  A    between atoms: C_2  and  C_3
REMARK    3  A    between atoms: C_3  and  C_4
REMARK    4  A    between atoms: C_4  and  C_5
REMARK    5  A    between atoms: C_5  and  C_6
REMARK    6  A    between atoms: C_6  and  C_7
REMARK    7  A    between atoms: C_7  and  C_8
REMARK    8  A    between atoms: C_8  and  C_9
REMARK    9  A    between atoms: C_9  and  C_10
REMARK   10  A    between atoms: C_10  and  C_11
REMARK   11  A    between atoms: C_11  and  C_12
REMARK   12  A    between atoms: C_12  and  C_13
REMARK   13  A    between atoms: C_13  and  C_14
REMARK   14  A    between atoms: C_14  and  C_15
REMARK   15  A    between atoms: C_15  and  C_16
REMARK   16  A    between atoms: C_15  and  C_19
REMARK   17  A    between atoms: C_16  and  C_17
REMARK   18  A    between atoms: C_17  and  C_18
REMARK   19  A    between atoms: C_23  and  C_24
REMARK   20  A    between atoms: C_24  and  C_26
REMARK   21  A    between atoms: C_27  and  C_28
REMARK   22  A    between atoms: C_28  and  O_30
REMARK                            x       y       z     vdW  Elec       q    Type
REMARK                         _______ _______ _______ _____ _____    ______ ____
ROOT
ATOM      1  C   UNL     1       2.872   5.371  18.269  0.00  0.00    +0.000 C 
ENDROOT
BRANCH   1   2
ATOM      2  C   UNL     1       4.383   5.260  18.023  0.00  0.00    +0.000 A 
ATOM      3  C   UNL     1       5.332   5.473  19.035  0.00  0.00    +0.000 A 
ATOM      4  C   UNL     1       6.699   5.455  18.759  0.00  0.00    +0.000 A 
ATOM      5  C   UNL     1       7.146   5.234  17.458  0.00  0.00    +0.000 A 
ATOM      6  C   UNL     1       6.222   4.990  16.433  0.00  0.00    +0.000 A 
ATOM      7  C   UNL     1       4.854   4.952  16.735  0.00  0.00    +0.000 A 
BRANCH   6   8
ATOM      8  C   UNL     1       6.704   4.810  15.030  0.00  0.00    +0.000 C 
ATOM      9  O   UNL     1       7.720   5.342  14.608  0.00  0.00    +0.000 OA
BRANCH   8  10
ATOM     10  C   UNL     1       5.881   3.975  14.119  0.00  0.00    +0.000 C 
ATOM     11  C   UNL     1       6.343   3.795  12.872  0.00  0.00    +0.000 C 
BRANCH  11  12
ATOM     12  C   UNL     1       5.551   2.972  11.953  0.00  0.00    +0.000 C 
ATOM     13  O   UNL     1       4.468   3.305  11.512  0.00  0.00    +0.000 OA
BRANCH  12  14
ATOM     14  O   UNL     1       6.169   1.819  11.675  0.00  0.00    +0.000 OA
ATOM     15  H   UNL     1       6.458   1.337  12.474  0.00  0.00    +0.000 HD
ENDBRANCH  12  14
ENDBRANCH  11  12
ENDBRANCH   8  10
ENDBRANCH   6   8
ENDBRANCH   1   2
BRANCH   1  16
ATOM     16  C   UNL     1       2.115   4.058  17.892  0.00  0.00    +0.000 C 
BRANCH  16  17
ATOM     17  C   UNL     1       1.195   3.492  18.981  0.00  0.00    +0.000 C 
ATOM     18  C   UNL     1       1.539   2.045  19.321  0.00  0.00    +0.000 C 
ENDBRANCH  16  17
ENDBRANCH   1  16
BRANCH   1  19
ATOM     19  C   UNL     1       2.261   6.634  17.615  0.00  0.00    +0.000 C 
BRANCH  19  20
ATOM     20  C   UNL     1       2.952   7.928  18.003  0.00  0.00    +0.000 C 
BRANCH  20  21
ATOM     21  C   UNL     1       1.955   9.072  18.138  0.00  0.00    +0.000 C 
BRANCH  21  22
ATOM     22  C   UNL     1       1.585   9.198  19.606  0.00  0.00    +0.000 C 
BRANCH  22  23
ATOM     23  C   UNL     1       0.313   9.998  19.786  0.00  0.00    +0.000 C 
BRANCH  23  24
ATOM     24  C   UNL     1      -0.578   9.804  18.571  0.00  0.00    +0.000 C 
BRANCH  24  25
ATOM     25  C   UNL     1      -1.241  11.122  18.228  0.00  0.00    +0.000 C 
BRANCH  25  26
ATOM     26  C   UNL     1      -2.742  11.029  18.422  0.00  0.00    +0.000 C 
BRANCH  26  27
ATOM     27  C   UNL     1      -3.442  11.634  17.217  0.00  0.00    +0.000 C 
BRANCH  27  28
ATOM     28  C   UNL     1      -4.777  10.951  16.986  0.00  0.00    +0.000 C 
BRANCH  28  29
ATOM     29  C   UNL     1      -5.534  10.821  18.299  0.00  0.00    +0.000 C 
BRANCH  29  30
ATOM     30  C   UNL     1      -6.904  11.475  18.183  0.00  0.00    +0.000 C 
BRANCH  30  32
ATOM     31  C   UNL     1      -7.164  11.441  20.672  0.00  0.00    +0.000 C 
ATOM     32  C   UNL     1      -7.216  12.302  19.423  0.00  0.00    +0.000 C 
ENDBRANCH  30  32
ENDBRANCH  29  30
ENDBRANCH  28  29
ENDBRANCH  27  28
ENDBRANCH  26  27
ENDBRANCH  25  26
ENDBRANCH  24  25
ENDBRANCH  23  24
ENDBRANCH  22  23
ENDBRANCH  21  22
ENDBRANCH  20  21
ENDBRANCH  19  20
ENDBRANCH   1  19
TORSDOF 20
ENDMDL
MODEL 7
REMARK VINA RESULT:      -5.9      2.188      3.371
REMARK  Name = 
REMARK  22 active torsions:
REMARK  status: ('A' for Active; 'I' for Inactive)
REMARK    1  A    between atoms: C_1  and  C_2
REMARK    2  A    between atoms: C_2  and  C_3
REMARK    3  A    between atoms: C_3  and  C_4
REMARK    4  A    between atoms: C_4  and  C_5
REMARK    5  A    between atoms: C_5  and  C_6
REMARK    6  A    between atoms: C_6  and  C_7
REMARK    7  A    between atoms: C_7  and  C_8
REMARK    8  A    between atoms: C_8  and  C_9
REMARK    9  A    between atoms: C_9  and  C_10
REMARK   10  A    between atoms: C_10  and  C_11
REMARK   11  A    between atoms: C_11  and  C_12
REMARK   12  A    between atoms: C_12  and  C_13
REMARK   13  A    between atoms: C_13  and  C_14
REMARK   14  A    between atoms: C_14  and  C_15
REMARK   15  A    between atoms: C_15  and  C_16
REMARK   16  A    between atoms: C_15  and  C_19
REMARK   17  A    between atoms: C_16  and  C_17
REMARK   18  A    between atoms: C_17  and  C_18
REMARK   19  A    between atoms: C_23  and  C_24
REMARK   20  A    between atoms: C_24  and  C_26
REMARK   21  A    between atoms: C_27  and  C_28
REMARK   22  A    between atoms: C_28  and  O_30
REMARK                            x       y       z     vdW  Elec       q    Type
REMARK                         _______ _______ _______ _____ _____    ______ ____
ROOT
ATOM      1  C   UNL     1       3.218   4.598  18.342  0.00  0.00    +0.000 C 
ENDROOT
BRANCH   1   2
ATOM      2  C   UNL     1       4.676   4.821  17.920  0.00  0.00    +0.000 A 
ATOM      3  C   UNL     1       5.664   5.261  18.815  0.00  0.00    +0.000 A 
ATOM      4  C   UNL     1       6.960   5.543  18.381  0.00  0.00    +0.000 A 
ATOM      5  C   UNL     1       7.291   5.401  17.035  0.00  0.00    +0.000 A 
ATOM      6  C   UNL     1       6.334   4.936  16.124  0.00  0.00    +0.000 A 
ATOM      7  C   UNL     1       5.053   4.600  16.584  0.00  0.00    +0.000 A 
BRANCH   6   8
ATOM      8  C   UNL     1       6.678   4.839  14.673  0.00  0.00    +0.000 C 
ATOM      9  O   UNL     1       7.679   5.354  14.197  0.00  0.00    +0.000 OA
BRANCH   8  10
ATOM     10  C   UNL     1       5.735   4.113  13.786  0.00  0.00    +0.000 C 
ATOM     11  C   UNL     1       6.253   3.514  12.704  0.00  0.00    +0.000 C 
BRANCH  11  12
ATOM     12  C   UNL     1       5.344   2.787  11.813  0.00  0.00    +0.000 C 
ATOM     13  O   UNL     1       4.318   3.260  11.364  0.00  0.00    +0.000 OA
BRANCH  12  14
ATOM     14  O   UNL     1       5.786   1.548  11.570  0.00  0.00    +0.000 OA
ATOM     15  H   UNL     1       5.401   1.157  10.762  0.00  0.00    +0.000 HD
ENDBRANCH  12  14
ENDBRANCH  11  12
ENDBRANCH   8  10
ENDBRANCH   6   8
ENDBRANCH   1   2
BRANCH   1  16
ATOM     16  C   UNL     1       2.540   3.448  17.532  0.00  0.00    +0.000 C 
BRANCH  16  17
ATOM     17  C   UNL     1       3.158   2.056  17.720  0.00  0.00    +0.000 C 
ATOM     18  C   UNL     1       3.541   1.795  19.174  0.00  0.00    +0.000 C 
ENDBRANCH  16  17
ENDBRANCH   1  16
BRANCH   1  19
ATOM     19  C   UNL     1       2.397   5.910  18.337  0.00  0.00    +0.000 C 
BRANCH  19  20
ATOM     20  C   UNL     1       2.466   6.688  19.638  0.00  0.00    +0.000 C 
BRANCH  20  21
ATOM     21  C   UNL     1       1.799   8.051  19.508  0.00  0.00    +0.000 C 
BRANCH  21  22
ATOM     22  C   UNL     1       2.119   8.596  18.126  0.00  0.00    +0.000 C 
BRANCH  22  23
ATOM     23  C   UNL     1       1.563   9.991  17.943  0.00  0.00    +0.000 C 
BRANCH  23  24
ATOM     24  C   UNL     1       0.045   9.940  18.009  0.00  0.00    +0.000 C 
BRANCH  24  25
ATOM     25  C   UNL     1      -0.428  10.770  19.184  0.00  0.00    +0.000 C 
BRANCH  25  26
ATOM     26  C   UNL     1       0.720  11.577  19.761  0.00  0.00    +0.000 C 
BRANCH  26  27
ATOM     27  C   UNL     1       0.169  12.828  20.424  0.00  0.00    +0.000 C 
BRANCH  27  28
ATOM     28  C   UNL     1      -1.319  12.676  20.682  0.00  0.00    +0.000 C 
BRANCH  28  29
ATOM     29  C   UNL     1      -1.589  12.621  22.177  0.00  0.00    +0.000 C 
BRANCH  29  30
ATOM     30  C   UNL     1      -3.061  12.333  22.436  0.00  0.00    +0.000 C 
BRANCH  30  32
ATOM     31  C   UNL     1      -3.630  13.900  24.302  0.00  0.00    +0.000 C 
ATOM     32  C   UNL     1      -3.384  12.453  23.920  0.00  0.00    +0.000 C 
ENDBRANCH  30  32
ENDBRANCH  29  30
ENDBRANCH  28  29
ENDBRANCH  27  28
ENDBRANCH  26  27
ENDBRANCH  25  26
ENDBRANCH  24  25
ENDBRANCH  23  24
ENDBRANCH  22  23
ENDBRANCH  21  22
ENDBRANCH  20  21
ENDBRANCH  19  20
ENDBRANCH   1  19
TORSDOF 20
ENDMDL
MODEL 8
REMARK VINA RESULT:      -5.8      2.511      3.925
REMARK  Name = 
REMARK  22 active torsions:
REMARK  status: ('A' for Active; 'I' for Inactive)
REMARK    1  A    between atoms: C_1  and  C_2
REMARK    2  A    between atoms: C_2  and  C_3
REMARK    3  A    between atoms: C_3  and  C_4
REMARK    4  A    between atoms: C_4  and  C_5
REMARK    5  A    between atoms: C_5  and  C_6
REMARK    6  A    between atoms: C_6  and  C_7
REMARK    7  A    between atoms: C_7  and  C_8
REMARK    8  A    between atoms: C_8  and  C_9
REMARK    9  A    between atoms: C_9  and  C_10
REMARK   10  A    between atoms: C_10  and  C_11
REMARK   11  A    between atoms: C_11  and  C_12
REMARK   12  A    between atoms: C_12  and  C_13
REMARK   13  A    between atoms: C_13  and  C_14
REMARK   14  A    between atoms: C_14  and  C_15
REMARK   15  A    between atoms: C_15  and  C_16
REMARK   16  A    between atoms: C_15  and  C_19
REMARK   17  A    between atoms: C_16  and  C_17
REMARK   18  A    between atoms: C_17  and  C_18
REMARK   19  A    between atoms: C_23  and  C_24
REMARK   20  A    between atoms: C_24  and  C_26
REMARK   21  A    between atoms: C_27  and  C_28
REMARK   22  A    between atoms: C_28  and  O_30
REMARK                            x       y       z     vdW  Elec       q    Type
REMARK                         _______ _______ _______ _____ _____    ______ ____
ROOT
ATOM      1  C   UNL     1       3.351   4.910  18.654  0.00  0.00    +0.000 C 
ENDROOT
BRANCH   1   2
ATOM      2  C   UNL     1       4.829   5.001  18.250  0.00  0.00    +0.000 A 
ATOM      3  C   UNL     1       5.845   5.320  19.165  0.00  0.00    +0.000 A 
ATOM      4  C   UNL     1       7.166   5.484  18.749  0.00  0.00    +0.000 A 
ATOM      5  C   UNL     1       7.497   5.343  17.403  0.00  0.00    +0.000 A 
ATOM      6  C   UNL     1       6.509   4.997  16.472  0.00  0.00    +0.000 A 
ATOM      7  C   UNL     1       5.197   4.777  16.912  0.00  0.00    +0.000 A 
BRANCH   6   8
ATOM      8  C   UNL     1       6.858   4.902  15.022  0.00  0.00    +0.000 C 
ATOM      9  O   UNL     1       7.828   5.469  14.539  0.00  0.00    +0.000 OA
BRANCH   8  10
ATOM     10  C   UNL     1       5.958   4.112  14.145  0.00  0.00    +0.000 C 
ATOM     11  C   UNL     1       6.437   3.755  12.943  0.00  0.00    +0.000 C 
BRANCH  11  12
ATOM     12  C   UNL     1       5.569   2.972  12.059  0.00  0.00    +0.000 C 
ATOM     13  O   UNL     1       4.494   3.363  11.647  0.00  0.00    +0.000 OA
BRANCH  12  14
ATOM     14  O   UNL     1       6.110   1.782  11.774  0.00  0.00    +0.000 OA
ATOM     15  H   UNL     1       6.694   1.804  10.991  0.00  0.00    +0.000 HD
ENDBRANCH  12  14
ENDBRANCH  11  12
ENDBRANCH   8  10
ENDBRANCH   6   8
ENDBRANCH   1   2
BRANCH   1  16
ATOM     16  C   UNL     1       2.809   3.448  18.580  0.00  0.00    +0.000 C 
BRANCH  16  17
ATOM     17  C   UNL     1       1.348   3.309  18.132  0.00  0.00    +0.000 C 
ATOM     18  C   UNL     1       0.587   2.293  18.978  0.00  0.00    +0.000 C 
ENDBRANCH  16  17
ENDBRANCH   1  16
BRANCH   1  19
ATOM     19  C   UNL     1       2.469   5.924  17.887  0.00  0.00    +0.000 C 
BRANCH  19  20
ATOM     20  C   UNL     1       2.748   7.375  18.235  0.00  0.00    +0.000 C 
BRANCH  20  21
ATOM     21  C   UNL     1       1.989   7.802  19.486  0.00  0.00    +0.000 C 
BRANCH  21  22
ATOM     22  C   UNL     1       1.477   9.215  19.260  0.00  0.00    +0.000 C 
BRANCH  22  23
ATOM     23  C   UNL     1       0.903   9.375  17.869  0.00  0.00    +0.000 C 
BRANCH  23  24
ATOM     24  C   UNL     1      -0.548   9.817  17.973  0.00  0.00    +0.000 C 
BRANCH  24  25
ATOM     25  C   UNL     1      -0.685  10.804  19.114  0.00  0.00    +0.000 C 
BRANCH  25  26
ATOM     26  C   UNL     1      -0.713  12.226  18.586  0.00  0.00    +0.000 C 
BRANCH  26  27
ATOM     27  C   UNL     1       0.302  13.062  19.346  0.00  0.00    +0.000 C 
BRANCH  27  28
ATOM     28  C   UNL     1      -0.207  14.481  19.518  0.00  0.00    +0.000 C 
BRANCH  28  29
ATOM     29  C   UNL     1       0.662  15.449  18.729  0.00  0.00    +0.000 C 
BRANCH  29  30
ATOM     30  C   UNL     1       1.923  15.782  19.512  0.00  0.00    +0.000 C 
BRANCH  30  32
ATOM     31  C   UNL     1       3.422  15.609  17.516  0.00  0.00    +0.000 C 
ATOM     32  C   UNL     1       2.930  16.511  18.633  0.00  0.00    +0.000 C 
ENDBRANCH  30  32
ENDBRANCH  29  30
ENDBRANCH  28  29
ENDBRANCH  27  28
ENDBRANCH  26  27
ENDBRANCH  25  26
ENDBRANCH  24  25
ENDBRANCH  23  24
ENDBRANCH  22  23
ENDBRANCH  21  22
ENDBRANCH  20  21
ENDBRANCH  19  20
ENDBRANCH   1  19
TORSDOF 20
ENDMDL
MODEL 9
REMARK VINA RESULT:      -5.8      1.970      3.802
REMARK  Name = 
REMARK  22 active torsions:
REMARK  status: ('A' for Active; 'I' for Inactive)
REMARK    1  A    between atoms: C_1  and  C_2
REMARK    2  A    between atoms: C_2  and  C_3
REMARK    3  A    between atoms: C_3  and  C_4
REMARK    4  A    between atoms: C_4  and  C_5
REMARK    5  A    between atoms: C_5  and  C_6
REMARK    6  A    between atoms: C_6  and  C_7
REMARK    7  A    between atoms: C_7  and  C_8
REMARK    8  A    between atoms: C_8  and  C_9
REMARK    9  A    between atoms: C_9  and  C_10
REMARK   10  A    between atoms: C_10  and  C_11
REMARK   11  A    between atoms: C_11  and  C_12
REMARK   12  A    between atoms: C_12  and  C_13
REMARK   13  A    between atoms: C_13  and  C_14
REMARK   14  A    between atoms: C_14  and  C_15
REMARK   15  A    between atoms: C_15  and  C_16
REMARK   16  A    between atoms: C_15  and  C_19
REMARK   17  A    between atoms: C_16  and  C_17
REMARK   18  A    between atoms: C_17  and  C_18
REMARK   19  A    between atoms: C_23  and  C_24
REMARK   20  A    between atoms: C_24  and  C_26
REMARK   21  A    between atoms: C_27  and  C_28
REMARK   22  A    between atoms: C_28  and  O_30
REMARK                            x       y       z     vdW  Elec       q    Type
REMARK                         _______ _______ _______ _____ _____    ______ ____
ROOT
ATOM      1  C   UNL     1       3.601   5.644  18.580  0.00  0.00    +0.000 C 
ENDROOT
BRANCH   1   2
ATOM      2  C   UNL     1       4.999   5.241  18.092  0.00  0.00    +0.000 A 
ATOM      3  C   UNL     1       6.082   5.057  18.966  0.00  0.00    +0.000 A 
ATOM      4  C   UNL     1       7.361   4.780  18.484  0.00  0.00    +0.000 A 
ATOM      5  C   UNL     1       7.587   4.694  17.112  0.00  0.00    +0.000 A 
ATOM      6  C   UNL     1       6.519   4.844  16.217  0.00  0.00    +0.000 A 
ATOM      7  C   UNL     1       5.228   5.063  16.716  0.00  0.00    +0.000 A 
BRANCH   6   8
ATOM      8  C   UNL     1       6.776   4.806  14.745  0.00  0.00    +0.000 C 
ATOM      9  O   UNL     1       7.710   5.399  14.223  0.00  0.00    +0.000 OA
BRANCH   8  10
ATOM     10  C   UNL     1       5.828   4.042  13.897  0.00  0.00    +0.000 C 
ATOM     11  C   UNL     1       6.296   3.566  12.733  0.00  0.00    +0.000 C 
BRANCH  11  12
ATOM     12  C   UNL     1       5.381   2.804  11.879  0.00  0.00    +0.000 C 
ATOM     13  O   UNL     1       4.313   3.231  11.484  0.00  0.00    +0.000 OA
BRANCH  12  14
ATOM     14  O   UNL     1       5.869   1.590  11.602  0.00  0.00    +0.000 OA
ATOM     15  H   UNL     1       6.333   1.551  10.744  0.00  0.00    +0.000 HD
ENDBRANCH  12  14
ENDBRANCH  11  12
ENDBRANCH   8  10
ENDBRANCH   6   8
ENDBRANCH   1   2
BRANCH   1  16
ATOM     16  C   UNL     1       2.471   4.852  17.850  0.00  0.00    +0.000 C 
BRANCH  16  17
ATOM     17  C   UNL     1       2.391   3.357  18.187  0.00  0.00    +0.000 C 
ATOM     18  C   UNL     1       0.976   2.934  18.568  0.00  0.00    +0.000 C 
ENDBRANCH  16  17
ENDBRANCH   1  16
BRANCH   1  19
ATOM     19  C   UNL     1       3.387   7.176  18.547  0.00  0.00    +0.000 C 
BRANCH  19  20
ATOM     20  C   UNL     1       2.347   7.635  17.542  0.00  0.00    +0.000 C 
BRANCH  20  21
ATOM     21  C   UNL     1       1.293   8.521  18.195  0.00  0.00    +0.000 C 
BRANCH  21  22
ATOM     22  C   UNL     1       1.674   9.968  17.933  0.00  0.00    +0.000 C 
BRANCH  22  23
ATOM     23  C   UNL     1       1.199  10.872  19.049  0.00  0.00    +0.000 C 
BRANCH  23  24
ATOM     24  C   UNL     1       0.914  10.036  20.286  0.00  0.00    +0.000 C 
BRANCH  24  25
ATOM     25  C   UNL     1      -0.392  10.494  20.903  0.00  0.00    +0.000 C 
BRANCH  25  26
ATOM     26  C   UNL     1      -0.521   9.973  22.321  0.00  0.00    +0.000 C 
BRANCH  26  27
ATOM     27  C   UNL     1      -1.361  10.942  23.136  0.00  0.00    +0.000 C 
BRANCH  27  28
ATOM     28  C   UNL     1      -1.566  12.235  22.369  0.00  0.00    +0.000 C 
BRANCH  28  29
ATOM     29  C   UNL     1      -1.146  13.422  23.221  0.00  0.00    +0.000 C 
BRANCH  29  30
ATOM     30  C   UNL     1      -0.500  14.491  22.352  0.00  0.00    +0.000 C 
BRANCH  30  32
ATOM     31  C   UNL     1       1.757  15.016  21.407  0.00  0.00    +0.000 C 
ATOM     32  C   UNL     1       0.715  13.934  21.621  0.00  0.00    +0.000 C 
ENDBRANCH  30  32
ENDBRANCH  29  30
ENDBRANCH  28  29
ENDBRANCH  27  28
ENDBRANCH  26  27
ENDBRANCH  25  26
ENDBRANCH  24  25
ENDBRANCH  23  24
ENDBRANCH  22  23
ENDBRANCH  21  22
ENDBRANCH  20  21
ENDBRANCH  19  20
ENDBRANCH   1  19
TORSDOF 20
ENDMDL
