MODEL 1
REMARK VINA RESULT:      -9.4      0.000      0.000
REMARK  Name = 
REMARK  6 active torsions:
REMARK  status: ('A' for Active; 'I' for Inactive)
REMARK    1  A    between atoms: C_1  and  C_2
REMARK    2  A    between atoms: C_5  and  N_6
REMARK    3  A    between atoms: C_9  and  C_10
REMARK    4  A    between atoms: C_17  and  S_18
REMARK    5  A    between atoms: S_18  and  C_19
REMARK    6  A    between atoms: C_19  and  C_20
REMARK                            x       y       z     vdW  Elec       q    Type
REMARK                         _______ _______ _______ _____ _____    ______ ____
ROOT
ATOM      1  N   UNL     1       3.225   5.657  17.870  0.00  0.00    +0.000 N 
ATOM      2  C   UNL     1       4.520   5.776  17.306  0.00  0.00    +0.000 A 
ATOM      3  C   UNL     1       4.779   5.160  16.103  0.00  0.00    +0.000 A 
ATOM      4  C   UNL     1       6.051   5.299  15.573  0.00  0.00    +0.000 A 
ATOM      5  N   UNL     1       7.035   5.937  16.256  0.00  0.00    +0.000 NA
ATOM      6  C   UNL     1       6.713   6.451  17.453  0.00  0.00    +0.000 A 
ATOM      7  N   UNL     1       5.486   6.413  17.984  0.00  0.00    +0.000 NA
ATOM      8  H   UNL     1       2.539   5.464  17.145  0.00  0.00    +0.000 HD
ENDROOT
BRANCH   1  13
ATOM      9  C   UNL     1       0.631   9.387  21.371  0.00  0.00    +0.000 C 
ATOM     10  C   UNL     1       1.316   8.425  20.447  0.00  0.00    +0.000 A 
ATOM     11  C   UNL     1       1.672   8.809  19.151  0.00  0.00    +0.000 A 
ATOM     12  C   UNL     1       2.324   7.910  18.304  0.00  0.00    +0.000 A 
ATOM     13  C   UNL     1       2.652   6.620  18.740  0.00  0.00    +0.000 A 
ATOM     14  C   UNL     1       2.252   6.225  20.020  0.00  0.00    +0.000 A 
ATOM     15  C   UNL     1       1.605   7.124  20.872  0.00  0.00    +0.000 A 
ENDBRANCH   1  13
BRANCH   4  16
ATOM     16  C   UNL     1       6.386   4.762  14.231  0.00  0.00    +0.000 A 
ATOM     17  C   UNL     1       5.611   3.751  13.619  0.00  0.00    +0.000 A 
ATOM     18  C   UNL     1       5.938   3.230  12.362  0.00  0.00    +0.000 A 
ATOM     19  C   UNL     1       7.048   3.712  11.680  0.00  0.00    +0.000 A 
ATOM     20  C   UNL     1       7.824   4.716  12.255  0.00  0.00    +0.000 A 
ATOM     21  C   UNL     1       7.496   5.235  13.512  0.00  0.00    +0.000 A 
ENDBRANCH   4  16
BRANCH   6  22
ATOM     22  S   UNL     1       7.989   7.275  18.409  0.00  0.00    +0.000 S 
BRANCH  22  23
ATOM     23  C   UNL     1       8.004   8.861  17.522  0.00  0.00    +0.000 C 
BRANCH  23  24
ATOM     24  C   UNL     1       8.568  10.044  18.253  0.00  0.00    +0.000 A 
ATOM     25  N   UNL     1       8.576  11.275  17.773  0.00  0.00    +0.000 NA
ATOM     26  C   UNL     1       9.383  12.009  18.603  0.00  0.00    +0.000 A 
ATOM     27  C   UNL     1       9.779  13.350  18.503  0.00  0.00    +0.000 A 
ATOM     28  C   UNL     1      10.652  13.870  19.466  0.00  0.00    +0.000 A 
ATOM     29  C   UNL     1      11.115  13.067  20.511  0.00  0.00    +0.000 A 
ATOM     30  C   UNL     1      10.722  11.724  20.630  0.00  0.00    +0.000 A 
ATOM     31  C   UNL     1       9.855  11.227  19.650  0.00  0.00    +0.000 A 
ATOM     32  N   UNL     1       9.291   9.987  19.426  0.00  0.00    +0.000 N 
ATOM     33  H   UNL     1       9.429   9.164  19.994  0.00  0.00    +0.000 HD
ENDBRANCH  23  24
ENDBRANCH  22  23
ENDBRANCH   6  22
TORSDOF 5
ENDMDL
MODEL 2
REMARK VINA RESULT:      -9.4      0.272      1.073
REMARK  Name = 
REMARK  6 active torsions:
REMARK  status: ('A' for Active; 'I' for Inactive)
REMARK    1  A    between atoms: C_1  and  C_2
REMARK    2  A    between atoms: C_5  and  N_6
REMARK    3  A    between atoms: C_9  and  C_10
REMARK    4  A    between atoms: C_17  and  S_18
REMARK    5  A    between atoms: S_18  and  C_19
REMARK    6  A    between atoms: C_19  and  C_20
REMARK                            x       y       z     vdW  Elec       q    Type
REMARK                         _______ _______ _______ _____ _____    ______ ____
ROOT
ATOM      1  N   UNL     1       3.345   5.357  17.900  0.00  0.00    +0.000 N 
ATOM      2  C   UNL     1       4.609   5.548  17.289  0.00  0.00    +0.000 A 
ATOM      3  C   UNL     1       4.849   4.967  16.064  0.00  0.00    +0.000 A 
ATOM      4  C   UNL     1       6.090   5.176  15.488  0.00  0.00    +0.000 A 
ATOM      5  N   UNL     1       7.070   5.848  16.144  0.00  0.00    +0.000 NA
ATOM      6  C   UNL     1       6.772   6.325  17.362  0.00  0.00    +0.000 A 
ATOM      7  N   UNL     1       5.570   6.218  17.941  0.00  0.00    +0.000 NA
ATOM      8  H   UNL     1       2.640   5.144  17.199  0.00  0.00    +0.000 HD
ENDROOT
BRANCH   1  13
ATOM      9  C   UNL     1       0.710   8.916  21.546  0.00  0.00    +0.000 C 
ATOM     10  C   UNL     1       1.406   7.999  20.585  0.00  0.00    +0.000 A 
ATOM     11  C   UNL     1       1.821   8.459  19.332  0.00  0.00    +0.000 A 
ATOM     12  C   UNL     1       2.484   7.600  18.451  0.00  0.00    +0.000 A 
ATOM     13  C   UNL     1       2.762   6.276  18.811  0.00  0.00    +0.000 A 
ATOM     14  C   UNL     1       2.304   5.808  20.046  0.00  0.00    +0.000 A 
ATOM     15  C   UNL     1       1.647   6.665  20.932  0.00  0.00    +0.000 A 
ENDBRANCH   1  13
BRANCH   4  16
ATOM     16  C   UNL     1       6.395   4.681  14.123  0.00  0.00    +0.000 A 
ATOM     17  C   UNL     1       5.632   3.660  13.513  0.00  0.00    +0.000 A 
ATOM     18  C   UNL     1       5.931   3.178  12.234  0.00  0.00    +0.000 A 
ATOM     19  C   UNL     1       7.003   3.709  11.528  0.00  0.00    +0.000 A 
ATOM     20  C   UNL     1       7.767   4.724  12.100  0.00  0.00    +0.000 A 
ATOM     21  C   UNL     1       7.467   5.204  13.379  0.00  0.00    +0.000 A 
ENDBRANCH   4  16
BRANCH   6  22
ATOM     22  S   UNL     1       8.045   7.191  18.285  0.00  0.00    +0.000 S 
BRANCH  22  23
ATOM     23  C   UNL     1       7.638   8.886  17.771  0.00  0.00    +0.000 C 
BRANCH  23  24
ATOM     24  C   UNL     1       8.560   9.976  18.234  0.00  0.00    +0.000 A 
ATOM     25  N   UNL     1       9.202   9.961  19.389  0.00  0.00    +0.000 NA
ATOM     26  C   UNL     1       9.729  11.215  19.556  0.00  0.00    +0.000 A 
ATOM     27  C   UNL     1      10.442  11.744  20.641  0.00  0.00    +0.000 A 
ATOM     28  C   UNL     1      10.848  13.083  20.594  0.00  0.00    +0.000 A 
ATOM     29  C   UNL     1      10.551  13.876  19.482  0.00  0.00    +0.000 A 
ATOM     30  C   UNL     1       9.845  13.359  18.384  0.00  0.00    +0.000 A 
ATOM     31  C   UNL     1       9.444  12.020  18.460  0.00  0.00    +0.000 A 
ATOM     32  N   UNL     1       8.730  11.196  17.613  0.00  0.00    +0.000 N 
ATOM     33  H   UNL     1       8.348  11.459  16.717  0.00  0.00    +0.000 HD
ENDBRANCH  23  24
ENDBRANCH  22  23
ENDBRANCH   6  22
TORSDOF 5
ENDMDL
MODEL 3
REMARK VINA RESULT:      -9.1      0.741      1.428
REMARK  Name = 
REMARK  6 active torsions:
REMARK  status: ('A' for Active; 'I' for Inactive)
REMARK    1  A    between atoms: C_1  and  C_2
REMARK    2  A    between atoms: C_5  and  N_6
REMARK    3  A    between atoms: C_9  and  C_10
REMARK    4  A    between atoms: C_17  and  S_18
REMARK    5  A    between atoms: S_18  and  C_19
REMARK    6  A    between atoms: C_19  and  C_20
REMARK                            x       y       z     vdW  Elec       q    Type
REMARK                         _______ _______ _______ _____ _____    ______ ____
ROOT
ATOM      1  N   UNL     1       3.324   5.196  17.804  0.00  0.00    +0.000 N 
ATOM      2  C   UNL     1       4.605   5.445  17.250  0.00  0.00    +0.000 A 
ATOM      3  C   UNL     1       4.912   4.909  16.020  0.00  0.00    +0.000 A 
ATOM      4  C   UNL     1       6.167   5.174  15.501  0.00  0.00    +0.000 A 
ATOM      5  N   UNL     1       7.099   5.854  16.216  0.00  0.00    +0.000 NA
ATOM      6  C   UNL     1       6.737   6.284  17.435  0.00  0.00    +0.000 A 
ATOM      7  N   UNL     1       5.518   6.123  17.961  0.00  0.00    +0.000 NA
ATOM      8  H   UNL     1       2.655   4.984  17.068  0.00  0.00    +0.000 HD
ENDROOT
BRANCH   1  13
ATOM      9  C   UNL     1       0.988   8.879  21.528  0.00  0.00    +0.000 C 
ATOM     10  C   UNL     1       1.591   7.904  20.563  0.00  0.00    +0.000 A 
ATOM     11  C   UNL     1       1.798   6.571  20.930  0.00  0.00    +0.000 A 
ATOM     12  C   UNL     1       2.346   5.666  20.017  0.00  0.00    +0.000 A 
ATOM     13  C   UNL     1       2.677   6.069  18.717  0.00  0.00    +0.000 A 
ATOM     14  C   UNL     1       2.512   7.412  18.370  0.00  0.00    +0.000 A 
ATOM     15  C   UNL     1       1.958   8.319  19.279  0.00  0.00    +0.000 A 
ENDBRANCH   1  13
BRANCH   4  16
ATOM     16  C   UNL     1       6.543   4.730  14.136  0.00  0.00    +0.000 A 
ATOM     17  C   UNL     1       7.604   5.333  13.423  0.00  0.00    +0.000 A 
ATOM     18  C   UNL     1       7.946   4.928  12.128  0.00  0.00    +0.000 A 
ATOM     19  C   UNL     1       7.237   3.905  11.511  0.00  0.00    +0.000 A 
ATOM     20  C   UNL     1       6.192   3.286  12.195  0.00  0.00    +0.000 A 
ATOM     21  C   UNL     1       5.851   3.692  13.489  0.00  0.00    +0.000 A 
ENDBRANCH   4  16
BRANCH   6  22
ATOM     22  S   UNL     1       7.945   7.159  18.434  0.00  0.00    +0.000 S 
BRANCH  22  23
ATOM     23  C   UNL     1       7.650   8.836  17.798  0.00  0.00    +0.000 C 
BRANCH  23  24
ATOM     24  C   UNL     1       8.618   9.903  18.219  0.00  0.00    +0.000 A 
ATOM     25  N   UNL     1       9.379  10.584  17.380  0.00  0.00    +0.000 NA
ATOM     26  C   UNL     1      10.286  11.268  18.147  0.00  0.00    +0.000 A 
ATOM     27  C   UNL     1      11.354  12.084  17.749  0.00  0.00    +0.000 A 
ATOM     28  C   UNL     1      12.175  12.649  18.732  0.00  0.00    +0.000 A 
ATOM     29  C   UNL     1      11.930  12.408  20.086  0.00  0.00    +0.000 A 
ATOM     30  C   UNL     1      10.859  11.600  20.502  0.00  0.00    +0.000 A 
ATOM     31  C   UNL     1      10.058  11.040  19.499  0.00  0.00    +0.000 A 
ATOM     32  N   UNL     1       8.966  10.197  19.521  0.00  0.00    +0.000 N 
ATOM     33  H   UNL     1       8.530   9.816  20.347  0.00  0.00    +0.000 HD
ENDBRANCH  23  24
ENDBRANCH  22  23
ENDBRANCH   6  22
TORSDOF 5
ENDMDL
MODEL 4
REMARK VINA RESULT:      -8.4      5.060      8.697
REMARK  Name = 
REMARK  6 active torsions:
REMARK  status: ('A' for Active; 'I' for Inactive)
REMARK    1  A    between atoms: C_1  and  C_2
REMARK    2  A    between atoms: C_5  and  N_6
REMARK    3  A    between atoms: C_9  and  C_10
REMARK    4  A    between atoms: C_17  and  S_18
REMARK    5  A    between atoms: S_18  and  C_19
REMARK    6  A    between atoms: C_19  and  C_20
REMARK                            x       y       z     vdW  Elec       q    Type
REMARK                         _______ _______ _______ _____ _____    ______ ____
ROOT
ATOM      1  N   UNL     1       1.579  11.264  17.789  0.00  0.00    +0.000 N 
ATOM      2  C   UNL     1       1.701  10.001  18.420  0.00  0.00    +0.000 A 
ATOM      3  C   UNL     1       2.370   8.993  17.763  0.00  0.00    +0.000 A 
ATOM      4  C   UNL     1       2.479   7.772  18.406  0.00  0.00    +0.000 A 
ATOM      5  N   UNL     1       1.870   7.543  19.597  0.00  0.00    +0.000 NA
ATOM      6  C   UNL     1       1.182   8.562  20.137  0.00  0.00    +0.000 A 
ATOM      7  N   UNL     1       1.101   9.784  19.600  0.00  0.00    +0.000 NA
ATOM      8  H   UNL     1       2.323  11.395  17.109  0.00  0.00    +0.000 HD
ENDROOT
BRANCH   1  13
ATOM      9  C   UNL     1       0.997  16.361  20.356  0.00  0.00    +0.000 C 
ATOM     10  C   UNL     1       1.162  15.025  19.696  0.00  0.00    +0.000 A 
ATOM     11  C   UNL     1       2.386  14.351  19.742  0.00  0.00    +0.000 A 
ATOM     12  C   UNL     1       2.524  13.099  19.137  0.00  0.00    +0.000 A 
ATOM     13  C   UNL     1       1.440  12.488  18.495  0.00  0.00    +0.000 A 
ATOM     14  C   UNL     1       0.232  13.185  18.410  0.00  0.00    +0.000 A 
ATOM     15  C   UNL     1       0.088  14.435  19.020  0.00  0.00    +0.000 A 
ENDBRANCH   1  13
BRANCH   4  16
ATOM     16  C   UNL     1       3.276   6.665  17.821  0.00  0.00    +0.000 A 
ATOM     17  C   UNL     1       2.901   5.312  17.981  0.00  0.00    +0.000 A 
ATOM     18  C   UNL     1       3.663   4.267  17.447  0.00  0.00    +0.000 A 
ATOM     19  C   UNL     1       4.821   4.549  16.733  0.00  0.00    +0.000 A 
ATOM     20  C   UNL     1       5.209   5.874  16.551  0.00  0.00    +0.000 A 
ATOM     21  C   UNL     1       4.447   6.918  17.086  0.00  0.00    +0.000 A 
ENDBRANCH   4  16
BRANCH   6  22
ATOM     22  S   UNL     1       0.330   8.298  21.694  0.00  0.00    +0.000 S 
BRANCH  22  23
ATOM     23  C   UNL     1       0.662   9.915  22.454  0.00  0.00    +0.000 C 
BRANCH  23  24
ATOM     24  C   UNL     1      -0.444  10.929  22.404  0.00  0.00    +0.000 A 
ATOM     25  N   UNL     1      -1.264  11.179  23.410  0.00  0.00    +0.000 NA
ATOM     26  C   UNL     1      -2.269  11.963  22.905  0.00  0.00    +0.000 A 
ATOM     27  C   UNL     1      -3.422  12.450  23.536  0.00  0.00    +0.000 A 
ATOM     28  C   UNL     1      -4.332  13.208  22.789  0.00  0.00    +0.000 A 
ATOM     29  C   UNL     1      -4.091  13.479  21.440  0.00  0.00    +0.000 A 
ATOM     30  C   UNL     1      -2.937  13.005  20.795  0.00  0.00    +0.000 A 
ATOM     31  C   UNL     1      -2.048  12.243  21.561  0.00  0.00    +0.000 A 
ATOM     32  N   UNL     1      -0.858  11.604  21.275  0.00  0.00    +0.000 N 
ATOM     33  H   UNL     1      -0.398  11.588  20.377  0.00  0.00    +0.000 HD
ENDBRANCH  23  24
ENDBRANCH  22  23
ENDBRANCH   6  22
TORSDOF 5
ENDMDL
MODEL 5
REMARK VINA RESULT:      -8.1      5.171      8.510
REMARK  Name = 
REMARK  6 active torsions:
REMARK  status: ('A' for Active; 'I' for Inactive)
REMARK    1  A    between atoms: C_1  and  C_2
REMARK    2  A    between atoms: C_5  and  N_6
REMARK    3  A    between atoms: C_9  and  C_10
REMARK    4  A    between atoms: C_17  and  S_18
REMARK    5  A    between atoms: S_18  and  C_19
REMARK    6  A    between atoms: C_19  and  C_20
REMARK                            x       y       z     vdW  Elec       q    Type
REMARK                         _______ _______ _______ _____ _____    ______ ____
ROOT
ATOM      1  N   UNL     1       1.328  11.268  17.759  0.00  0.00    +0.000 N 
ATOM      2  C   UNL     1       1.569  10.094  18.516  0.00  0.00    +0.000 A 
ATOM      3  C   UNL     1       2.076   8.985  17.878  0.00  0.00    +0.000 A 
ATOM      4  C   UNL     1       2.308   7.855  18.643  0.00  0.00    +0.000 A 
ATOM      5  N   UNL     1       1.961   7.806  19.954  0.00  0.00    +0.000 NA
ATOM      6  C   UNL     1       1.411   8.911  20.481  0.00  0.00    +0.000 A 
ATOM      7  N   UNL     1       1.229  10.056  19.813  0.00  0.00    +0.000 NA
ATOM      8  H   UNL     1       1.913  11.281  16.928  0.00  0.00    +0.000 HD
ENDROOT
BRANCH   1  13
ATOM      9  C   UNL     1       1.316  16.671  19.684  0.00  0.00    +0.000 C 
ATOM     10  C   UNL     1       1.335  15.256  19.188  0.00  0.00    +0.000 A 
ATOM     11  C   UNL     1       2.545  14.589  18.976  0.00  0.00    +0.000 A 
ATOM     12  C   UNL     1       2.550  13.265  18.529  0.00  0.00    +0.000 A 
ATOM     13  C   UNL     1       1.351  12.577  18.306  0.00  0.00    +0.000 A 
ATOM     14  C   UNL     1       0.145  13.263  18.473  0.00  0.00    +0.000 A 
ATOM     15  C   UNL     1       0.135  14.585  18.926  0.00  0.00    +0.000 A 
ENDBRANCH   1  13
BRANCH   4  16
ATOM     16  C   UNL     1       2.955   6.653  18.061  0.00  0.00    +0.000 A 
ATOM     17  C   UNL     1       4.196   6.727  17.390  0.00  0.00    +0.000 A 
ATOM     18  C   UNL     1       4.797   5.598  16.823  0.00  0.00    +0.000 A 
ATOM     19  C   UNL     1       4.173   4.361  16.917  0.00  0.00    +0.000 A 
ATOM     20  C   UNL     1       2.953   4.256  17.582  0.00  0.00    +0.000 A 
ATOM     21  C   UNL     1       2.354   5.386  18.147  0.00  0.00    +0.000 A 
ENDBRANCH   4  16
BRANCH   6  22
ATOM     22  S   UNL     1       0.904   8.885  22.203  0.00  0.00    +0.000 S 
BRANCH  22  23
ATOM     23  C   UNL     1      -0.739   9.637  22.006  0.00  0.00    +0.000 C 
BRANCH  23  24
ATOM     24  C   UNL     1      -0.904  11.047  22.494  0.00  0.00    +0.000 A 
ATOM     25  N   UNL     1      -1.936  11.467  23.206  0.00  0.00    +0.000 NA
ATOM     26  C   UNL     1      -1.852  12.834  23.240  0.00  0.00    +0.000 A 
ATOM     27  C   UNL     1      -2.732  13.768  23.806  0.00  0.00    +0.000 A 
ATOM     28  C   UNL     1      -2.445  15.132  23.675  0.00  0.00    +0.000 A 
ATOM     29  C   UNL     1      -1.300  15.555  22.997  0.00  0.00    +0.000 A 
ATOM     30  C   UNL     1      -0.404  14.633  22.430  0.00  0.00    +0.000 A 
ATOM     31  C   UNL     1      -0.717  13.275  22.568  0.00  0.00    +0.000 A 
ATOM     32  N   UNL     1      -0.109  12.115  22.135  0.00  0.00    +0.000 N 
ATOM     33  H   UNL     1       0.743  12.060  21.597  0.00  0.00    +0.000 HD
ENDBRANCH  23  24
ENDBRANCH  22  23
ENDBRANCH   6  22
TORSDOF 5
ENDMDL
MODEL 6
REMARK VINA RESULT:      -8.1      5.226      9.003
REMARK  Name = 
REMARK  6 active torsions:
REMARK  status: ('A' for Active; 'I' for Inactive)
REMARK    1  A    between atoms: C_1  and  C_2
REMARK    2  A    between atoms: C_5  and  N_6
REMARK    3  A    between atoms: C_9  and  C_10
REMARK    4  A    between atoms: C_17  and  S_18
REMARK    5  A    between atoms: S_18  and  C_19
REMARK    6  A    between atoms: C_19  and  C_20
REMARK                            x       y       z     vdW  Elec       q    Type
REMARK                         _______ _______ _______ _____ _____    ______ ____
ROOT
ATOM      1  N   UNL     1       1.439  11.517  17.890  0.00  0.00    +0.000 N 
ATOM      2  C   UNL     1       1.523  10.254  18.529  0.00  0.00    +0.000 A 
ATOM      3  C   UNL     1       2.199   9.235  17.897  0.00  0.00    +0.000 A 
ATOM      4  C   UNL     1       2.271   8.015  18.546  0.00  0.00    +0.000 A 
ATOM      5  N   UNL     1       1.620   7.798  19.717  0.00  0.00    +0.000 NA
ATOM      6  C   UNL     1       0.929   8.828  20.231  0.00  0.00    +0.000 A 
ATOM      7  N   UNL     1       0.882  10.049  19.689  0.00  0.00    +0.000 NA
ATOM      8  H   UNL     1       2.206  11.635  17.234  0.00  0.00    +0.000 HD
ENDROOT
BRANCH   1  13
ATOM      9  C   UNL     1       0.815  16.310  20.979  0.00  0.00    +0.000 C 
ATOM     10  C   UNL     1       0.967  15.063  20.160  0.00  0.00    +0.000 A 
ATOM     11  C   UNL     1      -0.029  14.673  19.260  0.00  0.00    +0.000 A 
ATOM     12  C   UNL     1       0.131  13.519  18.490  0.00  0.00    +0.000 A 
ATOM     13  C   UNL     1       1.294  12.745  18.587  0.00  0.00    +0.000 A 
ATOM     14  C   UNL     1       2.266  13.112  19.522  0.00  0.00    +0.000 A 
ATOM     15  C   UNL     1       2.112  14.270  20.289  0.00  0.00    +0.000 A 
ENDBRANCH   1  13
BRANCH   4  16
ATOM     16  C   UNL     1       3.072   6.896  17.991  0.00  0.00    +0.000 A 
ATOM     17  C   UNL     1       4.293   7.117  17.316  0.00  0.00    +0.000 A 
ATOM     18  C   UNL     1       5.039   6.065  16.775  0.00  0.00    +0.000 A 
ATOM     19  C   UNL     1       4.583   4.758  16.898  0.00  0.00    +0.000 A 
ATOM     20  C   UNL     1       3.387   4.509  17.567  0.00  0.00    +0.000 A 
ATOM     21  C   UNL     1       2.643   5.563  18.107  0.00  0.00    +0.000 A 
ENDBRANCH   4  16
BRANCH   6  22
ATOM     22  S   UNL     1       0.024   8.581  21.761  0.00  0.00    +0.000 S 
BRANCH  22  23
ATOM     23  C   UNL     1       0.291  10.222  22.495  0.00  0.00    +0.000 C 
BRANCH  23  24
ATOM     24  C   UNL     1      -0.831  11.211  22.375  0.00  0.00    +0.000 A 
ATOM     25  N   UNL     1      -1.704  11.459  23.335  0.00  0.00    +0.000 NA
ATOM     26  C   UNL     1      -2.698  12.214  22.769  0.00  0.00    +0.000 A 
ATOM     27  C   UNL     1      -3.891  12.686  23.336  0.00  0.00    +0.000 A 
ATOM     28  C   UNL     1      -4.778  13.414  22.534  0.00  0.00    +0.000 A 
ATOM     29  C   UNL     1      -4.477  13.669  21.193  0.00  0.00    +0.000 A 
ATOM     30  C   UNL     1      -3.284  13.210  20.613  0.00  0.00    +0.000 A 
ATOM     31  C   UNL     1      -2.417  12.478  21.434  0.00  0.00    +0.000 A 
ATOM     32  N   UNL     1      -1.203  11.860  21.216  0.00  0.00    +0.000 N 
ATOM     33  H   UNL     1      -0.699  11.840  20.342  0.00  0.00    +0.000 HD
ENDBRANCH  23  24
ENDBRANCH  22  23
ENDBRANCH   6  22
TORSDOF 5
ENDMDL
MODEL 7
REMARK VINA RESULT:      -8.1      5.198     10.335
REMARK  Name = 
REMARK  6 active torsions:
REMARK  status: ('A' for Active; 'I' for Inactive)
REMARK    1  A    between atoms: C_1  and  C_2
REMARK    2  A    between atoms: C_5  and  N_6
REMARK    3  A    between atoms: C_9  and  C_10
REMARK    4  A    between atoms: C_17  and  S_18
REMARK    5  A    between atoms: S_18  and  C_19
REMARK    6  A    between atoms: C_19  and  C_20
REMARK                            x       y       z     vdW  Elec       q    Type
REMARK                         _______ _______ _______ _____ _____    ______ ____
ROOT
ATOM      1  N   UNL     1       1.483  13.969  19.571  0.00  0.00    +0.000 N 
ATOM      2  C   UNL     1       0.874  12.803  19.046  0.00  0.00    +0.000 A 
ATOM      3  C   UNL     1      -0.493  12.782  18.886  0.00  0.00    +0.000 A 
ATOM      4  C   UNL     1      -1.061  11.632  18.366  0.00  0.00    +0.000 A 
ATOM      5  N   UNL     1      -0.313  10.528  18.110  0.00  0.00    +0.000 NA
ATOM      6  C   UNL     1       1.003  10.613  18.357  0.00  0.00    +0.000 A 
ATOM      7  N   UNL     1       1.620  11.718  18.790  0.00  0.00    +0.000 NA
ATOM      8  H   UNL     1       0.896  14.782  19.404  0.00  0.00    +0.000 HD
ENDROOT
BRANCH   1  13
ATOM      9  C   UNL     1       6.826  15.809  18.583  0.00  0.00    +0.000 C 
ATOM     10  C   UNL     1       5.428  15.323  18.825  0.00  0.00    +0.000 A 
ATOM     11  C   UNL     1       4.521  15.200  17.768  0.00  0.00    +0.000 A 
ATOM     12  C   UNL     1       3.227  14.730  18.003  0.00  0.00    +0.000 A 
ATOM     13  C   UNL     1       2.820  14.356  19.289  0.00  0.00    +0.000 A 
ATOM     14  C   UNL     1       3.714  14.525  20.350  0.00  0.00    +0.000 A 
ATOM     15  C   UNL     1       5.012  14.988  20.118  0.00  0.00    +0.000 A 
ENDBRANCH   1  13
BRANCH   4  16
ATOM     16  C   UNL     1      -2.511  11.563  18.057  0.00  0.00    +0.000 A 
ATOM     17  C   UNL     1      -3.493  11.882  19.022  0.00  0.00    +0.000 A 
ATOM     18  C   UNL     1      -4.860  11.798  18.738  0.00  0.00    +0.000 A 
ATOM     19  C   UNL     1      -5.283  11.396  17.477  0.00  0.00    +0.000 A 
ATOM     20  C   UNL     1      -4.336  11.085  16.504  0.00  0.00    +0.000 A 
ATOM     21  C   UNL     1      -2.970  11.169  16.789  0.00  0.00    +0.000 A 
ENDBRANCH   4  16
BRANCH   6  22
ATOM     22  S   UNL     1       2.029   9.168  18.068  0.00  0.00    +0.000 S 
BRANCH  22  23
ATOM     23  C   UNL     1       1.863   8.394  19.704  0.00  0.00    +0.000 C 
BRANCH  23  24
ATOM     24  C   UNL     1       2.055   6.907  19.774  0.00  0.00    +0.000 A 
ATOM     25  N   UNL     1       2.205   6.130  18.715  0.00  0.00    +0.000 NA
ATOM     26  C   UNL     1       2.100   4.839  19.164  0.00  0.00    +0.000 A 
ATOM     27  C   UNL     1       2.121   3.639  18.439  0.00  0.00    +0.000 A 
ATOM     28  C   UNL     1       1.953   2.431  19.127  0.00  0.00    +0.000 A 
ATOM     29  C   UNL     1       1.775   2.423  20.512  0.00  0.00    +0.000 A 
ATOM     30  C   UNL     1       1.760   3.615  21.254  0.00  0.00    +0.000 A 
ATOM     31  C   UNL     1       1.921   4.809  20.542  0.00  0.00    +0.000 A 
ATOM     32  N   UNL     1       1.934   6.138  20.913  0.00  0.00    +0.000 N 
ATOM     33  H   UNL     1       1.818   6.491  21.851  0.00  0.00    +0.000 HD
ENDBRANCH  23  24
ENDBRANCH  22  23
ENDBRANCH   6  22
TORSDOF 5
ENDMDL
MODEL 8
REMARK VINA RESULT:      -8.1      5.126      9.094
REMARK  Name = 
REMARK  6 active torsions:
REMARK  status: ('A' for Active; 'I' for Inactive)
REMARK    1  A    between atoms: C_1  and  C_2
REMARK    2  A    between atoms: C_5  and  N_6
REMARK    3  A    between atoms: C_9  and  C_10
REMARK    4  A    between atoms: C_17  and  S_18
REMARK    5  A    between atoms: S_18  and  C_19
REMARK    6  A    between atoms: C_19  and  C_20
REMARK                            x       y       z     vdW  Elec       q    Type
REMARK                         _______ _______ _______ _____ _____    ______ ____
ROOT
ATOM      1  N   UNL     1       1.705  11.427  17.694  0.00  0.00    +0.000 N 
ATOM      2  C   UNL     1       1.724  10.208  18.417  0.00  0.00    +0.000 A 
ATOM      3  C   UNL     1       2.269   9.093  17.822  0.00  0.00    +0.000 A 
ATOM      4  C   UNL     1       2.279   7.917  18.554  0.00  0.00    +0.000 A 
ATOM      5  N   UNL     1       1.690   7.839  19.773  0.00  0.00    +0.000 NA
ATOM      6  C   UNL     1       1.123   8.958  20.250  0.00  0.00    +0.000 A 
ATOM      7  N   UNL     1       1.144  10.140  19.624  0.00  0.00    +0.000 NA
ATOM      8  H   UNL     1       2.436  11.432  16.988  0.00  0.00    +0.000 HD
ENDROOT
BRANCH   1  13
ATOM      9  C   UNL     1       1.604  16.722  19.898  0.00  0.00    +0.000 C 
ATOM     10  C   UNL     1       1.647  15.336  19.328  0.00  0.00    +0.000 A 
ATOM     11  C   UNL     1       2.867  14.720  19.037  0.00  0.00    +0.000 A 
ATOM     12  C   UNL     1       2.895  13.422  18.521  0.00  0.00    +0.000 A 
ATOM     13  C   UNL     1       1.710  12.707  18.307  0.00  0.00    +0.000 A 
ATOM     14  C   UNL     1       0.491  13.344  18.556  0.00  0.00    +0.000 A 
ATOM     15  C   UNL     1       0.459  14.640  19.078  0.00  0.00    +0.000 A 
ENDBRANCH   1  13
BRANCH   4  16
ATOM     16  C   UNL     1       2.945   6.697  18.035  0.00  0.00    +0.000 A 
ATOM     17  C   UNL     1       2.352   5.419  18.153  0.00  0.00    +0.000 A 
ATOM     18  C   UNL     1       2.988   4.265  17.682  0.00  0.00    +0.000 A 
ATOM     19  C   UNL     1       4.234   4.359  17.076  0.00  0.00    +0.000 A 
ATOM     20  C   UNL     1       4.837   5.607  16.937  0.00  0.00    +0.000 A 
ATOM     21  C   UNL     1       4.201   6.760  17.408  0.00  0.00    +0.000 A 
ENDBRANCH   4  16
BRANCH   6  22
ATOM     22  S   UNL     1       0.300   8.896  21.845  0.00  0.00    +0.000 S 
BRANCH  22  23
ATOM     23  C   UNL     1       0.244  10.681  22.183  0.00  0.00    +0.000 C 
BRANCH  23  24
ATOM     24  C   UNL     1      -1.115  11.313  22.273  0.00  0.00    +0.000 A 
ATOM     25  N   UNL     1      -1.631  12.092  21.338  0.00  0.00    +0.000 NA
ATOM     26  C   UNL     1      -2.750  12.664  21.885  0.00  0.00    +0.000 A 
ATOM     27  C   UNL     1      -3.622  13.617  21.339  0.00  0.00    +0.000 A 
ATOM     28  C   UNL     1      -4.688  14.083  22.119  0.00  0.00    +0.000 A 
ATOM     29  C   UNL     1      -4.881  13.601  23.416  0.00  0.00    +0.000 A 
ATOM     30  C   UNL     1      -4.022  12.642  23.975  0.00  0.00    +0.000 A 
ATOM     31  C   UNL     1      -2.960  12.198  23.178  0.00  0.00    +0.000 A 
ATOM     32  N   UNL     1      -1.926  11.309  23.389  0.00  0.00    +0.000 N 
ATOM     33  H   UNL     1      -1.759  10.787  24.236  0.00  0.00    +0.000 HD
ENDBRANCH  23  24
ENDBRANCH  22  23
ENDBRANCH   6  22
TORSDOF 5
ENDMDL
MODEL 9
REMARK VINA RESULT:      -8.1      5.166      8.618
REMARK  Name = 
REMARK  6 active torsions:
REMARK  status: ('A' for Active; 'I' for Inactive)
REMARK    1  A    between atoms: C_1  and  C_2
REMARK    2  A    between atoms: C_5  and  N_6
REMARK    3  A    between atoms: C_9  and  C_10
REMARK    4  A    between atoms: C_17  and  S_18
REMARK    5  A    between atoms: S_18  and  C_19
REMARK    6  A    between atoms: C_19  and  C_20
REMARK                            x       y       z     vdW  Elec       q    Type
REMARK                         _______ _______ _______ _____ _____    ______ ____
ROOT
ATOM      1  N   UNL     1       1.330  11.190  17.825  0.00  0.00    +0.000 N 
ATOM      2  C   UNL     1       1.520   9.950  18.485  0.00  0.00    +0.000 A 
ATOM      3  C   UNL     1       2.215   8.953  17.838  0.00  0.00    +0.000 A 
ATOM      4  C   UNL     1       2.389   7.755  18.509  0.00  0.00    +0.000 A 
ATOM      5  N   UNL     1       1.818   7.533  19.720  0.00  0.00    +0.000 NA
ATOM      6  C   UNL     1       1.101   8.537  20.249  0.00  0.00    +0.000 A 
ATOM      7  N   UNL     1       0.956   9.740  19.684  0.00  0.00    +0.000 NA
ATOM      8  H   UNL     1       2.053  11.332  17.123  0.00  0.00    +0.000 HD
ENDROOT
BRANCH   1  13
ATOM      9  C   UNL     1       0.657  16.023  20.838  0.00  0.00    +0.000 C 
ATOM     10  C   UNL     1       0.820  14.764  20.041  0.00  0.00    +0.000 A 
ATOM     11  C   UNL     1      -0.257  14.223  19.332  0.00  0.00    +0.000 A 
ATOM     12  C   UNL     1      -0.090  13.058  18.579  0.00  0.00    +0.000 A 
ATOM     13  C   UNL     1       1.157  12.425  18.501  0.00  0.00    +0.000 A 
ATOM     14  C   UNL     1       2.218  12.943  19.248  0.00  0.00    +0.000 A 
ATOM     15  C   UNL     1       2.056  14.112  19.998  0.00  0.00    +0.000 A 
ENDBRANCH   1  13
BRANCH   4  16
ATOM     16  C   UNL     1       3.219   6.667  17.934  0.00  0.00    +0.000 A 
ATOM     17  C   UNL     1       4.438   6.931  17.272  0.00  0.00    +0.000 A 
ATOM     18  C   UNL     1       5.211   5.908  16.712  0.00  0.00    +0.000 A 
ATOM     19  C   UNL     1       4.785   4.589  16.804  0.00  0.00    +0.000 A 
ATOM     20  C   UNL     1       3.591   4.298  17.460  0.00  0.00    +0.000 A 
ATOM     21  C   UNL     1       2.819   5.322  18.019  0.00  0.00    +0.000 A 
ENDBRANCH   4  16
BRANCH   6  22
ATOM     22  S   UNL     1       0.296   8.280  21.833  0.00  0.00    +0.000 S 
BRANCH  22  23
ATOM     23  C   UNL     1       0.694   9.882  22.595  0.00  0.00    +0.000 C 
BRANCH  23  24
ATOM     24  C   UNL     1      -0.418  10.887  22.684  0.00  0.00    +0.000 A 
ATOM     25  N   UNL     1      -0.290  12.161  22.356  0.00  0.00    +0.000 NA
ATOM     26  C   UNL     1      -1.422  12.791  22.804  0.00  0.00    +0.000 A 
ATOM     27  C   UNL     1      -1.757  14.152  22.769  0.00  0.00    +0.000 A 
ATOM     28  C   UNL     1      -2.970  14.564  23.334  0.00  0.00    +0.000 A 
ATOM     29  C   UNL     1      -3.834  13.633  23.916  0.00  0.00    +0.000 A 
ATOM     30  C   UNL     1      -3.517  12.265  23.953  0.00  0.00    +0.000 A 
ATOM     31  C   UNL     1      -2.294  11.881  23.389  0.00  0.00    +0.000 A 
ATOM     32  N   UNL     1      -1.649  10.667  23.266  0.00  0.00    +0.000 N 
ATOM     33  H   UNL     1      -1.994   9.778  23.596  0.00  0.00    +0.000 HD
ENDBRANCH  23  24
ENDBRANCH  22  23
ENDBRANCH   6  22
TORSDOF 5
ENDMDL
