MODEL 1
REMARK VINA RESULT:      -8.1      0.000      0.000
REMARK  Name = 
REMARK  5 active torsions:
REMARK  status: ('A' for Active; 'I' for Inactive)
REMARK    1  A    between atoms: C_1  and  O_2
REMARK    2  A    between atoms: O_2  and  C_3
REMARK    3  A    between atoms: C_8  and  C_9
REMARK    4  A    between atoms: C_13  and  C_14
REMARK    5  A    between atoms: N_22  and  C_23
REMARK                            x       y       z     vdW  Elec       q    Type
REMARK                         _______ _______ _______ _____ _____    ______ ____
ROOT
ATOM      1  C   UNL     1       6.080   4.874  15.992  0.00  0.00    +0.000 A 
ATOM      2  C   UNL     1       7.245   4.795  16.784  0.00  0.00    +0.000 A 
ATOM      3  C   UNL     1       7.190   4.830  18.167  0.00  0.00    +0.000 A 
ATOM      4  C   UNL     1       5.974   5.059  18.798  0.00  0.00    +0.000 A 
ATOM      5  C   UNL     1       4.830   5.404  18.061  0.00  0.00    +0.000 A 
ATOM      6  C   UNL     1       4.892   5.243  16.656  0.00  0.00    +0.000 A 
ENDROOT
BRANCH   5   7
ATOM      7  C   UNL     1       3.543   5.908  18.710  0.00  0.00    +0.000 C 
ATOM      8  C   UNL     1       3.175   5.247  20.056  0.00  0.00    +0.000 C 
ATOM      9  C   UNL     1       2.409   3.915  19.979  0.00  0.00    +0.000 C 
ATOM     10  C   UNL     1       1.411   3.832  18.842  0.00  0.00    +0.000 C 
ATOM     11  C   UNL     1       1.755   4.645  17.601  0.00  0.00    +0.000 C 
ATOM     12  N   UNL     1       2.349   5.957  17.844  0.00  0.00    +0.000 NA
ATOM     13  C   UNL     1       1.361   2.356  18.512  0.00  0.00    +0.000 C 
ATOM     14  O   UNL     1       2.527   1.747  19.052  0.00  0.00    +0.000 OA
ATOM     15  N   UNL     1       3.091   2.618  20.078  0.00  0.00    +0.000 NA
ATOM     16  C   UNL     1       4.522   2.585  19.834  0.00  0.00    +0.000 C 
ATOM     17  H   UNL     1       1.657   6.555  18.295  0.00  0.00    +0.000 HD
ENDBRANCH   5   7
BRANCH   1  23
ATOM     18  C   UNL     1       7.103   4.804  13.605  0.00  0.00    +0.000 A 
ATOM     19  C   UNL     1       7.004   4.328  12.281  0.00  0.00    +0.000 A 
ATOM     20  C   UNL     1       5.938   3.523  11.872  0.00  0.00    +0.000 A 
ATOM     21  C   UNL     1       4.958   3.183  12.779  0.00  0.00    +0.000 A 
ATOM     22  C   UNL     1       5.056   3.636  14.092  0.00  0.00    +0.000 A 
ATOM     23  C   UNL     1       6.131   4.437  14.561  0.00  0.00    +0.000 A 
BRANCH  18  25
ATOM     24  C   UNL     1       9.014   6.026  12.937  0.00  0.00    +0.000 C 
ATOM     25  O   UNL     1       8.171   5.577  13.999  0.00  0.00    +0.000 OA
ENDBRANCH  18  25
ENDBRANCH   1  23
TORSDOF 3
ENDMDL
MODEL 2
REMARK VINA RESULT:      -7.7      3.898      6.895
REMARK  Name = 
REMARK  5 active torsions:
REMARK  status: ('A' for Active; 'I' for Inactive)
REMARK    1  A    between atoms: C_1  and  O_2
REMARK    2  A    between atoms: O_2  and  C_3
REMARK    3  A    between atoms: C_8  and  C_9
REMARK    4  A    between atoms: C_13  and  C_14
REMARK    5  A    between atoms: N_22  and  C_23
REMARK                            x       y       z     vdW  Elec       q    Type
REMARK                         _______ _______ _______ _____ _____    ______ ____
ROOT
ATOM      1  C   UNL     1       2.189   8.102  18.878  0.00  0.00    +0.000 A 
ATOM      2  C   UNL     1       3.028   8.231  17.751  0.00  0.00    +0.000 A 
ATOM      3  C   UNL     1       3.845   7.196  17.327  0.00  0.00    +0.000 A 
ATOM      4  C   UNL     1       3.930   6.037  18.087  0.00  0.00    +0.000 A 
ATOM      5  C   UNL     1       3.322   5.953  19.349  0.00  0.00    +0.000 A 
ATOM      6  C   UNL     1       2.405   6.974  19.697  0.00  0.00    +0.000 A 
ENDROOT
BRANCH   5   7
ATOM      7  C   UNL     1       3.589   4.810  20.328  0.00  0.00    +0.000 C 
ATOM      8  C   UNL     1       3.991   3.466  19.685  0.00  0.00    +0.000 C 
ATOM      9  C   UNL     1       2.839   2.561  19.212  0.00  0.00    +0.000 C 
ATOM     10  C   UNL     1       1.613   2.594  20.103  0.00  0.00    +0.000 C 
ATOM     11  C   UNL     1       1.368   3.903  20.841  0.00  0.00    +0.000 C 
ATOM     12  N   UNL     1       2.558   4.575  21.357  0.00  0.00    +0.000 NA
ATOM     13  C   UNL     1       0.472   2.297  19.154  0.00  0.00    +0.000 C 
ATOM     14  O   UNL     1       0.926   2.546  17.830  0.00  0.00    +0.000 OA
ATOM     15  N   UNL     1       2.385   2.543  17.816  0.00  0.00    +0.000 NA
ATOM     16  C   UNL     1       2.741   3.672  16.974  0.00  0.00    +0.000 C 
ATOM     17  H   UNL     1       2.971   3.999  22.090  0.00  0.00    +0.000 HD
ENDBRANCH   5   7
BRANCH   1  23
ATOM     18  C   UNL     1       0.593   9.587  20.291  0.00  0.00    +0.000 A 
ATOM     19  C   UNL     1      -0.510  10.466  20.310  0.00  0.00    +0.000 A 
ATOM     20  C   UNL     1      -1.193  10.807  19.139  0.00  0.00    +0.000 A 
ATOM     21  C   UNL     1      -0.783  10.273  17.936  0.00  0.00    +0.000 A 
ATOM     22  C   UNL     1       0.314   9.417  17.907  0.00  0.00    +0.000 A 
ATOM     23  C   UNL     1       1.054   9.059  19.065  0.00  0.00    +0.000 A 
BRANCH  18  25
ATOM     24  C   UNL     1       0.484   9.340  22.640  0.00  0.00    +0.000 C 
ATOM     25  O   UNL     1       1.270   9.279  21.449  0.00  0.00    +0.000 OA
ENDBRANCH  18  25
ENDBRANCH   1  23
TORSDOF 3
ENDMDL
MODEL 3
REMARK VINA RESULT:      -7.6      3.269      6.080
REMARK  Name = 
REMARK  5 active torsions:
REMARK  status: ('A' for Active; 'I' for Inactive)
REMARK    1  A    between atoms: C_1  and  O_2
REMARK    2  A    between atoms: O_2  and  C_3
REMARK    3  A    between atoms: C_8  and  C_9
REMARK    4  A    between atoms: C_13  and  C_14
REMARK    5  A    between atoms: N_22  and  C_23
REMARK                            x       y       z     vdW  Elec       q    Type
REMARK                         _______ _______ _______ _____ _____    ______ ____
ROOT
ATOM      1  C   UNL     1       3.277   6.961  18.455  0.00  0.00    +0.000 A 
ATOM      2  C   UNL     1       3.971   7.575  17.391  0.00  0.00    +0.000 A 
ATOM      3  C   UNL     1       4.646   6.834  16.435  0.00  0.00    +0.000 A 
ATOM      4  C   UNL     1       4.740   5.456  16.579  0.00  0.00    +0.000 A 
ATOM      5  C   UNL     1       4.296   4.819  17.748  0.00  0.00    +0.000 A 
ATOM      6  C   UNL     1       3.512   5.583  18.645  0.00  0.00    +0.000 A 
ENDROOT
BRANCH   5   7
ATOM      7  C   UNL     1       4.600   3.356  18.066  0.00  0.00    +0.000 C 
ATOM      8  C   UNL     1       3.535   2.340  17.601  0.00  0.00    +0.000 C 
ATOM      9  C   UNL     1       2.342   2.117  18.547  0.00  0.00    +0.000 C 
ATOM     10  C   UNL     1       2.695   2.165  20.020  0.00  0.00    +0.000 C 
ATOM     11  C   UNL     1       3.869   3.062  20.389  0.00  0.00    +0.000 C 
ATOM     12  N   UNL     1       4.993   3.056  19.456  0.00  0.00    +0.000 NA
ATOM     13  C   UNL     1       1.424   2.655  20.679  0.00  0.00    +0.000 C 
ATOM     14  O   UNL     1       0.620   3.267  19.680  0.00  0.00    +0.000 OA
ATOM     15  N   UNL     1       1.062   2.815  18.365  0.00  0.00    +0.000 NA
ATOM     16  C   UNL     1       1.056   4.016  17.548  0.00  0.00    +0.000 C 
ATOM     17  H   UNL     1       5.428   2.133  19.469  0.00  0.00    +0.000 HD
ENDBRANCH   5   7
BRANCH   1  23
ATOM     18  C   UNL     1       1.718   9.000  18.856  0.00  0.00    +0.000 A 
ATOM     19  C   UNL     1       0.771   9.627  19.690  0.00  0.00    +0.000 A 
ATOM     20  C   UNL     1       0.365   9.051  20.897  0.00  0.00    +0.000 A 
ATOM     21  C   UNL     1       0.901   7.842  21.285  0.00  0.00    +0.000 A 
ATOM     22  C   UNL     1       1.825   7.209  20.460  0.00  0.00    +0.000 A 
ATOM     23  C   UNL     1       2.252   7.742  19.214  0.00  0.00    +0.000 A 
BRANCH  18  25
ATOM     24  C   UNL     1       2.331  10.975  17.710  0.00  0.00    +0.000 C 
ATOM     25  O   UNL     1       2.091   9.568  17.659  0.00  0.00    +0.000 OA
ENDBRANCH  18  25
ENDBRANCH   1  23
TORSDOF 3
ENDMDL
MODEL 4
REMARK VINA RESULT:      -7.6      4.132      7.702
REMARK  Name = 
REMARK  5 active torsions:
REMARK  status: ('A' for Active; 'I' for Inactive)
REMARK    1  A    between atoms: C_1  and  O_2
REMARK    2  A    between atoms: O_2  and  C_3
REMARK    3  A    between atoms: C_8  and  C_9
REMARK    4  A    between atoms: C_13  and  C_14
REMARK    5  A    between atoms: N_22  and  C_23
REMARK                            x       y       z     vdW  Elec       q    Type
REMARK                         _______ _______ _______ _____ _____    ______ ____
ROOT
ATOM      1  C   UNL     1       1.293   7.825  20.490  0.00  0.00    +0.000 A 
ATOM      2  C   UNL     1       2.123   7.999  19.362  0.00  0.00    +0.000 A 
ATOM      3  C   UNL     1       2.523   6.929  18.578  0.00  0.00    +0.000 A 
ATOM      4  C   UNL     1       2.194   5.637  18.966  0.00  0.00    +0.000 A 
ATOM      5  C   UNL     1       1.597   5.385  20.211  0.00  0.00    +0.000 A 
ATOM      6  C   UNL     1       1.099   6.499  20.928  0.00  0.00    +0.000 A 
ENDROOT
BRANCH   5   7
ATOM      7  C   UNL     1       1.445   3.980  20.793  0.00  0.00    +0.000 C 
ATOM      8  C   UNL     1       2.759   3.295  21.225  0.00  0.00    +0.000 C 
ATOM      9  C   UNL     1       3.546   2.565  20.122  0.00  0.00    +0.000 C 
ATOM     10  C   UNL     1       2.679   1.871  19.091  0.00  0.00    +0.000 C 
ATOM     11  C   UNL     1       1.321   2.509  18.833  0.00  0.00    +0.000 C 
ATOM     12  N   UNL     1       0.630   3.032  20.009  0.00  0.00    +0.000 NA
ATOM     13  C   UNL     1       3.524   1.897  17.835  0.00  0.00    +0.000 C 
ATOM     14  O   UNL     1       4.524   2.895  18.000  0.00  0.00    +0.000 OA
ATOM     15  N   UNL     1       4.670   3.197  19.419  0.00  0.00    +0.000 NA
ATOM     16  C   UNL     1       4.773   4.645  19.472  0.00  0.00    +0.000 C 
ATOM     17  H   UNL     1       0.379   2.254  20.618  0.00  0.00    +0.000 HD
ENDBRANCH   5   7
BRANCH   1  23
ATOM     18  C   UNL     1       0.100  10.128  20.344  0.00  0.00    +0.000 A 
ATOM     19  C   UNL     1      -0.547  11.178  21.028  0.00  0.00    +0.000 A 
ATOM     20  C   UNL     1      -0.710  11.156  22.416  0.00  0.00    +0.000 A 
ATOM     21  C   UNL     1      -0.227  10.086  23.138  0.00  0.00    +0.000 A 
ATOM     22  C   UNL     1       0.400   9.039  22.469  0.00  0.00    +0.000 A 
ATOM     23  C   UNL     1       0.569   9.004  21.059  0.00  0.00    +0.000 A 
BRANCH  18  25
ATOM     24  C   UNL     1      -0.975  10.415  18.258  0.00  0.00    +0.000 C 
ATOM     25  O   UNL     1       0.232  10.153  18.975  0.00  0.00    +0.000 OA
ENDBRANCH  18  25
ENDBRANCH   1  23
TORSDOF 3
ENDMDL
MODEL 5
REMARK VINA RESULT:      -7.5      1.789      3.123
REMARK  Name = 
REMARK  5 active torsions:
REMARK  status: ('A' for Active; 'I' for Inactive)
REMARK    1  A    between atoms: C_1  and  O_2
REMARK    2  A    between atoms: O_2  and  C_3
REMARK    3  A    between atoms: C_8  and  C_9
REMARK    4  A    between atoms: C_13  and  C_14
REMARK    5  A    between atoms: N_22  and  C_23
REMARK                            x       y       z     vdW  Elec       q    Type
REMARK                         _______ _______ _______ _____ _____    ______ ____
ROOT
ATOM      1  C   UNL     1       5.426   4.677  15.470  0.00  0.00    +0.000 A 
ATOM      2  C   UNL     1       5.056   5.890  16.089  0.00  0.00    +0.000 A 
ATOM      3  C   UNL     1       4.670   5.944  17.418  0.00  0.00    +0.000 A 
ATOM      4  C   UNL     1       4.535   4.764  18.138  0.00  0.00    +0.000 A 
ATOM      5  C   UNL     1       4.635   3.515  17.507  0.00  0.00    +0.000 A 
ATOM      6  C   UNL     1       5.143   3.496  16.185  0.00  0.00    +0.000 A 
ENDROOT
BRANCH   5   7
ATOM      7  C   UNL     1       4.249   2.204  18.189  0.00  0.00    +0.000 C 
ATOM      8  C   UNL     1       2.762   1.806  18.071  0.00  0.00    +0.000 C 
ATOM      9  C   UNL     1       1.804   2.424  19.104  0.00  0.00    +0.000 C 
ATOM     10  C   UNL     1       2.397   2.585  20.489  0.00  0.00    +0.000 C 
ATOM     11  C   UNL     1       3.902   2.809  20.541  0.00  0.00    +0.000 C 
ATOM     12  N   UNL     1       4.694   2.038  19.587  0.00  0.00    +0.000 NA
ATOM     13  C   UNL     1       1.662   3.779  21.059  0.00  0.00    +0.000 C 
ATOM     14  O   UNL     1       1.085   4.497  19.975  0.00  0.00    +0.000 OA
ATOM     15  N   UNL     1       1.009   3.623  18.809  0.00  0.00    +0.000 NA
ATOM     16  C   UNL     1       1.433   4.461  17.701  0.00  0.00    +0.000 C 
ATOM     17  H   UNL     1       4.625   1.048  19.823  0.00  0.00    +0.000 HD
ENDBRANCH   5   7
BRANCH   1  23
ATOM     18  C   UNL     1       5.869   4.050  12.988  0.00  0.00    +0.000 A 
ATOM     19  C   UNL     1       6.719   4.156  11.867  0.00  0.00    +0.000 A 
ATOM     20  C   UNL     1       7.916   4.875  11.923  0.00  0.00    +0.000 A 
ATOM     21  C   UNL     1       8.279   5.496  13.099  0.00  0.00    +0.000 A 
ATOM     22  C   UNL     1       7.439   5.409  14.205  0.00  0.00    +0.000 A 
ATOM     23  C   UNL     1       6.203   4.710  14.192  0.00  0.00    +0.000 A 
BRANCH  18  25
ATOM     24  C   UNL     1       4.185   3.160  11.588  0.00  0.00    +0.000 C 
ATOM     25  O   UNL     1       4.683   3.357  12.912  0.00  0.00    +0.000 OA
ENDBRANCH  18  25
ENDBRANCH   1  23
TORSDOF 3
ENDMDL
MODEL 6
REMARK VINA RESULT:      -7.4      3.982      7.507
REMARK  Name = 
REMARK  5 active torsions:
REMARK  status: ('A' for Active; 'I' for Inactive)
REMARK    1  A    between atoms: C_1  and  O_2
REMARK    2  A    between atoms: O_2  and  C_3
REMARK    3  A    between atoms: C_8  and  C_9
REMARK    4  A    between atoms: C_13  and  C_14
REMARK    5  A    between atoms: N_22  and  C_23
REMARK                            x       y       z     vdW  Elec       q    Type
REMARK                         _______ _______ _______ _____ _____    ______ ____
ROOT
ATOM      1  C   UNL     1       1.542   7.873  19.955  0.00  0.00    +0.000 A 
ATOM      2  C   UNL     1       0.904   6.903  20.757  0.00  0.00    +0.000 A 
ATOM      3  C   UNL     1       1.495   5.681  21.033  0.00  0.00    +0.000 A 
ATOM      4  C   UNL     1       2.696   5.349  20.420  0.00  0.00    +0.000 A 
ATOM      5  C   UNL     1       3.245   6.160  19.415  0.00  0.00    +0.000 A 
ATOM      6  C   UNL     1       2.683   7.448  19.244  0.00  0.00    +0.000 A 
ENDROOT
BRANCH   5   7
ATOM      7  C   UNL     1       4.417   5.723  18.539  0.00  0.00    +0.000 C 
ATOM      8  C   UNL     1       4.040   5.204  17.135  0.00  0.00    +0.000 C 
ATOM      9  C   UNL     1       3.638   3.721  17.038  0.00  0.00    +0.000 C 
ATOM     10  C   UNL     1       4.415   2.802  17.958  0.00  0.00    +0.000 C 
ATOM     11  C   UNL     1       4.904   3.427  19.258  0.00  0.00    +0.000 C 
ATOM     12  N   UNL     1       5.389   4.801  19.159  0.00  0.00    +0.000 NA
ATOM     13  C   UNL     1       3.445   1.675  18.243  0.00  0.00    +0.000 C 
ATOM     14  O   UNL     1       2.136   2.133  17.928  0.00  0.00    +0.000 OA
ATOM     15  N   UNL     1       2.234   3.292  17.047  0.00  0.00    +0.000 NA
ATOM     16  C   UNL     1       1.246   4.223  17.563  0.00  0.00    +0.000 C 
ATOM     17  H   UNL     1       6.238   4.812  18.594  0.00  0.00    +0.000 HD
ENDBRANCH   5   7
BRANCH   1  23
ATOM     18  C   UNL     1       0.869  10.068  21.171  0.00  0.00    +0.000 A 
ATOM     19  C   UNL     1       0.401  11.394  21.062  0.00  0.00    +0.000 A 
ATOM     20  C   UNL     1       0.099  11.962  19.821  0.00  0.00    +0.000 A 
ATOM     21  C   UNL     1       0.258  11.212  18.675  0.00  0.00    +0.000 A 
ATOM     22  C   UNL     1       0.733   9.908  18.774  0.00  0.00    +0.000 A 
ATOM     23  C   UNL     1       1.076   9.294  20.008  0.00  0.00    +0.000 A 
BRANCH  18  25
ATOM     24  C   UNL     1       0.108   9.498  23.336  0.00  0.00    +0.000 C 
ATOM     25  O   UNL     1       1.184   9.530  22.398  0.00  0.00    +0.000 OA
ENDBRANCH  18  25
ENDBRANCH   1  23
TORSDOF 3
ENDMDL
MODEL 7
REMARK VINA RESULT:      -7.3      3.066      5.786
REMARK  Name = 
REMARK  5 active torsions:
REMARK  status: ('A' for Active; 'I' for Inactive)
REMARK    1  A    between atoms: C_1  and  O_2
REMARK    2  A    between atoms: O_2  and  C_3
REMARK    3  A    between atoms: C_8  and  C_9
REMARK    4  A    between atoms: C_13  and  C_14
REMARK    5  A    between atoms: N_22  and  C_23
REMARK                            x       y       z     vdW  Elec       q    Type
REMARK                         _______ _______ _______ _____ _____    ______ ____
ROOT
ATOM      1  C   UNL     1       3.821   6.585  17.728  0.00  0.00    +0.000 A 
ATOM      2  C   UNL     1       4.659   6.871  16.629  0.00  0.00    +0.000 A 
ATOM      3  C   UNL     1       5.245   5.867  15.877  0.00  0.00    +0.000 A 
ATOM      4  C   UNL     1       5.099   4.543  16.272  0.00  0.00    +0.000 A 
ATOM      5  C   UNL     1       4.498   4.216  17.497  0.00  0.00    +0.000 A 
ATOM      6  C   UNL     1       3.811   5.249  18.179  0.00  0.00    +0.000 A 
ENDROOT
BRANCH   5   7
ATOM      7  C   UNL     1       4.537   2.810  18.094  0.00  0.00    +0.000 C 
ATOM      8  C   UNL     1       3.312   1.923  17.782  0.00  0.00    +0.000 C 
ATOM      9  C   UNL     1       2.091   2.093  18.703  0.00  0.00    +0.000 C 
ATOM     10  C   UNL     1       2.435   2.358  20.155  0.00  0.00    +0.000 C 
ATOM     11  C   UNL     1       3.746   3.094  20.399  0.00  0.00    +0.000 C 
ATOM     12  N   UNL     1       4.858   2.718  19.531  0.00  0.00    +0.000 NA
ATOM     13  C   UNL     1       1.265   3.176  20.658  0.00  0.00    +0.000 C 
ATOM     14  O   UNL     1       0.590   3.716  19.530  0.00  0.00    +0.000 OA
ATOM     15  N   UNL     1       0.956   2.952  18.342  0.00  0.00    +0.000 NA
ATOM     16  C   UNL     1       1.169   3.958  17.316  0.00  0.00    +0.000 C 
ATOM     17  H   UNL     1       5.123   1.753  19.733  0.00  0.00    +0.000 HD
ENDBRANCH   5   7
BRANCH   1  23
ATOM     18  C   UNL     1       2.158   7.595  19.449  0.00  0.00    +0.000 A 
ATOM     19  C   UNL     1       1.316   8.670  19.801  0.00  0.00    +0.000 A 
ATOM     20  C   UNL     1       1.169   9.785  18.971  0.00  0.00    +0.000 A 
ATOM     21  C   UNL     1       1.861   9.839  17.780  0.00  0.00    +0.000 A 
ATOM     22  C   UNL     1       2.706   8.789  17.433  0.00  0.00    +0.000 A 
ATOM     23  C   UNL     1       2.906   7.646  18.252  0.00  0.00    +0.000 A 
BRANCH  18  25
ATOM     24  C   UNL     1       1.350   6.429  21.341  0.00  0.00    +0.000 C 
ATOM     25  O   UNL     1       2.310   6.514  20.287  0.00  0.00    +0.000 OA
ENDBRANCH  18  25
ENDBRANCH   1  23
TORSDOF 3
ENDMDL
MODEL 8
REMARK VINA RESULT:      -7.3      5.368      7.913
REMARK  Name = 
REMARK  5 active torsions:
REMARK  status: ('A' for Active; 'I' for Inactive)
REMARK    1  A    between atoms: C_1  and  O_2
REMARK    2  A    between atoms: O_2  and  C_3
REMARK    3  A    between atoms: C_8  and  C_9
REMARK    4  A    between atoms: C_13  and  C_14
REMARK    5  A    between atoms: N_22  and  C_23
REMARK                            x       y       z     vdW  Elec       q    Type
REMARK                         _______ _______ _______ _____ _____    ______ ____
ROOT
ATOM      1  C   UNL     1       1.890   7.162  19.511  0.00  0.00    +0.000 A 
ATOM      2  C   UNL     1       2.076   7.595  18.181  0.00  0.00    +0.000 A 
ATOM      3  C   UNL     1       2.089   8.939  17.847  0.00  0.00    +0.000 A 
ATOM      4  C   UNL     1       1.804   9.888  18.819  0.00  0.00    +0.000 A 
ATOM      5  C   UNL     1       1.357   9.507  20.094  0.00  0.00    +0.000 A 
ATOM      6  C   UNL     1       1.468   8.138  20.436  0.00  0.00    +0.000 A 
ENDROOT
BRANCH   5   7
ATOM      7  C   UNL     1       0.794  10.499  21.110  0.00  0.00    +0.000 C 
ATOM      8  C   UNL     1      -0.734  10.710  21.055  0.00  0.00    +0.000 C 
ATOM      9  C   UNL     1      -1.247  11.736  20.029  0.00  0.00    +0.000 C 
ATOM     10  C   UNL     1      -0.348  12.942  19.847  0.00  0.00    +0.000 C 
ATOM     11  C   UNL     1       1.137  12.700  20.081  0.00  0.00    +0.000 C 
ATOM     12  N   UNL     1       1.470  11.809  21.190  0.00  0.00    +0.000 NA
ATOM     13  C   UNL     1      -0.598  13.366  18.416  0.00  0.00    +0.000 C 
ATOM     14  O   UNL     1      -1.183  12.266  17.729  0.00  0.00    +0.000 OA
ATOM     15  N   UNL     1      -1.739  11.334  18.704  0.00  0.00    +0.000 NA
ATOM     16  C   UNL     1      -1.357  10.023  18.210  0.00  0.00    +0.000 C 
ATOM     17  H   UNL     1       1.193  12.252  22.065  0.00  0.00    +0.000 HD
ENDBRANCH   5   7
BRANCH   1  23
ATOM     18  C   UNL     1       3.515   5.139  19.640  0.00  0.00    +0.000 A 
ATOM     19  C   UNL     1       3.722   3.802  20.039  0.00  0.00    +0.000 A 
ATOM     20  C   UNL     1       2.711   3.058  20.653  0.00  0.00    +0.000 A 
ATOM     21  C   UNL     1       1.481   3.639  20.874  0.00  0.00    +0.000 A 
ATOM     22  C   UNL     1       1.273   4.962  20.496  0.00  0.00    +0.000 A 
ATOM     23  C   UNL     1       2.275   5.767  19.891  0.00  0.00    +0.000 A 
BRANCH  18  25
ATOM     24  C   UNL     1       5.790   5.200  18.997  0.00  0.00    +0.000 C 
ATOM     25  O   UNL     1       4.528   5.866  19.057  0.00  0.00    +0.000 OA
ENDBRANCH  18  25
ENDBRANCH   1  23
TORSDOF 3
ENDMDL
MODEL 9
REMARK VINA RESULT:      -7.3      4.196      7.737
REMARK  Name = 
REMARK  5 active torsions:
REMARK  status: ('A' for Active; 'I' for Inactive)
REMARK    1  A    between atoms: C_1  and  O_2
REMARK    2  A    between atoms: O_2  and  C_3
REMARK    3  A    between atoms: C_8  and  C_9
REMARK    4  A    between atoms: C_13  and  C_14
REMARK    5  A    between atoms: N_22  and  C_23
REMARK                            x       y       z     vdW  Elec       q    Type
REMARK                         _______ _______ _______ _____ _____    ______ ____
ROOT
ATOM      1  C   UNL     1       1.483   7.983  20.126  0.00  0.00    +0.000 A 
ATOM      2  C   UNL     1       2.216   8.495  19.035  0.00  0.00    +0.000 A 
ATOM      3  C   UNL     1       2.655   7.681  18.004  0.00  0.00    +0.000 A 
ATOM      4  C   UNL     1       2.469   6.307  18.092  0.00  0.00    +0.000 A 
ATOM      5  C   UNL     1       1.982   5.716  19.268  0.00  0.00    +0.000 A 
ATOM      6  C   UNL     1       1.437   6.579  20.249  0.00  0.00    +0.000 A 
ENDROOT
BRANCH   5   7
ATOM      7  C   UNL     1       1.995   4.208  19.508  0.00  0.00    +0.000 C 
ATOM      8  C   UNL     1       3.294   3.645  20.123  0.00  0.00    +0.000 C 
ATOM      9  C   UNL     1       4.434   3.323  19.140  0.00  0.00    +0.000 C 
ATOM     10  C   UNL     1       3.972   2.770  17.807  0.00  0.00    +0.000 C 
ATOM     11  C   UNL     1       2.602   3.240  17.337  0.00  0.00    +0.000 C 
ATOM     12  N   UNL     1       1.580   3.361  18.374  0.00  0.00    +0.000 NA
ATOM     13  C   UNL     1       5.047   3.218  16.840  0.00  0.00    +0.000 C 
ATOM     14  O   UNL     1       5.763   4.287  17.445  0.00  0.00    +0.000 OA
ATOM     15  N   UNL     1       5.532   4.264  18.885  0.00  0.00    +0.000 NA
ATOM     16  C   UNL     1       5.326   5.657  19.241  0.00  0.00    +0.000 C 
ATOM     17  H   UNL     1       1.366   2.432  18.736  0.00  0.00    +0.000 HD
ENDBRANCH   5   7
BRANCH   1  23
ATOM     18  C   UNL     1      -0.088  10.008  20.551  0.00  0.00    +0.000 A 
ATOM     19  C   UNL     1      -0.756  10.820  21.491  0.00  0.00    +0.000 A 
ATOM     20  C   UNL     1      -0.634  10.598  22.865  0.00  0.00    +0.000 A 
ATOM     21  C   UNL     1       0.157   9.563  23.317  0.00  0.00    +0.000 A 
ATOM     22  C   UNL     1       0.807   8.748  22.395  0.00  0.00    +0.000 A 
ATOM     23  C   UNL     1       0.697   8.919  20.989  0.00  0.00    +0.000 A 
BRANCH  18  25
ATOM     24  C   UNL     1      -0.135  11.591  18.795  0.00  0.00    +0.000 C 
ATOM     25  O   UNL     1      -0.236  10.225  19.200  0.00  0.00    +0.000 OA
ENDBRANCH  18  25
ENDBRANCH   1  23
TORSDOF 3
ENDMDL
