MODEL 1
REMARK VINA RESULT:      -7.8      0.000      0.000
REMARK  Name = 
REMARK  4 active torsions:
REMARK  status: ('A' for Active; 'I' for Inactive)
REMARK    1  A    between atoms: N_1  and  C_2
REMARK    2  A    between atoms: C_3  and  C_4
REMARK    3  A    between atoms: N_6  and  C_7
REMARK    4  A    between atoms: C_17  and  C_18
REMARK                            x       y       z     vdW  Elec       q    Type
REMARK                         _______ _______ _______ _____ _____    ______ ____
ROOT
ATOM      1  C   UNL     1       1.894   7.353  20.164  0.00  0.00    +0.000 A 
ATOM      2  C   UNL     1       2.319   7.432  18.847  0.00  0.00    +0.000 A 
ATOM      3  S   UNL     1       1.875   8.944  18.157  0.00  0.00    +0.000 S 
ATOM      4  C   UNL     1       1.176   9.489  19.607  0.00  0.00    +0.000 A 
ATOM      5  N   UNL     1       0.661  10.734  19.689  0.00  0.00    +0.000 NA
ATOM      6  C   UNL     1       0.169  11.061  20.905  0.00  0.00    +0.000 A 
ATOM      7  C   UNL     1       0.114  10.182  21.982  0.00  0.00    +0.000 A 
ATOM      8  C   UNL     1       0.638   8.897  21.847  0.00  0.00    +0.000 A 
ATOM      9  C   UNL     1       1.220   8.536  20.615  0.00  0.00    +0.000 A 
ENDROOT
BRANCH   6  10
ATOM     10  C   UNL     1      -0.286  12.459  21.003  0.00  0.00    +0.000 A 
ATOM     11  C   UNL     1      -0.621  13.182  22.136  0.00  0.00    +0.000 A 
ATOM     12  C   UNL     1      -1.066  14.504  21.841  0.00  0.00    +0.000 A 
ATOM     13  C   UNL     1      -1.076  14.751  20.488  0.00  0.00    +0.000 A 
ATOM     14  S   UNL     1      -0.545  13.402  19.587  0.00  0.00    +0.000 S 
ENDBRANCH   6  10
BRANCH   2  15
ATOM     15  C   UNL     1       3.050   6.426  18.070  0.00  0.00    +0.000 C 
ATOM     16  O   UNL     1       2.593   5.300  17.878  0.00  0.00    +0.000 OA
ATOM     17  N   UNL     1       4.304   6.833  17.629  0.00  0.00    +0.000 N 
ATOM     18  H   UNL     1       4.609   7.738  17.968  0.00  0.00    +0.000 HD
BRANCH  17  19
ATOM     19  C   UNL     1       5.242   6.094  16.881  0.00  0.00    +0.000 A 
ATOM     20  C   UNL     1       5.177   5.925  15.495  0.00  0.00    +0.000 A 
ATOM     21  C   UNL     1       6.128   5.147  14.825  0.00  0.00    +0.000 A 
ATOM     22  C   UNL     1       7.150   4.527  15.538  0.00  0.00    +0.000 A 
ATOM     23  C   UNL     1       7.227   4.714  16.912  0.00  0.00    +0.000 A 
ATOM     24  F   UNL     1       8.209   4.120  17.603  0.00  0.00    +0.000 F 
ATOM     25  C   UNL     1       6.296   5.501  17.585  0.00  0.00    +0.000 A 
ENDBRANCH  17  19
ENDBRANCH   2  15
BRANCH   1  26
ATOM     26  N   UNL     1       2.110   6.285  20.962  0.00  0.00    +0.000 N 
ATOM     27  H   UNL     1       1.666   5.384  20.769  0.00  0.00    +0.000 HD
ATOM     28  H   UNL     1       2.855   6.235  21.650  0.00  0.00    +0.000 HD
ENDBRANCH   1  26
TORSDOF 4
ENDMDL
MODEL 2
REMARK VINA RESULT:      -7.7      2.581      3.919
REMARK  Name = 
REMARK  4 active torsions:
REMARK  status: ('A' for Active; 'I' for Inactive)
REMARK    1  A    between atoms: N_1  and  C_2
REMARK    2  A    between atoms: C_3  and  C_4
REMARK    3  A    between atoms: N_6  and  C_7
REMARK    4  A    between atoms: C_17  and  C_18
REMARK                            x       y       z     vdW  Elec       q    Type
REMARK                         _______ _______ _______ _____ _____    ______ ____
ROOT
ATOM      1  C   UNL     1       3.875   4.656  18.707  0.00  0.00    +0.000 A 
ATOM      2  C   UNL     1       4.478   5.314  17.647  0.00  0.00    +0.000 A 
ATOM      3  S   UNL     1       3.918   6.937  17.545  0.00  0.00    +0.000 S 
ATOM      4  C   UNL     1       2.930   6.765  18.917  0.00  0.00    +0.000 A 
ATOM      5  N   UNL     1       2.223   7.816  19.383  0.00  0.00    +0.000 NA
ATOM      6  C   UNL     1       1.507   7.562  20.502  0.00  0.00    +0.000 A 
ATOM      7  C   UNL     1       1.424   6.310  21.102  0.00  0.00    +0.000 A 
ATOM      8  C   UNL     1       2.154   5.245  20.574  0.00  0.00    +0.000 A 
ATOM      9  C   UNL     1       2.966   5.483  19.447  0.00  0.00    +0.000 A 
ENDROOT
BRANCH   6  10
ATOM     10  C   UNL     1       0.833   8.749  21.055  0.00  0.00    +0.000 A 
ATOM     11  C   UNL     1       0.425   8.984  22.358  0.00  0.00    +0.000 A 
ATOM     12  C   UNL     1      -0.242  10.235  22.516  0.00  0.00    +0.000 A 
ATOM     13  C   UNL     1      -0.340  10.916  21.326  0.00  0.00    +0.000 A 
ATOM     14  S   UNL     1       0.373  10.057  20.035  0.00  0.00    +0.000 S 
ENDBRANCH   6  10
BRANCH   2  15
ATOM     15  C   UNL     1       5.466   4.788  16.699  0.00  0.00    +0.000 C 
ATOM     16  O   UNL     1       6.500   4.243  17.081  0.00  0.00    +0.000 OA
ATOM     17  N   UNL     1       5.161   5.009  15.362  0.00  0.00    +0.000 N 
ATOM     18  H   UNL     1       4.344   5.585  15.194  0.00  0.00    +0.000 HD
BRANCH  17  19
ATOM     19  C   UNL     1       5.913   4.642  14.228  0.00  0.00    +0.000 A 
ATOM     20  C   UNL     1       7.131   5.230  13.876  0.00  0.00    +0.000 A 
ATOM     21  C   UNL     1       7.805   4.835  12.714  0.00  0.00    +0.000 A 
ATOM     22  C   UNL     1       7.263   3.852  11.892  0.00  0.00    +0.000 A 
ATOM     23  C   UNL     1       6.064   3.253  12.255  0.00  0.00    +0.000 A 
ATOM     24  F   UNL     1       5.536   2.306  11.468  0.00  0.00    +0.000 F 
ATOM     25  C   UNL     1       5.394   3.625  13.418  0.00  0.00    +0.000 A 
ENDBRANCH  17  19
ENDBRANCH   2  15
BRANCH   1  26
ATOM     26  N   UNL     1       4.129   3.371  19.039  0.00  0.00    +0.000 N 
ATOM     27  H   UNL     1       5.084   3.004  19.032  0.00  0.00    +0.000 HD
ATOM     28  H   UNL     1       3.459   2.763  19.500  0.00  0.00    +0.000 HD
ENDBRANCH   1  26
TORSDOF 4
ENDMDL
MODEL 3
REMARK VINA RESULT:      -7.6      0.805      1.024
REMARK  Name = 
REMARK  4 active torsions:
REMARK  status: ('A' for Active; 'I' for Inactive)
REMARK    1  A    between atoms: N_1  and  C_2
REMARK    2  A    between atoms: C_3  and  C_4
REMARK    3  A    between atoms: N_6  and  C_7
REMARK    4  A    between atoms: C_17  and  C_18
REMARK                            x       y       z     vdW  Elec       q    Type
REMARK                         _______ _______ _______ _____ _____    ______ ____
ROOT
ATOM      1  C   UNL     1       1.811   7.818  20.006  0.00  0.00    +0.000 A 
ATOM      2  C   UNL     1       2.316   7.732  18.718  0.00  0.00    +0.000 A 
ATOM      3  S   UNL     1       1.934   9.151  17.823  0.00  0.00    +0.000 S 
ATOM      4  C   UNL     1       1.155   9.872  19.150  0.00  0.00    +0.000 A 
ATOM      5  N   UNL     1       0.651  11.120  19.047  0.00  0.00    +0.000 NA
ATOM      6  C   UNL     1       0.090  11.597  20.181  0.00  0.00    +0.000 A 
ATOM      7  C   UNL     1      -0.041  10.856  21.352  0.00  0.00    +0.000 A 
ATOM      8  C   UNL     1       0.474   9.562  21.407  0.00  0.00    +0.000 A 
ATOM      9  C   UNL     1       1.126   9.050  20.267  0.00  0.00    +0.000 A 
ENDROOT
BRANCH   6  10
ATOM     10  C   UNL     1      -0.353  12.998  20.079  0.00  0.00    +0.000 A 
ATOM     11  C   UNL     1       0.097  13.986  19.219  0.00  0.00    +0.000 A 
ATOM     12  C   UNL     1      -0.534  15.246  19.441  0.00  0.00    +0.000 A 
ATOM     13  C   UNL     1      -1.438  15.191  20.476  0.00  0.00    +0.000 A 
ATOM     14  S   UNL     1      -1.527  13.632  21.166  0.00  0.00    +0.000 S 
ENDBRANCH   6  10
BRANCH   2  15
ATOM     15  C   UNL     1       3.081   6.636  18.116  0.00  0.00    +0.000 C 
ATOM     16  O   UNL     1       2.716   5.465  18.213  0.00  0.00    +0.000 OA
ATOM     17  N   UNL     1       4.260   7.025  17.491  0.00  0.00    +0.000 N 
ATOM     18  H   UNL     1       4.504   8.003  17.600  0.00  0.00    +0.000 HD
BRANCH  17  19
ATOM     19  C   UNL     1       5.208   6.209  16.842  0.00  0.00    +0.000 A 
ATOM     20  C   UNL     1       5.186   5.923  15.474  0.00  0.00    +0.000 A 
ATOM     21  C   UNL     1       6.144   5.075  14.907  0.00  0.00    +0.000 A 
ATOM     22  C   UNL     1       7.129   4.502  15.705  0.00  0.00    +0.000 A 
ATOM     23  C   UNL     1       7.164   4.805  17.060  0.00  0.00    +0.000 A 
ATOM     24  F   UNL     1       8.110   4.255  17.834  0.00  0.00    +0.000 F 
ATOM     25  C   UNL     1       6.226   5.661  17.631  0.00  0.00    +0.000 A 
ENDBRANCH  17  19
ENDBRANCH   2  15
BRANCH   1  26
ATOM     26  N   UNL     1       1.966   6.854  20.941  0.00  0.00    +0.000 N 
ATOM     27  H   UNL     1       1.699   5.886  20.748  0.00  0.00    +0.000 HD
ATOM     28  H   UNL     1       2.524   6.966  21.781  0.00  0.00    +0.000 HD
ENDBRANCH   1  26
TORSDOF 4
ENDMDL
MODEL 4
REMARK VINA RESULT:      -7.4      4.554      9.921
REMARK  Name = 
REMARK  4 active torsions:
REMARK  status: ('A' for Active; 'I' for Inactive)
REMARK    1  A    between atoms: N_1  and  C_2
REMARK    2  A    between atoms: C_3  and  C_4
REMARK    3  A    between atoms: N_6  and  C_7
REMARK    4  A    between atoms: C_17  and  C_18
REMARK                            x       y       z     vdW  Elec       q    Type
REMARK                         _______ _______ _______ _____ _____    ______ ____
ROOT
ATOM      1  C   UNL     1       0.754  10.553  19.100  0.00  0.00    +0.000 A 
ATOM      2  C   UNL     1       0.106  10.615  20.323  0.00  0.00    +0.000 A 
ATOM      3  S   UNL     1       0.316   9.146  21.194  0.00  0.00    +0.000 S 
ATOM      4  C   UNL     1       1.290   8.472  19.976  0.00  0.00    +0.000 A 
ATOM      5  N   UNL     1       1.831   7.246  20.138  0.00  0.00    +0.000 NA
ATOM      6  C   UNL     1       2.617   6.838  19.116  0.00  0.00    +0.000 A 
ATOM      7  C   UNL     1       2.808   7.566  17.945  0.00  0.00    +0.000 A 
ATOM      8  C   UNL     1       2.211   8.819  17.811  0.00  0.00    +0.000 A 
ATOM      9  C   UNL     1       1.437   9.311  18.881  0.00  0.00    +0.000 A 
ENDROOT
BRANCH   6  10
ATOM     10  C   UNL     1       3.286   5.549  19.362  0.00  0.00    +0.000 A 
ATOM     11  C   UNL     1       4.534   5.126  18.933  0.00  0.00    +0.000 A 
ATOM     12  C   UNL     1       4.833   3.788  19.326  0.00  0.00    +0.000 A 
ATOM     13  C   UNL     1       3.799   3.218  20.030  0.00  0.00    +0.000 A 
ATOM     14  S   UNL     1       2.486   4.291  20.221  0.00  0.00    +0.000 S 
ENDBRANCH   6  10
BRANCH   2  15
ATOM     15  C   UNL     1      -0.667  11.728  20.883  0.00  0.00    +0.000 C 
ATOM     16  O   UNL     1      -0.936  12.727  20.217  0.00  0.00    +0.000 OA
ATOM     17  N   UNL     1      -1.011  11.580  22.222  0.00  0.00    +0.000 N 
ATOM     18  H   UNL     1      -0.613  10.770  22.683  0.00  0.00    +0.000 HD
BRANCH  17  19
ATOM     19  C   UNL     1      -1.730  12.477  23.037  0.00  0.00    +0.000 A 
ATOM     20  C   UNL     1      -1.241  13.720  23.449  0.00  0.00    +0.000 A 
ATOM     21  C   UNL     1      -2.001  14.543  24.289  0.00  0.00    +0.000 A 
ATOM     22  C   UNL     1      -3.254  14.127  24.727  0.00  0.00    +0.000 A 
ATOM     23  C   UNL     1      -3.748  12.901  24.299  0.00  0.00    +0.000 A 
ATOM     24  F   UNL     1      -4.954  12.494  24.718  0.00  0.00    +0.000 F 
ATOM     25  C   UNL     1      -3.008  12.083  23.449  0.00  0.00    +0.000 A 
ENDBRANCH  17  19
ENDBRANCH   2  15
BRANCH   1  26
ATOM     26  N   UNL     1       0.772  11.566  18.206  0.00  0.00    +0.000 N 
ATOM     27  H   UNL     1       0.599  11.394  17.212  0.00  0.00    +0.000 HD
ATOM     28  H   UNL     1       0.746  12.548  18.462  0.00  0.00    +0.000 HD
ENDBRANCH   1  26
TORSDOF 4
ENDMDL
MODEL 5
REMARK VINA RESULT:      -7.4      2.391      3.662
REMARK  Name = 
REMARK  4 active torsions:
REMARK  status: ('A' for Active; 'I' for Inactive)
REMARK    1  A    between atoms: N_1  and  C_2
REMARK    2  A    between atoms: C_3  and  C_4
REMARK    3  A    between atoms: N_6  and  C_7
REMARK    4  A    between atoms: C_17  and  C_18
REMARK                            x       y       z     vdW  Elec       q    Type
REMARK                         _______ _______ _______ _____ _____    ______ ____
ROOT
ATOM      1  C   UNL     1       3.757   4.686  18.767  0.00  0.00    +0.000 A 
ATOM      2  C   UNL     1       4.361   5.344  17.708  0.00  0.00    +0.000 A 
ATOM      3  S   UNL     1       3.814   6.972  17.616  0.00  0.00    +0.000 S 
ATOM      4  C   UNL     1       2.831   6.802  18.992  0.00  0.00    +0.000 A 
ATOM      5  N   UNL     1       2.134   7.856  19.465  0.00  0.00    +0.000 NA
ATOM      6  C   UNL     1       1.422   7.603  20.586  0.00  0.00    +0.000 A 
ATOM      7  C   UNL     1       1.331   6.348  21.181  0.00  0.00    +0.000 A 
ATOM      8  C   UNL     1       2.050   5.280  20.645  0.00  0.00    +0.000 A 
ATOM      9  C   UNL     1       2.859   5.517  19.515  0.00  0.00    +0.000 A 
ENDROOT
BRANCH   6  10
ATOM     10  C   UNL     1       0.760   8.793  21.148  0.00  0.00    +0.000 A 
ATOM     11  C   UNL     1       0.326   9.009  22.446  0.00  0.00    +0.000 A 
ATOM     12  C   UNL     1      -0.318  10.271  22.615  0.00  0.00    +0.000 A 
ATOM     13  C   UNL     1      -0.374  10.978  21.437  0.00  0.00    +0.000 A 
ATOM     14  S   UNL     1       0.351  10.130  20.145  0.00  0.00    +0.000 S 
ENDBRANCH   6  10
BRANCH   2  15
ATOM     15  C   UNL     1       5.340   4.815  16.753  0.00  0.00    +0.000 C 
ATOM     16  O   UNL     1       6.364   4.246  17.127  0.00  0.00    +0.000 OA
ATOM     17  N   UNL     1       5.040   5.060  15.418  0.00  0.00    +0.000 N 
ATOM     18  H   UNL     1       4.233   5.653  15.259  0.00  0.00    +0.000 HD
BRANCH  17  19
ATOM     19  C   UNL     1       5.786   4.696  14.280  0.00  0.00    +0.000 A 
ATOM     20  C   UNL     1       5.398   3.703  13.377  0.00  0.00    +0.000 A 
ATOM     21  C   UNL     1       6.211   3.372  12.286  0.00  0.00    +0.000 A 
ATOM     22  C   UNL     1       7.422   4.030  12.093  0.00  0.00    +0.000 A 
ATOM     23  C   UNL     1       7.796   5.032  12.978  0.00  0.00    +0.000 A 
ATOM     24  F   UNL     1       8.961   5.669  12.798  0.00  0.00    +0.000 F 
ATOM     25  C   UNL     1       6.986   5.381  14.056  0.00  0.00    +0.000 A 
ENDBRANCH  17  19
ENDBRANCH   2  15
BRANCH   1  26
ATOM     26  N   UNL     1       4.002   3.397  19.091  0.00  0.00    +0.000 N 
ATOM     27  H   UNL     1       4.922   2.980  18.932  0.00  0.00    +0.000 HD
ATOM     28  H   UNL     1       3.395   2.837  19.681  0.00  0.00    +0.000 HD
ENDBRANCH   1  26
TORSDOF 4
ENDMDL
MODEL 6
REMARK VINA RESULT:      -7.3      2.088      2.486
REMARK  Name = 
REMARK  4 active torsions:
REMARK  status: ('A' for Active; 'I' for Inactive)
REMARK    1  A    between atoms: N_1  and  C_2
REMARK    2  A    between atoms: C_3  and  C_4
REMARK    3  A    between atoms: N_6  and  C_7
REMARK    4  A    between atoms: C_17  and  C_18
REMARK                            x       y       z     vdW  Elec       q    Type
REMARK                         _______ _______ _______ _____ _____    ______ ____
ROOT
ATOM      1  C   UNL     1       1.224   8.452  20.659  0.00  0.00    +0.000 A 
ATOM      2  C   UNL     1       1.412   8.942  19.376  0.00  0.00    +0.000 A 
ATOM      3  S   UNL     1       0.551  10.415  19.159  0.00  0.00    +0.000 S 
ATOM      4  C   UNL     1      -0.016  10.411  20.761  0.00  0.00    +0.000 A 
ATOM      5  N   UNL     1      -0.769  11.434  21.218  0.00  0.00    +0.000 NA
ATOM      6  C   UNL     1      -1.125  11.333  22.519  0.00  0.00    +0.000 A 
ATOM      7  C   UNL     1      -0.821  10.239  23.324  0.00  0.00    +0.000 A 
ATOM      8  C   UNL     1      -0.059   9.194  22.803  0.00  0.00    +0.000 A 
ATOM      9  C   UNL     1       0.389   9.290  21.470  0.00  0.00    +0.000 A 
ENDROOT
BRANCH   6  10
ATOM     10  C   UNL     1      -1.850  12.510  23.027  0.00  0.00    +0.000 A 
ATOM     11  C   UNL     1      -3.165  12.597  23.456  0.00  0.00    +0.000 A 
ATOM     12  C   UNL     1      -3.539  13.919  23.838  0.00  0.00    +0.000 A 
ATOM     13  C   UNL     1      -2.505  14.811  23.676  0.00  0.00    +0.000 A 
ATOM     14  S   UNL     1      -1.097  14.056  23.076  0.00  0.00    +0.000 S 
ENDBRANCH   6  10
BRANCH   2  15
ATOM     15  C   UNL     1       2.214   8.362  18.294  0.00  0.00    +0.000 C 
ATOM     16  O   UNL     1       2.283   8.893  17.186  0.00  0.00    +0.000 OA
ATOM     17  N   UNL     1       2.828   7.156  18.609  0.00  0.00    +0.000 N 
ATOM     18  H   UNL     1       2.580   6.768  19.512  0.00  0.00    +0.000 HD
BRANCH  17  19
ATOM     19  C   UNL     1       3.641   6.355  17.783  0.00  0.00    +0.000 A 
ATOM     20  C   UNL     1       4.615   6.863  16.918  0.00  0.00    +0.000 A 
ATOM     21  C   UNL     1       5.361   6.005  16.101  0.00  0.00    +0.000 A 
ATOM     22  C   UNL     1       5.136   4.632  16.140  0.00  0.00    +0.000 A 
ATOM     23  C   UNL     1       4.185   4.127  17.017  0.00  0.00    +0.000 A 
ATOM     24  F   UNL     1       3.963   2.807  17.058  0.00  0.00    +0.000 F 
ATOM     25  C   UNL     1       3.449   4.970  17.846  0.00  0.00    +0.000 A 
ENDBRANCH  17  19
ENDBRANCH   2  15
BRANCH   1  26
ATOM     26  N   UNL     1       1.787   7.314  21.121  0.00  0.00    +0.000 N 
ATOM     27  H   UNL     1       1.527   6.403  20.734  0.00  0.00    +0.000 HD
ATOM     28  H   UNL     1       2.619   7.290  21.701  0.00  0.00    +0.000 HD
ENDBRANCH   1  26
TORSDOF 4
ENDMDL
MODEL 7
REMARK VINA RESULT:      -7.3      1.209      1.694
REMARK  Name = 
REMARK  4 active torsions:
REMARK  status: ('A' for Active; 'I' for Inactive)
REMARK    1  A    between atoms: N_1  and  C_2
REMARK    2  A    between atoms: C_3  and  C_4
REMARK    3  A    between atoms: N_6  and  C_7
REMARK    4  A    between atoms: C_17  and  C_18
REMARK                            x       y       z     vdW  Elec       q    Type
REMARK                         _______ _______ _______ _____ _____    ______ ____
ROOT
ATOM      1  C   UNL     1       1.798   7.753  20.055  0.00  0.00    +0.000 A 
ATOM      2  C   UNL     1       2.338   7.630  18.784  0.00  0.00    +0.000 A 
ATOM      3  S   UNL     1       2.021   9.042  17.854  0.00  0.00    +0.000 S 
ATOM      4  C   UNL     1       1.223   9.808  19.144  0.00  0.00    +0.000 A 
ATOM      5  N   UNL     1       0.757  11.067  19.005  0.00  0.00    +0.000 NA
ATOM      6  C   UNL     1       0.178  11.579  20.115  0.00  0.00    +0.000 A 
ATOM      7  C   UNL     1      -0.008  10.863  21.294  0.00  0.00    +0.000 A 
ATOM      8  C   UNL     1       0.471   9.557  21.386  0.00  0.00    +0.000 A 
ATOM      9  C   UNL     1       1.140   9.007  20.274  0.00  0.00    +0.000 A 
ENDROOT
BRANCH   6  10
ATOM     10  C   UNL     1      -0.223  12.989  19.976  0.00  0.00    +0.000 A 
ATOM     11  C   UNL     1       0.037  13.864  18.934  0.00  0.00    +0.000 A 
ATOM     12  C   UNL     1      -0.472  15.176  19.167  0.00  0.00    +0.000 A 
ATOM     13  C   UNL     1      -1.093  15.273  20.390  0.00  0.00    +0.000 A 
ATOM     14  S   UNL     1      -1.069  13.794  21.241  0.00  0.00    +0.000 S 
ENDBRANCH   6  10
BRANCH   2  15
ATOM     15  C   UNL     1       3.089   6.503  18.223  0.00  0.00    +0.000 C 
ATOM     16  O   UNL     1       2.644   5.356  18.245  0.00  0.00    +0.000 OA
ATOM     17  N   UNL     1       4.346   6.831  17.730  0.00  0.00    +0.000 N 
ATOM     18  H   UNL     1       4.638   7.788  17.894  0.00  0.00    +0.000 HD
BRANCH  17  19
ATOM     19  C   UNL     1       5.302   5.973  17.150  0.00  0.00    +0.000 A 
ATOM     20  C   UNL     1       6.406   5.459  17.836  0.00  0.00    +0.000 A 
ATOM     21  C   UNL     1       7.334   4.639  17.183  0.00  0.00    +0.000 A 
ATOM     22  C   UNL     1       7.166   4.331  15.836  0.00  0.00    +0.000 A 
ATOM     23  C   UNL     1       6.057   4.825  15.162  0.00  0.00    +0.000 A 
ATOM     24  F   UNL     1       5.891   4.533  13.865  0.00  0.00    +0.000 F 
ATOM     25  C   UNL     1       5.119   5.627  15.807  0.00  0.00    +0.000 A 
ENDBRANCH  17  19
ENDBRANCH   2  15
BRANCH   1  26
ATOM     26  N   UNL     1       1.900   6.802  21.010  0.00  0.00    +0.000 N 
ATOM     27  H   UNL     1       1.344   5.945  20.960  0.00  0.00    +0.000 HD
ATOM     28  H   UNL     1       2.647   6.768  21.696  0.00  0.00    +0.000 HD
ENDBRANCH   1  26
TORSDOF 4
ENDMDL
MODEL 8
REMARK VINA RESULT:      -7.3      2.962      3.961
REMARK  Name = 
REMARK  4 active torsions:
REMARK  status: ('A' for Active; 'I' for Inactive)
REMARK    1  A    between atoms: N_1  and  C_2
REMARK    2  A    between atoms: C_3  and  C_4
REMARK    3  A    between atoms: N_6  and  C_7
REMARK    4  A    between atoms: C_17  and  C_18
REMARK                            x       y       z     vdW  Elec       q    Type
REMARK                         _______ _______ _______ _____ _____    ______ ____
ROOT
ATOM      1  C   UNL     1       1.122   9.974  19.119  0.00  0.00    +0.000 A 
ATOM      2  C   UNL     1       1.467   8.823  19.809  0.00  0.00    +0.000 A 
ATOM      3  S   UNL     1       0.893   8.894  21.429  0.00  0.00    +0.000 S 
ATOM      4  C   UNL     1       0.163  10.409  21.187  0.00  0.00    +0.000 A 
ATOM      5  N   UNL     1      -0.537  10.994  22.182  0.00  0.00    +0.000 NA
ATOM      6  C   UNL     1      -1.101  12.179  21.852  0.00  0.00    +0.000 A 
ATOM      7  C   UNL     1      -0.927  12.805  20.622  0.00  0.00    +0.000 A 
ATOM      8  C   UNL     1      -0.177  12.175  19.630  0.00  0.00    +0.000 A 
ATOM      9  C   UNL     1       0.374  10.907  19.909  0.00  0.00    +0.000 A 
ENDROOT
BRANCH   6  10
ATOM     10  C   UNL     1      -1.950  12.745  22.914  0.00  0.00    +0.000 A 
ATOM     11  C   UNL     1      -3.143  12.256  23.421  0.00  0.00    +0.000 A 
ATOM     12  C   UNL     1      -3.713  13.101  24.418  0.00  0.00    +0.000 A 
ATOM     13  C   UNL     1      -2.948  14.222  24.636  0.00  0.00    +0.000 A 
ATOM     14  S   UNL     1      -1.554  14.248  23.652  0.00  0.00    +0.000 S 
ENDBRANCH   6  10
BRANCH   2  15
ATOM     15  C   UNL     1       2.207   7.658  19.315  0.00  0.00    +0.000 C 
ATOM     16  O   UNL     1       2.732   7.651  18.202  0.00  0.00    +0.000 OA
ATOM     17  N   UNL     1       2.212   6.565  20.174  0.00  0.00    +0.000 N 
ATOM     18  H   UNL     1       1.631   6.662  20.999  0.00  0.00    +0.000 HD
BRANCH  17  19
ATOM     19  C   UNL     1       2.817   5.308  19.976  0.00  0.00    +0.000 A 
ATOM     20  C   UNL     1       4.129   5.136  19.525  0.00  0.00    +0.000 A 
ATOM     21  C   UNL     1       4.650   3.853  19.318  0.00  0.00    +0.000 A 
ATOM     22  C   UNL     1       3.861   2.732  19.556  0.00  0.00    +0.000 A 
ATOM     23  C   UNL     1       2.565   2.904  20.026  0.00  0.00    +0.000 A 
ATOM     24  F   UNL     1       1.800   1.829  20.256  0.00  0.00    +0.000 F 
ATOM     25  C   UNL     1       2.043   4.175  20.251  0.00  0.00    +0.000 A 
ENDBRANCH  17  19
ENDBRANCH   2  15
BRANCH   1  26
ATOM     26  N   UNL     1       1.430  10.195  17.822  0.00  0.00    +0.000 N 
ATOM     27  H   UNL     1       1.211  11.088  17.373  0.00  0.00    +0.000 HD
ATOM     28  H   UNL     1       2.060   9.609  17.283  0.00  0.00    +0.000 HD
ENDBRANCH   1  26
TORSDOF 4
ENDMDL
MODEL 9
REMARK VINA RESULT:      -7.2      4.455      9.867
REMARK  Name = 
REMARK  4 active torsions:
REMARK  status: ('A' for Active; 'I' for Inactive)
REMARK    1  A    between atoms: N_1  and  C_2
REMARK    2  A    between atoms: C_3  and  C_4
REMARK    3  A    between atoms: N_6  and  C_7
REMARK    4  A    between atoms: C_17  and  C_18
REMARK                            x       y       z     vdW  Elec       q    Type
REMARK                         _______ _______ _______ _____ _____    ______ ____
ROOT
ATOM      1  C   UNL     1       0.518  10.600  19.065  0.00  0.00    +0.000 A 
ATOM      2  C   UNL     1      -0.149  10.576  20.279  0.00  0.00    +0.000 A 
ATOM      3  S   UNL     1       0.171   9.107  21.115  0.00  0.00    +0.000 S 
ATOM      4  C   UNL     1       1.212   8.548  19.895  0.00  0.00    +0.000 A 
ATOM      5  N   UNL     1       1.851   7.367  20.034  0.00  0.00    +0.000 NA
ATOM      6  C   UNL     1       2.681   7.052  19.014  0.00  0.00    +0.000 A 
ATOM      7  C   UNL     1       2.826   7.824  17.865  0.00  0.00    +0.000 A 
ATOM      8  C   UNL     1       2.129   9.027  17.753  0.00  0.00    +0.000 A 
ATOM      9  C   UNL     1       1.304   9.425  18.824  0.00  0.00    +0.000 A 
ENDROOT
BRANCH   6  10
ATOM     10  C   UNL     1       3.451   5.816  19.237  0.00  0.00    +0.000 A 
ATOM     11  C   UNL     1       4.791   5.574  18.982  0.00  0.00    +0.000 A 
ATOM     12  C   UNL     1       5.181   4.235  19.282  0.00  0.00    +0.000 A 
ATOM     13  C   UNL     1       4.125   3.485  19.743  0.00  0.00    +0.000 A 
ATOM     14  S   UNL     1       2.681   4.391  19.820  0.00  0.00    +0.000 S 
ENDBRANCH   6  10
BRANCH   2  15
ATOM     15  C   UNL     1      -1.018  11.606  20.856  0.00  0.00    +0.000 C 
ATOM     16  O   UNL     1      -1.598  12.430  20.150  0.00  0.00    +0.000 OA
ATOM     17  N   UNL     1      -1.079  11.604  22.244  0.00  0.00    +0.000 N 
ATOM     18  H   UNL     1      -0.450  10.955  22.703  0.00  0.00    +0.000 HD
BRANCH  17  19
ATOM     19  C   UNL     1      -1.807  12.472  23.082  0.00  0.00    +0.000 A 
ATOM     20  C   UNL     1      -3.098  12.207  23.548  0.00  0.00    +0.000 A 
ATOM     21  C   UNL     1      -3.773  13.135  24.350  0.00  0.00    +0.000 A 
ATOM     22  C   UNL     1      -3.162  14.338  24.689  0.00  0.00    +0.000 A 
ATOM     23  C   UNL     1      -1.870  14.590  24.246  0.00  0.00    +0.000 A 
ATOM     24  F   UNL     1      -1.277  15.747  24.568  0.00  0.00    +0.000 F 
ATOM     25  C   UNL     1      -1.184  13.666  23.461  0.00  0.00    +0.000 A 
ENDBRANCH  17  19
ENDBRANCH   2  15
BRANCH   1  26
ATOM     26  N   UNL     1       0.464  11.634  18.196  0.00  0.00    +0.000 N 
ATOM     27  H   UNL     1       0.786  12.567  18.467  0.00  0.00    +0.000 HD
ATOM     28  H   UNL     1       0.309  11.527  17.199  0.00  0.00    +0.000 HD
ENDBRANCH   1  26
TORSDOF 4
ENDMDL
