MODEL 1
REMARK VINA RESULT:      -8.5      0.000      0.000
REMARK  Name = 
REMARK  9 active torsions:
REMARK  status: ('A' for Active; 'I' for Inactive)
REMARK    1  A    between atoms: C_2  and  O_3
REMARK    2  A    between atoms: C_2  and  C_4
REMARK    3  A    between atoms: C_4  and  C_5
REMARK    4  A    between atoms: C_4  and  N_12
REMARK    5  A    between atoms: C_5  and  C_6
REMARK    6  A    between atoms: N_12  and  S_13
REMARK    7  A    between atoms: S_13  and  C_16
REMARK    8  A    between atoms: C_19  and  C_20
REMARK    9  A    between atoms: C_21  and  C_22
REMARK                            x       y       z     vdW  Elec       q    Type
REMARK                         _______ _______ _______ _____ _____    ______ ____
ROOT
ATOM      1  S   UNL     1       5.134   4.090  17.427  0.00  0.00    +0.000 S 
ATOM      2  O   UNL     1       4.993   3.479  18.723  0.00  0.00    +0.000 OA
ATOM      3  O   UNL     1       5.697   3.384  16.302  0.00  0.00    +0.000 OA
ENDROOT
BRANCH   1   4
ATOM      4  C   UNL     1       6.093   5.569  17.624  0.00  0.00    +0.000 A 
ATOM      5  C   UNL     1       5.745   6.726  16.925  0.00  0.00    +0.000 A 
ATOM      6  C   UNL     1       6.501   7.883  17.105  0.00  0.00    +0.000 A 
ATOM      7  C   UNL     1       7.595   7.873  17.977  0.00  0.00    +0.000 A 
ATOM      8  C   UNL     1       7.928   6.715  18.683  0.00  0.00    +0.000 A 
ATOM      9  C   UNL     1       7.168   5.559  18.520  0.00  0.00    +0.000 A 
BRANCH   7  10
ATOM     10  C   UNL     1       8.372   9.059  18.159  0.00  0.00    +0.000 C 
ATOM     11  C   UNL     1       9.016  10.058  18.300  0.00  0.00    +0.000 C 
BRANCH  11  12
ATOM     12  C   UNL     1       9.783  11.254  18.455  0.00  0.00    +0.000 A 
ATOM     13  C   UNL     1      10.902  11.265  19.290  0.00  0.00    +0.000 A 
ATOM     14  C   UNL     1      11.640  12.436  19.449  0.00  0.00    +0.000 A 
ATOM     15  C   UNL     1      11.262  13.599  18.774  0.00  0.00    +0.000 A 
ATOM     16  C   UNL     1      10.147  13.586  17.935  0.00  0.00    +0.000 A 
ATOM     17  C   UNL     1       9.407  12.413  17.774  0.00  0.00    +0.000 A 
ENDBRANCH  11  12
ENDBRANCH   7  10
ENDBRANCH   1   4
BRANCH   1  18
ATOM     18  N   UNL     1       3.630   4.706  16.896  0.00  0.00    +0.000 NA
ATOM     19  H   UNL     1       3.839   5.568  16.377  0.00  0.00    +0.000 HD
BRANCH  18  20
ATOM     20  C   UNL     1       2.565   5.006  17.929  0.00  0.00    +0.000 C 
BRANCH  20  22
ATOM     21  O   UNL     1       1.691   2.723  17.878  0.00  0.00    +0.000 OA
ATOM     22  C   UNL     1       2.102   3.671  18.532  0.00  0.00    +0.000 C 
BRANCH  22  23
ATOM     23  O   UNL     1       2.198   3.632  19.887  0.00  0.00    +0.000 OA
ATOM     24  H   UNL     1       2.919   4.233  20.181  0.00  0.00    +0.000 HD
ENDBRANCH  22  23
ENDBRANCH  20  22
BRANCH  20  25
ATOM     25  C   UNL     1       2.989   5.930  19.081  0.00  0.00    +0.000 C 
BRANCH  25  26
ATOM     26  C   UNL     1       2.376   7.312  19.073  0.00  0.00    +0.000 A 
ATOM     27  C   UNL     1       2.420   8.127  17.935  0.00  0.00    +0.000 A 
ATOM     28  C   UNL     1       1.843   9.398  17.947  0.00  0.00    +0.000 A 
ATOM     29  C   UNL     1       1.206   9.862  19.094  0.00  0.00    +0.000 A 
ATOM     30  C   UNL     1       1.146   9.058  20.229  0.00  0.00    +0.000 A 
ATOM     31  C   UNL     1       1.730   7.791  20.221  0.00  0.00    +0.000 A 
ENDBRANCH  25  26
ENDBRANCH  20  25
ENDBRANCH  18  20
ENDBRANCH   1  18
TORSDOF 9
ENDMDL
MODEL 2
REMARK VINA RESULT:      -8.4      0.329      1.111
REMARK  Name = 
REMARK  9 active torsions:
REMARK  status: ('A' for Active; 'I' for Inactive)
REMARK    1  A    between atoms: C_2  and  O_3
REMARK    2  A    between atoms: C_2  and  C_4
REMARK    3  A    between atoms: C_4  and  C_5
REMARK    4  A    between atoms: C_4  and  N_12
REMARK    5  A    between atoms: C_5  and  C_6
REMARK    6  A    between atoms: N_12  and  S_13
REMARK    7  A    between atoms: S_13  and  C_16
REMARK    8  A    between atoms: C_19  and  C_20
REMARK    9  A    between atoms: C_21  and  C_22
REMARK                            x       y       z     vdW  Elec       q    Type
REMARK                         _______ _______ _______ _____ _____    ______ ____
ROOT
ATOM      1  S   UNL     1       5.436   4.235  17.541  0.00  0.00    +0.000 S 
ATOM      2  O   UNL     1       5.311   3.639  18.846  0.00  0.00    +0.000 OA
ATOM      3  O   UNL     1       6.015   3.527  16.426  0.00  0.00    +0.000 OA
ENDROOT
BRANCH   1   4
ATOM      4  C   UNL     1       6.360   5.739  17.716  0.00  0.00    +0.000 A 
ATOM      5  C   UNL     1       5.965   6.886  17.024  0.00  0.00    +0.000 A 
ATOM      6  C   UNL     1       6.693   8.063  17.187  0.00  0.00    +0.000 A 
ATOM      7  C   UNL     1       7.806   8.084  18.034  0.00  0.00    +0.000 A 
ATOM      8  C   UNL     1       8.186   6.936  18.733  0.00  0.00    +0.000 A 
ATOM      9  C   UNL     1       7.453   5.759  18.588  0.00  0.00    +0.000 A 
BRANCH   7  10
ATOM     10  C   UNL     1       8.554   9.291  18.198  0.00  0.00    +0.000 C 
ATOM     11  C   UNL     1       9.192  10.293  18.342  0.00  0.00    +0.000 C 
BRANCH  11  12
ATOM     12  C   UNL     1       9.962  11.484  18.523  0.00  0.00    +0.000 A 
ATOM     13  C   UNL     1       9.685  12.619  17.757  0.00  0.00    +0.000 A 
ATOM     14  C   UNL     1      10.446  13.774  17.927  0.00  0.00    +0.000 A 
ATOM     15  C   UNL     1      11.484  13.798  18.861  0.00  0.00    +0.000 A 
ATOM     16  C   UNL     1      11.756  12.666  19.629  0.00  0.00    +0.000 A 
ATOM     17  C   UNL     1      10.994  11.507  19.462  0.00  0.00    +0.000 A 
ENDBRANCH  11  12
ENDBRANCH   7  10
ENDBRANCH   1   4
BRANCH   1  18
ATOM     18  N   UNL     1       3.917   4.807  17.003  0.00  0.00    +0.000 NA
ATOM     19  H   UNL     1       4.093   5.718  16.560  0.00  0.00    +0.000 HD
BRANCH  18  20
ATOM     20  C   UNL     1       2.803   4.965  18.015  0.00  0.00    +0.000 C 
BRANCH  20  22
ATOM     21  O   UNL     1       2.167   3.351  19.739  0.00  0.00    +0.000 OA
ATOM     22  C   UNL     1       2.474   3.573  18.577  0.00  0.00    +0.000 C 
BRANCH  22  23
ATOM     23  O   UNL     1       2.549   2.587  17.644  0.00  0.00    +0.000 OA
ATOM     24  H   UNL     1       1.793   2.670  17.019  0.00  0.00    +0.000 HD
ENDBRANCH  22  23
ENDBRANCH  20  22
BRANCH  20  25
ATOM     25  C   UNL     1       3.097   5.901  19.197  0.00  0.00    +0.000 C 
BRANCH  25  26
ATOM     26  C   UNL     1       2.423   7.253  19.146  0.00  0.00    +0.000 A 
ATOM     27  C   UNL     1       2.441   8.039  17.986  0.00  0.00    +0.000 A 
ATOM     28  C   UNL     1       1.808   9.282  17.959  0.00  0.00    +0.000 A 
ATOM     29  C   UNL     1       1.139   9.748  19.088  0.00  0.00    +0.000 A 
ATOM     30  C   UNL     1       1.105   8.972  20.244  0.00  0.00    +0.000 A 
ATOM     31  C   UNL     1       1.745   7.733  20.275  0.00  0.00    +0.000 A 
ENDBRANCH  25  26
ENDBRANCH  20  25
ENDBRANCH  18  20
ENDBRANCH   1  18
TORSDOF 9
ENDMDL
MODEL 3
REMARK VINA RESULT:      -8.4      1.110      1.691
REMARK  Name = 
REMARK  9 active torsions:
REMARK  status: ('A' for Active; 'I' for Inactive)
REMARK    1  A    between atoms: C_2  and  O_3
REMARK    2  A    between atoms: C_2  and  C_4
REMARK    3  A    between atoms: C_4  and  C_5
REMARK    4  A    between atoms: C_4  and  N_12
REMARK    5  A    between atoms: C_5  and  C_6
REMARK    6  A    between atoms: N_12  and  S_13
REMARK    7  A    between atoms: S_13  and  C_16
REMARK    8  A    between atoms: C_19  and  C_20
REMARK    9  A    between atoms: C_21  and  C_22
REMARK                            x       y       z     vdW  Elec       q    Type
REMARK                         _______ _______ _______ _____ _____    ______ ____
ROOT
ATOM      1  S   UNL     1       5.040   3.906  16.769  0.00  0.00    +0.000 S 
ATOM      2  O   UNL     1       5.923   2.930  16.185  0.00  0.00    +0.000 OA
ATOM      3  O   UNL     1       3.897   4.428  16.059  0.00  0.00    +0.000 OA
ENDROOT
BRANCH   1   4
ATOM      4  C   UNL     1       6.017   5.307  17.248  0.00  0.00    +0.000 A 
ATOM      5  C   UNL     1       6.999   5.169  18.231  0.00  0.00    +0.000 A 
ATOM      6  C   UNL     1       7.768   6.277  18.584  0.00  0.00    +0.000 A 
ATOM      7  C   UNL     1       7.549   7.507  17.955  0.00  0.00    +0.000 A 
ATOM      8  C   UNL     1       6.574   7.633  16.963  0.00  0.00    +0.000 A 
ATOM      9  C   UNL     1       5.811   6.526  16.594  0.00  0.00    +0.000 A 
BRANCH   7  10
ATOM     10  C   UNL     1       8.336   8.644  18.319  0.00  0.00    +0.000 C 
ATOM     11  C   UNL     1       8.986   9.597  18.635  0.00  0.00    +0.000 C 
BRANCH  11  12
ATOM     12  C   UNL     1       9.753  10.740  19.021  0.00  0.00    +0.000 A 
ATOM     13  C   UNL     1      10.436  11.483  18.055  0.00  0.00    +0.000 A 
ATOM     14  C   UNL     1      11.193  12.589  18.437  0.00  0.00    +0.000 A 
ATOM     15  C   UNL     1      11.269  12.956  19.783  0.00  0.00    +0.000 A 
ATOM     16  C   UNL     1      10.581  12.217  20.745  0.00  0.00    +0.000 A 
ATOM     17  C   UNL     1       9.821  11.109  20.365  0.00  0.00    +0.000 A 
ENDBRANCH  11  12
ENDBRANCH   7  10
ENDBRANCH   1   4
BRANCH   1  18
ATOM     18  N   UNL     1       4.450   3.347  18.273  0.00  0.00    +0.000 NA
ATOM     19  H   UNL     1       4.230   2.352  18.144  0.00  0.00    +0.000 HD
BRANCH  18  20
ATOM     20  C   UNL     1       3.248   4.037  18.882  0.00  0.00    +0.000 C 
BRANCH  20  22
ATOM     21  O   UNL     1       1.351   2.613  19.476  0.00  0.00    +0.000 OA
ATOM     22  C   UNL     1       2.484   3.001  19.720  0.00  0.00    +0.000 C 
BRANCH  22  23
ATOM     23  O   UNL     1       3.198   2.536  20.779  0.00  0.00    +0.000 OA
ATOM     24  H   UNL     1       2.580   2.236  21.484  0.00  0.00    +0.000 HD
ENDBRANCH  22  23
ENDBRANCH  20  22
BRANCH  20  25
ATOM     25  C   UNL     1       3.552   5.248  19.777  0.00  0.00    +0.000 C 
BRANCH  25  26
ATOM     26  C   UNL     1       2.850   6.533  19.401  0.00  0.00    +0.000 A 
ATOM     27  C   UNL     1       2.925   7.059  18.105  0.00  0.00    +0.000 A 
ATOM     28  C   UNL     1       2.265   8.244  17.779  0.00  0.00    +0.000 A 
ATOM     29  C   UNL     1       1.512   8.910  18.742  0.00  0.00    +0.000 A 
ATOM     30  C   UNL     1       1.420   8.393  20.031  0.00  0.00    +0.000 A 
ATOM     31  C   UNL     1       2.087   7.212  20.361  0.00  0.00    +0.000 A 
ENDBRANCH  25  26
ENDBRANCH  20  25
ENDBRANCH  18  20
ENDBRANCH   1  18
TORSDOF 9
ENDMDL
MODEL 4
REMARK VINA RESULT:      -8.4      1.025      1.476
REMARK  Name = 
REMARK  9 active torsions:
REMARK  status: ('A' for Active; 'I' for Inactive)
REMARK    1  A    between atoms: C_2  and  O_3
REMARK    2  A    between atoms: C_2  and  C_4
REMARK    3  A    between atoms: C_4  and  C_5
REMARK    4  A    between atoms: C_4  and  N_12
REMARK    5  A    between atoms: C_5  and  C_6
REMARK    6  A    between atoms: N_12  and  S_13
REMARK    7  A    between atoms: S_13  and  C_16
REMARK    8  A    between atoms: C_19  and  C_20
REMARK    9  A    between atoms: C_21  and  C_22
REMARK                            x       y       z     vdW  Elec       q    Type
REMARK                         _______ _______ _______ _____ _____    ______ ____
ROOT
ATOM      1  S   UNL     1       4.847   3.955  16.896  0.00  0.00    +0.000 S 
ATOM      2  O   UNL     1       5.715   2.884  16.481  0.00  0.00    +0.000 OA
ATOM      3  O   UNL     1       3.772   4.438  16.064  0.00  0.00    +0.000 OA
ENDROOT
BRANCH   1   4
ATOM      4  C   UNL     1       5.861   5.361  17.274  0.00  0.00    +0.000 A 
ATOM      5  C   UNL     1       5.658   6.569  16.603  0.00  0.00    +0.000 A 
ATOM      6  C   UNL     1       6.454   7.667  16.924  0.00  0.00    +0.000 A 
ATOM      7  C   UNL     1       7.441   7.550  17.907  0.00  0.00    +0.000 A 
ATOM      8  C   UNL     1       7.628   6.342  18.584  0.00  0.00    +0.000 A 
ATOM      9  C   UNL     1       6.827   5.243  18.279  0.00  0.00    +0.000 A 
BRANCH   7  10
ATOM     10  C   UNL     1       8.259   8.676  18.235  0.00  0.00    +0.000 C 
ATOM     11  C   UNL     1       8.952   9.610  18.516  0.00  0.00    +0.000 C 
BRANCH  11  12
ATOM     12  C   UNL     1       9.788  10.717  18.861  0.00  0.00    +0.000 A 
ATOM     13  C   UNL     1       9.941  11.088  20.199  0.00  0.00    +0.000 A 
ATOM     14  C   UNL     1      10.746  12.176  20.531  0.00  0.00    +0.000 A 
ATOM     15  C   UNL     1      11.400  12.895  19.528  0.00  0.00    +0.000 A 
ATOM     16  C   UNL     1      11.251  12.521  18.192  0.00  0.00    +0.000 A 
ATOM     17  C   UNL     1      10.445  11.430  17.857  0.00  0.00    +0.000 A 
ENDBRANCH  11  12
ENDBRANCH   7  10
ENDBRANCH   1   4
BRANCH   1  18
ATOM     18  N   UNL     1       4.149   3.598  18.415  0.00  0.00    +0.000 NA
ATOM     19  H   UNL     1       3.920   2.596  18.398  0.00  0.00    +0.000 HD
BRANCH  18  20
ATOM     20  C   UNL     1       2.921   4.370  18.847  0.00  0.00    +0.000 C 
BRANCH  20  22
ATOM     21  O   UNL     1       0.881   3.693  20.014  0.00  0.00    +0.000 OA
ATOM     22  C   UNL     1       1.952   3.381  19.514  0.00  0.00    +0.000 C 
BRANCH  22  23
ATOM     23  O   UNL     1       2.396   2.097  19.492  0.00  0.00    +0.000 OA
ATOM     24  H   UNL     1       2.592   1.802  20.410  0.00  0.00    +0.000 HD
ENDBRANCH  22  23
ENDBRANCH  20  22
BRANCH  20  25
ATOM     25  C   UNL     1       3.167   5.530  19.823  0.00  0.00    +0.000 C 
BRANCH  25  26
ATOM     26  C   UNL     1       2.530   6.849  19.448  0.00  0.00    +0.000 A 
ATOM     27  C   UNL     1       1.808   7.607  20.378  0.00  0.00    +0.000 A 
ATOM     28  C   UNL     1       1.233   8.824  20.012  0.00  0.00    +0.000 A 
ATOM     29  C   UNL     1       1.385   9.303  18.713  0.00  0.00    +0.000 A 
ATOM     30  C   UNL     1       2.109   8.565  17.781  0.00  0.00    +0.000 A 
ATOM     31  C   UNL     1       2.677   7.343  18.144  0.00  0.00    +0.000 A 
ENDBRANCH  25  26
ENDBRANCH  20  25
ENDBRANCH  18  20
ENDBRANCH   1  18
TORSDOF 9
ENDMDL
MODEL 5
REMARK VINA RESULT:      -8.4      1.354      2.348
REMARK  Name = 
REMARK  9 active torsions:
REMARK  status: ('A' for Active; 'I' for Inactive)
REMARK    1  A    between atoms: C_2  and  O_3
REMARK    2  A    between atoms: C_2  and  C_4
REMARK    3  A    between atoms: C_4  and  C_5
REMARK    4  A    between atoms: C_4  and  N_12
REMARK    5  A    between atoms: C_5  and  C_6
REMARK    6  A    between atoms: N_12  and  S_13
REMARK    7  A    between atoms: S_13  and  C_16
REMARK    8  A    between atoms: C_19  and  C_20
REMARK    9  A    between atoms: C_21  and  C_22
REMARK                            x       y       z     vdW  Elec       q    Type
REMARK                         _______ _______ _______ _____ _____    ______ ____
ROOT
ATOM      1  S   UNL     1       5.441   4.128  16.415  0.00  0.00    +0.000 S 
ATOM      2  O   UNL     1       6.401   3.186  15.901  0.00  0.00    +0.000 OA
ATOM      3  O   UNL     1       4.370   4.652  15.602  0.00  0.00    +0.000 OA
ENDROOT
BRANCH   1   4
ATOM      4  C   UNL     1       6.331   5.529  17.038  0.00  0.00    +0.000 A 
ATOM      5  C   UNL     1       7.400   5.342  17.917  0.00  0.00    +0.000 A 
ATOM      6  C   UNL     1       8.099   6.455  18.384  0.00  0.00    +0.000 A 
ATOM      7  C   UNL     1       7.724   7.737  17.973  0.00  0.00    +0.000 A 
ATOM      8  C   UNL     1       6.662   7.914  17.082  0.00  0.00    +0.000 A 
ATOM      9  C   UNL     1       5.968   6.806  16.599  0.00  0.00    +0.000 A 
BRANCH   7  10
ATOM     10  C   UNL     1       8.439   8.878  18.454  0.00  0.00    +0.000 C 
ATOM     11  C   UNL     1       9.031   9.831  18.870  0.00  0.00    +0.000 C 
BRANCH  11  12
ATOM     12  C   UNL     1       9.729  10.970  19.377  0.00  0.00    +0.000 A 
ATOM     13  C   UNL     1       9.513  11.395  20.690  0.00  0.00    +0.000 A 
ATOM     14  C   UNL     1      10.185  12.514  21.178  0.00  0.00    +0.000 A 
ATOM     15  C   UNL     1      11.075  13.211  20.356  0.00  0.00    +0.000 A 
ATOM     16  C   UNL     1      11.294  12.782  19.047  0.00  0.00    +0.000 A 
ATOM     17  C   UNL     1      10.622  11.661  18.556  0.00  0.00    +0.000 A 
ENDBRANCH  11  12
ENDBRANCH   7  10
ENDBRANCH   1   4
BRANCH   1  18
ATOM     18  N   UNL     1       4.705   3.511  17.829  0.00  0.00    +0.000 NA
ATOM     19  H   UNL     1       5.379   2.854  18.241  0.00  0.00    +0.000 HD
BRANCH  18  20
ATOM     20  C   UNL     1       3.364   2.819  17.706  0.00  0.00    +0.000 C 
BRANCH  20  22
ATOM     21  O   UNL     1       3.924   1.930  19.914  0.00  0.00    +0.000 OA
ATOM     22  C   UNL     1       3.164   1.950  18.957  0.00  0.00    +0.000 C 
BRANCH  22  23
ATOM     23  O   UNL     1       2.036   1.194  18.910  0.00  0.00    +0.000 OA
ATOM     24  H   UNL     1       2.281   0.242  18.870  0.00  0.00    +0.000 HD
ENDBRANCH  22  23
ENDBRANCH  20  22
BRANCH  20  25
ATOM     25  C   UNL     1       2.144   3.742  17.564  0.00  0.00    +0.000 C 
BRANCH  25  26
ATOM     26  C   UNL     1       2.130   4.953  18.468  0.00  0.00    +0.000 A 
ATOM     27  C   UNL     1       1.734   4.864  19.809  0.00  0.00    +0.000 A 
ATOM     28  C   UNL     1       1.734   5.994  20.628  0.00  0.00    +0.000 A 
ATOM     29  C   UNL     1       2.141   7.223  20.118  0.00  0.00    +0.000 A 
ATOM     30  C   UNL     1       2.547   7.325  18.790  0.00  0.00    +0.000 A 
ATOM     31  C   UNL     1       2.539   6.197  17.968  0.00  0.00    +0.000 A 
ENDBRANCH  25  26
ENDBRANCH  20  25
ENDBRANCH  18  20
ENDBRANCH   1  18
TORSDOF 9
ENDMDL
MODEL 6
REMARK VINA RESULT:      -8.3      0.921      1.854
REMARK  Name = 
REMARK  9 active torsions:
REMARK  status: ('A' for Active; 'I' for Inactive)
REMARK    1  A    between atoms: C_2  and  O_3
REMARK    2  A    between atoms: C_2  and  C_4
REMARK    3  A    between atoms: C_4  and  C_5
REMARK    4  A    between atoms: C_4  and  N_12
REMARK    5  A    between atoms: C_5  and  C_6
REMARK    6  A    between atoms: N_12  and  S_13
REMARK    7  A    between atoms: S_13  and  C_16
REMARK    8  A    between atoms: C_19  and  C_20
REMARK    9  A    between atoms: C_21  and  C_22
REMARK                            x       y       z     vdW  Elec       q    Type
REMARK                         _______ _______ _______ _____ _____    ______ ____
ROOT
ATOM      1  S   UNL     1       5.140   4.084  16.501  0.00  0.00    +0.000 S 
ATOM      2  O   UNL     1       6.028   2.967  16.310  0.00  0.00    +0.000 OA
ATOM      3  O   UNL     1       4.309   4.594  15.438  0.00  0.00    +0.000 OA
ENDROOT
BRANCH   1   4
ATOM      4  C   UNL     1       6.104   5.453  17.086  0.00  0.00    +0.000 A 
ATOM      5  C   UNL     1       7.105   5.246  18.038  0.00  0.00    +0.000 A 
ATOM      6  C   UNL     1       7.864   6.331  18.474  0.00  0.00    +0.000 A 
ATOM      7  C   UNL     1       7.616   7.608  17.959  0.00  0.00    +0.000 A 
ATOM      8  C   UNL     1       6.623   7.803  16.996  0.00  0.00    +0.000 A 
ATOM      9  C   UNL     1       5.871   6.721  16.544  0.00  0.00    +0.000 A 
BRANCH   7  10
ATOM     10  C   UNL     1       8.393   8.720  18.408  0.00  0.00    +0.000 C 
ATOM     11  C   UNL     1       9.032   9.661  18.782  0.00  0.00    +0.000 C 
BRANCH  11  12
ATOM     12  C   UNL     1       9.785  10.792  19.224  0.00  0.00    +0.000 A 
ATOM     13  C   UNL     1      10.638  11.454  18.337  0.00  0.00    +0.000 A 
ATOM     14  C   UNL     1      11.380  12.549  18.774  0.00  0.00    +0.000 A 
ATOM     15  C   UNL     1      11.272  12.986  20.097  0.00  0.00    +0.000 A 
ATOM     16  C   UNL     1      10.416  12.328  20.980  0.00  0.00    +0.000 A 
ATOM     17  C   UNL     1       9.671  11.231  20.544  0.00  0.00    +0.000 A 
ENDBRANCH  11  12
ENDBRANCH   7  10
ENDBRANCH   1   4
BRANCH   1  18
ATOM     18  N   UNL     1       4.095   3.791  17.822  0.00  0.00    +0.000 NA
ATOM     19  H   UNL     1       3.657   2.878  17.645  0.00  0.00    +0.000 HD
BRANCH  18  20
ATOM     20  C   UNL     1       3.009   4.801  18.125  0.00  0.00    +0.000 C 
BRANCH  20  22
ATOM     21  O   UNL     1       1.484   3.777  19.739  0.00  0.00    +0.000 OA
ATOM     22  C   UNL     1       1.759   4.030  18.575  0.00  0.00    +0.000 C 
BRANCH  22  23
ATOM     23  O   UNL     1       0.961   3.652  17.542  0.00  0.00    +0.000 OA
ATOM     24  H   UNL     1       0.846   4.408  16.923  0.00  0.00    +0.000 HD
ENDBRANCH  22  23
ENDBRANCH  20  22
BRANCH  20  25
ATOM     25  C   UNL     1       3.344   5.842  19.203  0.00  0.00    +0.000 C 
BRANCH  25  26
ATOM     26  C   UNL     1       2.568   7.138  19.127  0.00  0.00    +0.000 A 
ATOM     27  C   UNL     1       1.878   7.647  20.234  0.00  0.00    +0.000 A 
ATOM     28  C   UNL     1       1.173   8.848  20.143  0.00  0.00    +0.000 A 
ATOM     29  C   UNL     1       1.161   9.559  18.946  0.00  0.00    +0.000 A 
ATOM     30  C   UNL     1       1.852   9.070  17.840  0.00  0.00    +0.000 A 
ATOM     31  C   UNL     1       2.549   7.865  17.928  0.00  0.00    +0.000 A 
ENDBRANCH  25  26
ENDBRANCH  20  25
ENDBRANCH  18  20
ENDBRANCH   1  18
TORSDOF 9
ENDMDL
MODEL 7
REMARK VINA RESULT:      -8.3      1.380      2.221
REMARK  Name = 
REMARK  9 active torsions:
REMARK  status: ('A' for Active; 'I' for Inactive)
REMARK    1  A    between atoms: C_2  and  O_3
REMARK    2  A    between atoms: C_2  and  C_4
REMARK    3  A    between atoms: C_4  and  C_5
REMARK    4  A    between atoms: C_4  and  N_12
REMARK    5  A    between atoms: C_5  and  C_6
REMARK    6  A    between atoms: N_12  and  S_13
REMARK    7  A    between atoms: S_13  and  C_16
REMARK    8  A    between atoms: C_19  and  C_20
REMARK    9  A    between atoms: C_21  and  C_22
REMARK                            x       y       z     vdW  Elec       q    Type
REMARK                         _______ _______ _______ _____ _____    ______ ____
ROOT
ATOM      1  S   UNL     1       5.495   4.153  16.332  0.00  0.00    +0.000 S 
ATOM      2  O   UNL     1       6.467   3.206  15.853  0.00  0.00    +0.000 OA
ATOM      3  O   UNL     1       4.435   4.656  15.492  0.00  0.00    +0.000 OA
ENDROOT
BRANCH   1   4
ATOM      4  C   UNL     1       6.370   5.571  16.940  0.00  0.00    +0.000 A 
ATOM      5  C   UNL     1       6.040   6.847  16.479  0.00  0.00    +0.000 A 
ATOM      6  C   UNL     1       6.727   7.951  16.981  0.00  0.00    +0.000 A 
ATOM      7  C   UNL     1       7.736   7.771  17.933  0.00  0.00    +0.000 A 
ATOM      8  C   UNL     1       8.051   6.492  18.399  0.00  0.00    +0.000 A 
ATOM      9  C   UNL     1       7.357   5.385  17.914  0.00  0.00    +0.000 A 
BRANCH   7  10
ATOM     10  C   UNL     1       8.443   8.903  18.445  0.00  0.00    +0.000 C 
ATOM     11  C   UNL     1       9.047   9.845  18.868  0.00  0.00    +0.000 C 
BRANCH  11  12
ATOM     12  C   UNL     1       9.780  10.964  19.371  0.00  0.00    +0.000 A 
ATOM     13  C   UNL     1      10.796  11.537  18.602  0.00  0.00    +0.000 A 
ATOM     14  C   UNL     1      11.518  12.620  19.100  0.00  0.00    +0.000 A 
ATOM     15  C   UNL     1      11.228  13.133  20.367  0.00  0.00    +0.000 A 
ATOM     16  C   UNL     1      10.210  12.563  21.131  0.00  0.00    +0.000 A 
ATOM     17  C   UNL     1       9.484  11.479  20.634  0.00  0.00    +0.000 A 
ENDBRANCH  11  12
ENDBRANCH   7  10
ENDBRANCH   1   4
BRANCH   1  18
ATOM     18  N   UNL     1       4.739   3.563  17.747  0.00  0.00    +0.000 NA
ATOM     19  H   UNL     1       5.426   2.951  18.206  0.00  0.00    +0.000 HD
BRANCH  18  20
ATOM     20  C   UNL     1       3.433   2.811  17.611  0.00  0.00    +0.000 C 
BRANCH  20  22
ATOM     21  O   UNL     1       2.250   1.392  19.214  0.00  0.00    +0.000 OA
ATOM     22  C   UNL     1       3.305   1.864  18.815  0.00  0.00    +0.000 C 
BRANCH  22  23
ATOM     23  O   UNL     1       4.496   1.585  19.406  0.00  0.00    +0.000 OA
ATOM     24  H   UNL     1       4.413   1.702  20.380  0.00  0.00    +0.000 HD
ENDBRANCH  22  23
ENDBRANCH  20  22
BRANCH  20  25
ATOM     25  C   UNL     1       2.165   3.676  17.545  0.00  0.00    +0.000 C 
BRANCH  25  26
ATOM     26  C   UNL     1       2.156   4.895  18.440  0.00  0.00    +0.000 A 
ATOM     27  C   UNL     1       1.827   4.806  19.798  0.00  0.00    +0.000 A 
ATOM     28  C   UNL     1       1.831   5.943  20.607  0.00  0.00    +0.000 A 
ATOM     29  C   UNL     1       2.176   7.180  20.069  0.00  0.00    +0.000 A 
ATOM     30  C   UNL     1       2.515   7.280  18.722  0.00  0.00    +0.000 A 
ATOM     31  C   UNL     1       2.503   6.145  17.911  0.00  0.00    +0.000 A 
ENDBRANCH  25  26
ENDBRANCH  20  25
ENDBRANCH  18  20
ENDBRANCH   1  18
TORSDOF 9
ENDMDL
MODEL 8
REMARK VINA RESULT:      -8.3      0.869      1.452
REMARK  Name = 
REMARK  9 active torsions:
REMARK  status: ('A' for Active; 'I' for Inactive)
REMARK    1  A    between atoms: C_2  and  O_3
REMARK    2  A    between atoms: C_2  and  C_4
REMARK    3  A    between atoms: C_4  and  C_5
REMARK    4  A    between atoms: C_4  and  N_12
REMARK    5  A    between atoms: C_5  and  C_6
REMARK    6  A    between atoms: N_12  and  S_13
REMARK    7  A    between atoms: S_13  and  C_16
REMARK    8  A    between atoms: C_19  and  C_20
REMARK    9  A    between atoms: C_21  and  C_22
REMARK                            x       y       z     vdW  Elec       q    Type
REMARK                         _______ _______ _______ _____ _____    ______ ____
ROOT
ATOM      1  S   UNL     1       4.864   3.968  16.832  0.00  0.00    +0.000 S 
ATOM      2  O   UNL     1       5.732   2.854  16.550  0.00  0.00    +0.000 OA
ATOM      3  O   UNL     1       3.906   4.457  15.871  0.00  0.00    +0.000 OA
ENDROOT
BRANCH   1   4
ATOM      4  C   UNL     1       5.881   5.351  17.278  0.00  0.00    +0.000 A 
ATOM      5  C   UNL     1       6.881   5.201  18.239  0.00  0.00    +0.000 A 
ATOM      6  C   UNL     1       7.681   6.295  18.565  0.00  0.00    +0.000 A 
ATOM      7  C   UNL     1       7.474   7.525  17.931  0.00  0.00    +0.000 A 
ATOM      8  C   UNL     1       6.480   7.662  16.960  0.00  0.00    +0.000 A 
ATOM      9  C   UNL     1       5.686   6.569  16.618  0.00  0.00    +0.000 A 
BRANCH   7  10
ATOM     10  C   UNL     1       8.293   8.647  18.267  0.00  0.00    +0.000 C 
ATOM     11  C   UNL     1       8.968   9.596  18.545  0.00  0.00    +0.000 C 
BRANCH  11  12
ATOM     12  C   UNL     1       9.764  10.737  18.869  0.00  0.00    +0.000 A 
ATOM     13  C   UNL     1      10.011  11.061  20.205  0.00  0.00    +0.000 A 
ATOM     14  C   UNL     1      10.777  12.182  20.518  0.00  0.00    +0.000 A 
ATOM     15  C   UNL     1      11.299  12.982  19.498  0.00  0.00    +0.000 A 
ATOM     16  C   UNL     1      11.056  12.654  18.164  0.00  0.00    +0.000 A 
ATOM     17  C   UNL     1      10.289  11.531  17.848  0.00  0.00    +0.000 A 
ENDBRANCH  11  12
ENDBRANCH   7  10
ENDBRANCH   1   4
BRANCH   1  18
ATOM     18  N   UNL     1       3.989   3.686  18.274  0.00  0.00    +0.000 NA
ATOM     19  H   UNL     1       3.672   2.709  18.232  0.00  0.00    +0.000 HD
BRANCH  18  20
ATOM     20  C   UNL     1       2.801   4.570  18.585  0.00  0.00    +0.000 C 
BRANCH  20  22
ATOM     21  O   UNL     1       1.230   3.625  20.203  0.00  0.00    +0.000 OA
ATOM     22  C   UNL     1       1.651   3.667  19.056  0.00  0.00    +0.000 C 
BRANCH  22  23
ATOM     23  O   UNL     1       1.123   2.907  18.061  0.00  0.00    +0.000 OA
ATOM     24  H   UNL     1       0.281   2.501  18.370  0.00  0.00    +0.000 HD
ENDBRANCH  22  23
ENDBRANCH  20  22
BRANCH  20  25
ATOM     25  C   UNL     1       3.030   5.650  19.653  0.00  0.00    +0.000 C 
BRANCH  25  26
ATOM     26  C   UNL     1       2.441   7.009  19.348  0.00  0.00    +0.000 A 
ATOM     27  C   UNL     1       2.566   7.596  18.083  0.00  0.00    +0.000 A 
ATOM     28  C   UNL     1       2.009   8.849  17.822  0.00  0.00    +0.000 A 
ATOM     29  C   UNL     1       1.311   9.523  18.820  0.00  0.00    +0.000 A 
ATOM     30  C   UNL     1       1.170   8.946  20.079  0.00  0.00    +0.000 A 
ATOM     31  C   UNL     1       1.734   7.697  20.344  0.00  0.00    +0.000 A 
ENDBRANCH  25  26
ENDBRANCH  20  25
ENDBRANCH  18  20
ENDBRANCH   1  18
TORSDOF 9
ENDMDL
MODEL 9
REMARK VINA RESULT:      -8.3      0.250      1.420
REMARK  Name = 
REMARK  9 active torsions:
REMARK  status: ('A' for Active; 'I' for Inactive)
REMARK    1  A    between atoms: C_2  and  O_3
REMARK    2  A    between atoms: C_2  and  C_4
REMARK    3  A    between atoms: C_4  and  C_5
REMARK    4  A    between atoms: C_4  and  N_12
REMARK    5  A    between atoms: C_5  and  C_6
REMARK    6  A    between atoms: N_12  and  S_13
REMARK    7  A    between atoms: S_13  and  C_16
REMARK    8  A    between atoms: C_19  and  C_20
REMARK    9  A    between atoms: C_21  and  C_22
REMARK                            x       y       z     vdW  Elec       q    Type
REMARK                         _______ _______ _______ _____ _____    ______ ____
ROOT
ATOM      1  S   UNL     1       5.240   4.219  17.515  0.00  0.00    +0.000 S 
ATOM      2  O   UNL     1       5.027   3.619  18.807  0.00  0.00    +0.000 OA
ATOM      3  O   UNL     1       5.840   3.495  16.422  0.00  0.00    +0.000 OA
ENDROOT
BRANCH   1   4
ATOM      4  C   UNL     1       6.218   5.680  17.748  0.00  0.00    +0.000 A 
ATOM      5  C   UNL     1       7.301   5.662  18.630  0.00  0.00    +0.000 A 
ATOM      6  C   UNL     1       8.068   6.815  18.788  0.00  0.00    +0.000 A 
ATOM      7  C   UNL     1       7.748   7.971  18.069  0.00  0.00    +0.000 A 
ATOM      8  C   UNL     1       6.671   7.976  17.179  0.00  0.00    +0.000 A 
ATOM      9  C   UNL     1       5.909   6.823  17.004  0.00  0.00    +0.000 A 
BRANCH   7  10
ATOM     10  C   UNL     1       8.534   9.154  18.234  0.00  0.00    +0.000 C 
ATOM     11  C   UNL     1       9.202  10.136  18.377  0.00  0.00    +0.000 C 
BRANCH  11  12
ATOM     12  C   UNL     1      10.009  11.301  18.556  0.00  0.00    +0.000 A 
ATOM     13  C   UNL     1      11.029  11.306  19.510  0.00  0.00    +0.000 A 
ATOM     14  C   UNL     1      11.806  12.449  19.691  0.00  0.00    +0.000 A 
ATOM     15  C   UNL     1      11.567  13.589  18.919  0.00  0.00    +0.000 A 
ATOM     16  C   UNL     1      10.552  13.581  17.963  0.00  0.00    +0.000 A 
ATOM     17  C   UNL     1       9.773  12.437  17.779  0.00  0.00    +0.000 A 
ENDBRANCH  11  12
ENDBRANCH   7  10
ENDBRANCH   1   4
BRANCH   1  18
ATOM     18  N   UNL     1       3.774   4.861  16.912  0.00  0.00    +0.000 NA
ATOM     19  H   UNL     1       4.024   5.716  16.399  0.00  0.00    +0.000 HD
BRANCH  18  20
ATOM     20  C   UNL     1       2.668   5.187  17.893  0.00  0.00    +0.000 C 
BRANCH  20  22
ATOM     21  O   UNL     1       1.880   3.709  19.674  0.00  0.00    +0.000 OA
ATOM     22  C   UNL     1       2.167   3.866  18.496  0.00  0.00    +0.000 C 
BRANCH  22  23
ATOM     23  O   UNL     1       2.060   2.866  17.582  0.00  0.00    +0.000 OA
ATOM     24  H   UNL     1       2.959   2.555  17.331  0.00  0.00    +0.000 HD
ENDBRANCH  22  23
ENDBRANCH  20  22
BRANCH  20  25
ATOM     25  C   UNL     1       3.051   6.126  19.047  0.00  0.00    +0.000 C 
BRANCH  25  26
ATOM     26  C   UNL     1       2.361   7.471  19.053  0.00  0.00    +0.000 A 
ATOM     27  C   UNL     1       1.678   7.941  20.182  0.00  0.00    +0.000 A 
ATOM     28  C   UNL     1       1.053   9.189  20.168  0.00  0.00    +0.000 A 
ATOM     29  C   UNL     1       1.115   9.986  19.029  0.00  0.00    +0.000 A 
ATOM     30  C   UNL     1       1.800   9.536  17.903  0.00  0.00    +0.000 A 
ATOM     31  C   UNL     1       2.418   8.285  17.913  0.00  0.00    +0.000 A 
ENDBRANCH  25  26
ENDBRANCH  20  25
ENDBRANCH  18  20
ENDBRANCH   1  18
TORSDOF 9
ENDMDL
