MODEL 1
REMARK VINA RESULT:      -9.5      0.000      0.000
REMARK  Name = 
REMARK  4 active torsions:
REMARK  status: ('A' for Active; 'I' for Inactive)
REMARK    1  A    between atoms: C_1  and  N_2
REMARK    2  A    between atoms: N_5  and  C_6
REMARK    3  A    between atoms: C_6  and  C_7
REMARK    4  A    between atoms: N_9  and  C_10
REMARK                            x       y       z     vdW  Elec       q    Type
REMARK                         _______ _______ _______ _____ _____    ______ ____
ROOT
ATOM      1  C   UNL     1      -1.228  11.617  22.634  0.00  0.00    +0.000 A 
ATOM      2  C   UNL     1      -1.157  10.365  23.272  0.00  0.00    +0.000 A 
ATOM      3  C   UNL     1      -0.215   9.413  22.920  0.00  0.00    +0.000 A 
ATOM      4  C   UNL     1       0.577   9.586  21.804  0.00  0.00    +0.000 A 
ATOM      5  N   UNL     1       1.365   8.502  21.426  0.00  0.00    +0.000 NA
ATOM      6  C   UNL     1       1.674   8.423  20.179  0.00  0.00    +0.000 A 
ATOM      7  C   UNL     1       2.279   7.211  19.711  0.00  0.00    +0.000 A 
ATOM      8  N   UNL     1       2.679   6.148  20.463  0.00  0.00    +0.000 N 
ATOM      9  C   UNL     1       3.201   5.170  19.650  0.00  0.00    +0.000 A 
ATOM     10  C   UNL     1       3.763   3.936  20.007  0.00  0.00    +0.000 A 
ATOM     11  C   UNL     1       4.224   3.113  18.978  0.00  0.00    +0.000 A 
ATOM     12  C   UNL     1       4.108   3.504  17.648  0.00  0.00    +0.000 A 
ATOM     13  C   UNL     1       3.542   4.745  17.305  0.00  0.00    +0.000 A 
ATOM     14  C   UNL     1       3.084   5.612  18.325  0.00  0.00    +0.000 A 
ATOM     15  C   UNL     1       2.507   6.916  18.392  0.00  0.00    +0.000 A 
ATOM     16  C   UNL     1       2.149   7.923  17.445  0.00  0.00    +0.000 A 
ATOM     17  C   UNL     1       1.649   9.114  17.865  0.00  0.00    +0.000 A 
ATOM     18  N   UNL     1       1.418   9.406  19.226  0.00  0.00    +0.000 N 
ATOM     19  C   UNL     1       0.939  10.665  19.641  0.00  0.00    +0.000 A 
ATOM     20  O   UNL     1       0.855  11.657  18.913  0.00  0.00    +0.000 OA
ATOM     21  C   UNL     1       0.430  10.747  21.046  0.00  0.00    +0.000 A 
ATOM     22  C   UNL     1      -0.374  11.821  21.526  0.00  0.00    +0.000 A 
ATOM     23  H   UNL     1       2.605   6.098  21.472  0.00  0.00    +0.000 HD
ENDROOT
BRANCH   1  26
ATOM     24  C   UNL     1      -1.808  13.881  23.546  0.00  0.00    +0.000 C 
ATOM     25  O   UNL     1      -0.646  14.273  23.716  0.00  0.00    +0.000 OA
ATOM     26  N   UNL     1      -2.159  12.615  23.072  0.00  0.00    +0.000 N 
ATOM     27  H   UNL     1      -3.149  12.372  23.125  0.00  0.00    +0.000 HD
BRANCH  24  28
ATOM     28  C   UNL     1      -2.924  14.896  23.838  0.00  0.00    +0.000 C 
BRANCH  28  33
ATOM     29  C   UNL     1      -7.895  14.228  24.112  0.00  0.00    +0.000 C 
ATOM     30  N   UNL     1      -6.743  14.664  23.328  0.00  0.00    +0.000 NA
ATOM     31  C   UNL     1      -5.807  13.553  23.081  0.00  0.00    +0.000 C 
ATOM     32  C   UNL     1      -4.580  13.998  22.240  0.00  0.00    +0.000 C 
ATOM     33  N   UNL     1      -3.825  15.187  22.708  0.00  0.00    +0.000 NA
ATOM     34  C   UNL     1      -4.811  16.233  23.111  0.00  0.00    +0.000 C 
ATOM     35  C   UNL     1      -6.019  15.767  23.973  0.00  0.00    +0.000 C 
ENDBRANCH  28  33
ENDBRANCH  24  28
ENDBRANCH   1  26
TORSDOF 3
ENDMDL
MODEL 2
REMARK VINA RESULT:      -9.5      1.379      1.800
REMARK  Name = 
REMARK  4 active torsions:
REMARK  status: ('A' for Active; 'I' for Inactive)
REMARK    1  A    between atoms: C_1  and  N_2
REMARK    2  A    between atoms: N_5  and  C_6
REMARK    3  A    between atoms: C_6  and  C_7
REMARK    4  A    between atoms: N_9  and  C_10
REMARK                            x       y       z     vdW  Elec       q    Type
REMARK                         _______ _______ _______ _____ _____    ______ ____
ROOT
ATOM      1  C   UNL     1      -0.950  11.987  22.336  0.00  0.00    +0.000 A 
ATOM      2  C   UNL     1      -1.149  10.777  23.026  0.00  0.00    +0.000 A 
ATOM      3  C   UNL     1      -0.348   9.668  22.810  0.00  0.00    +0.000 A 
ATOM      4  C   UNL     1       0.565   9.650  21.777  0.00  0.00    +0.000 A 
ATOM      5  N   UNL     1       1.196   8.434  21.525  0.00  0.00    +0.000 NA
ATOM      6  C   UNL     1       1.607   8.239  20.321  0.00  0.00    +0.000 A 
ATOM      7  C   UNL     1       2.045   6.921  19.966  0.00  0.00    +0.000 A 
ATOM      8  N   UNL     1       2.189   5.851  20.795  0.00  0.00    +0.000 N 
ATOM      9  C   UNL     1       2.618   4.759  20.079  0.00  0.00    +0.000 A 
ATOM     10  C   UNL     1       2.930   3.472  20.538  0.00  0.00    +0.000 A 
ATOM     11  C   UNL     1       3.346   2.530  19.595  0.00  0.00    +0.000 A 
ATOM     12  C   UNL     1       3.426   2.862  18.246  0.00  0.00    +0.000 A 
ATOM     13  C   UNL     1       3.109   4.157  17.800  0.00  0.00    +0.000 A 
ATOM     14  C   UNL     1       2.705   5.141  18.733  0.00  0.00    +0.000 A 
ATOM     15  C   UNL     1       2.348   6.522  18.689  0.00  0.00    +0.000 A 
ATOM     16  C   UNL     1       2.255   7.521  17.672  0.00  0.00    +0.000 A 
ATOM     17  C   UNL     1       1.921   8.798  17.993  0.00  0.00    +0.000 A 
ATOM     18  N   UNL     1       1.611   9.196  19.310  0.00  0.00    +0.000 N 
ATOM     19  C   UNL     1       1.310  10.537  19.625  0.00  0.00    +0.000 A 
ATOM     20  O   UNL     1       1.461  11.488  18.854  0.00  0.00    +0.000 OA
ATOM     21  C   UNL     1       0.687  10.776  20.965  0.00  0.00    +0.000 A 
ATOM     22  C   UNL     1       0.030  11.991  21.316  0.00  0.00    +0.000 A 
ATOM     23  H   UNL     1       2.010   5.869  21.791  0.00  0.00    +0.000 HD
ENDROOT
BRANCH   1  26
ATOM     24  C   UNL     1      -2.903  13.516  21.956  0.00  0.00    +0.000 C 
ATOM     25  O   UNL     1      -3.355  12.932  20.963  0.00  0.00    +0.000 OA
ATOM     26  N   UNL     1      -1.741  13.145  22.636  0.00  0.00    +0.000 N 
ATOM     27  H   UNL     1      -1.401  13.801  23.341  0.00  0.00    +0.000 HD
BRANCH  24  28
ATOM     28  C   UNL     1      -3.724  14.700  22.489  0.00  0.00    +0.000 C 
BRANCH  28  33
ATOM     29  C   UNL     1      -5.158  18.582  25.336  0.00  0.00    +0.000 C 
ATOM     30  N   UNL     1      -5.032  17.136  25.183  0.00  0.00    +0.000 NA
ATOM     31  C   UNL     1      -3.622  16.728  25.052  0.00  0.00    +0.000 C 
ATOM     32  C   UNL     1      -3.471  15.191  24.897  0.00  0.00    +0.000 C 
ATOM     33  N   UNL     1      -4.278  14.526  23.845  0.00  0.00    +0.000 NA
ATOM     34  C   UNL     1      -5.660  15.088  23.896  0.00  0.00    +0.000 C 
ATOM     35  C   UNL     1      -5.786  16.633  24.027  0.00  0.00    +0.000 C 
ENDBRANCH  28  33
ENDBRANCH  24  28
ENDBRANCH   1  26
TORSDOF 3
ENDMDL
MODEL 3
REMARK VINA RESULT:      -9.4      0.873      1.251
REMARK  Name = 
REMARK  4 active torsions:
REMARK  status: ('A' for Active; 'I' for Inactive)
REMARK    1  A    between atoms: C_1  and  N_2
REMARK    2  A    between atoms: N_5  and  C_6
REMARK    3  A    between atoms: C_6  and  C_7
REMARK    4  A    between atoms: N_9  and  C_10
REMARK                            x       y       z     vdW  Elec       q    Type
REMARK                         _______ _______ _______ _____ _____    ______ ____
ROOT
ATOM      1  C   UNL     1      -1.227  11.748  22.629  0.00  0.00    +0.000 A 
ATOM      2  C   UNL     1      -1.245  10.488  23.256  0.00  0.00    +0.000 A 
ATOM      3  C   UNL     1      -0.337   9.494  22.933  0.00  0.00    +0.000 A 
ATOM      4  C   UNL     1       0.509   9.637  21.854  0.00  0.00    +0.000 A 
ATOM      5  N   UNL     1       1.258   8.519  21.498  0.00  0.00    +0.000 NA
ATOM      6  C   UNL     1       1.615   8.436  20.263  0.00  0.00    +0.000 A 
ATOM      7  C   UNL     1       2.179   7.199  19.809  0.00  0.00    +0.000 A 
ATOM      8  N   UNL     1       2.494   6.112  20.564  0.00  0.00    +0.000 N 
ATOM      9  C   UNL     1       3.001   5.116  19.764  0.00  0.00    +0.000 A 
ATOM     10  C   UNL     1       3.486   3.853  20.130  0.00  0.00    +0.000 A 
ATOM     11  C   UNL     1       3.949   3.017  19.112  0.00  0.00    +0.000 A 
ATOM     12  C   UNL     1       3.910   3.425  17.782  0.00  0.00    +0.000 A 
ATOM     13  C   UNL     1       3.421   4.696  17.430  0.00  0.00    +0.000 A 
ATOM     14  C   UNL     1       2.963   5.575  18.439  0.00  0.00    +0.000 A 
ATOM     15  C   UNL     1       2.448   6.906  18.497  0.00  0.00    +0.000 A 
ATOM     16  C   UNL     1       2.182   7.938  17.546  0.00  0.00    +0.000 A 
ATOM     17  C   UNL     1       1.724   9.149  17.959  0.00  0.00    +0.000 A 
ATOM     18  N   UNL     1       1.450   9.439  19.312  0.00  0.00    +0.000 N 
ATOM     19  C   UNL     1       1.016  10.717  19.720  0.00  0.00    +0.000 A 
ATOM     20  O   UNL     1       1.012  11.718  19.000  0.00  0.00    +0.000 OA
ATOM     21  C   UNL     1       0.452  10.811  21.104  0.00  0.00    +0.000 A 
ATOM     22  C   UNL     1      -0.317  11.920  21.561  0.00  0.00    +0.000 A 
ATOM     23  H   UNL     1       2.375   6.056  21.569  0.00  0.00    +0.000 HD
ENDROOT
BRANCH   1  26
ATOM     24  C   UNL     1      -1.739  13.983  23.649  0.00  0.00    +0.000 C 
ATOM     25  O   UNL     1      -0.579  14.263  23.978  0.00  0.00    +0.000 OA
ATOM     26  N   UNL     1      -2.126  12.787  23.039  0.00  0.00    +0.000 N 
ATOM     27  H   UNL     1      -3.130  12.625  22.962  0.00  0.00    +0.000 HD
BRANCH  24  28
ATOM     28  C   UNL     1      -2.802  15.065  23.894  0.00  0.00    +0.000 C 
BRANCH  28  33
ATOM     29  C   UNL     1      -6.373  18.595  24.022  0.00  0.00    +0.000 C 
ATOM     30  N   UNL     1      -5.768  17.467  23.320  0.00  0.00    +0.000 NA
ATOM     31  C   UNL     1      -5.849  16.229  24.116  0.00  0.00    +0.000 C 
ATOM     32  C   UNL     1      -5.217  15.018  23.378  0.00  0.00    +0.000 C 
ATOM     33  N   UNL     1      -3.839  15.179  22.852  0.00  0.00    +0.000 NA
ATOM     34  C   UNL     1      -3.745  16.519  22.200  0.00  0.00    +0.000 C 
ATOM     35  C   UNL     1      -4.365  17.721  22.970  0.00  0.00    +0.000 C 
ENDBRANCH  28  33
ENDBRANCH  24  28
ENDBRANCH   1  26
TORSDOF 3
ENDMDL
MODEL 4
REMARK VINA RESULT:      -9.4      1.282      2.044
REMARK  Name = 
REMARK  4 active torsions:
REMARK  status: ('A' for Active; 'I' for Inactive)
REMARK    1  A    between atoms: C_1  and  N_2
REMARK    2  A    between atoms: N_5  and  C_6
REMARK    3  A    between atoms: C_6  and  C_7
REMARK    4  A    between atoms: N_9  and  C_10
REMARK                            x       y       z     vdW  Elec       q    Type
REMARK                         _______ _______ _______ _____ _____    ______ ____
ROOT
ATOM      1  C   UNL     1      -1.108  11.651  22.722  0.00  0.00    +0.000 A 
ATOM      2  C   UNL     1      -1.121  10.377  23.320  0.00  0.00    +0.000 A 
ATOM      3  C   UNL     1      -0.223   9.387  22.958  0.00  0.00    +0.000 A 
ATOM      4  C   UNL     1       0.606   9.553  21.869  0.00  0.00    +0.000 A 
ATOM      5  N   UNL     1       1.344   8.440  21.474  0.00  0.00    +0.000 NA
ATOM      6  C   UNL     1       1.681   8.385  20.232  0.00  0.00    +0.000 A 
ATOM      7  C   UNL     1       2.233   7.158  19.739  0.00  0.00    +0.000 A 
ATOM      8  N   UNL     1       2.555   6.051  20.464  0.00  0.00    +0.000 N 
ATOM      9  C   UNL     1       3.044   5.073  19.632  0.00  0.00    +0.000 A 
ATOM     10  C   UNL     1       3.530   3.799  19.960  0.00  0.00    +0.000 A 
ATOM     11  C   UNL     1       3.973   2.986  18.915  0.00  0.00    +0.000 A 
ATOM     12  C   UNL     1       3.914   3.426  17.597  0.00  0.00    +0.000 A 
ATOM     13  C   UNL     1       3.424   4.706  17.283  0.00  0.00    +0.000 A 
ATOM     14  C   UNL     1       2.987   5.563  18.320  0.00  0.00    +0.000 A 
ATOM     15  C   UNL     1       2.479   6.894  18.417  0.00  0.00    +0.000 A 
ATOM     16  C   UNL     1       2.201   7.949  17.495  0.00  0.00    +0.000 A 
ATOM     17  C   UNL     1       1.755   9.152  17.944  0.00  0.00    +0.000 A 
ATOM     18  N   UNL     1       1.504   9.411  19.307  0.00  0.00    +0.000 N 
ATOM     19  C   UNL     1       1.083  10.680  19.753  0.00  0.00    +0.000 A 
ATOM     20  O   UNL     1       1.071  11.698  19.057  0.00  0.00    +0.000 OA
ATOM     21  C   UNL     1       0.542  10.744  21.147  0.00  0.00    +0.000 A 
ATOM     22  C   UNL     1      -0.215  11.845  21.643  0.00  0.00    +0.000 A 
ATOM     23  H   UNL     1       2.452   5.972  21.469  0.00  0.00    +0.000 HD
ENDROOT
BRANCH   1  26
ATOM     24  C   UNL     1      -3.181  13.053  22.530  0.00  0.00    +0.000 C 
ATOM     25  O   UNL     1      -3.576  12.583  21.455  0.00  0.00    +0.000 OA
ATOM     26  N   UNL     1      -1.996  12.684  23.171  0.00  0.00    +0.000 N 
ATOM     27  H   UNL     1      -1.717  13.257  23.968  0.00  0.00    +0.000 HD
BRANCH  24  28
ATOM     28  C   UNL     1      -4.103  14.075  23.212  0.00  0.00    +0.000 C 
BRANCH  28  33
ATOM     29  C   UNL     1      -2.475  18.229  25.520  0.00  0.00    +0.000 C 
ATOM     30  N   UNL     1      -3.041  17.617  24.321  0.00  0.00    +0.000 NA
ATOM     31  C   UNL     1      -4.366  17.029  24.589  0.00  0.00    +0.000 C 
ATOM     32  C   UNL     1      -4.984  16.381  23.322  0.00  0.00    +0.000 C 
ATOM     33  N   UNL     1      -4.151  15.405  22.576  0.00  0.00    +0.000 NA
ATOM     34  C   UNL     1      -2.769  15.959  22.471  0.00  0.00    +0.000 C 
ATOM     35  C   UNL     1      -2.161  16.582  23.761  0.00  0.00    +0.000 C 
ENDBRANCH  28  33
ENDBRANCH  24  28
ENDBRANCH   1  26
TORSDOF 3
ENDMDL
MODEL 5
REMARK VINA RESULT:      -9.4      1.285      1.438
REMARK  Name = 
REMARK  4 active torsions:
REMARK  status: ('A' for Active; 'I' for Inactive)
REMARK    1  A    between atoms: C_1  and  N_2
REMARK    2  A    between atoms: N_5  and  C_6
REMARK    3  A    between atoms: C_6  and  C_7
REMARK    4  A    between atoms: N_9  and  C_10
REMARK                            x       y       z     vdW  Elec       q    Type
REMARK                         _______ _______ _______ _____ _____    ______ ____
ROOT
ATOM      1  C   UNL     1      -1.228  11.742  22.708  0.00  0.00    +0.000 A 
ATOM      2  C   UNL     1      -1.237  10.467  23.302  0.00  0.00    +0.000 A 
ATOM      3  C   UNL     1      -0.324   9.486  22.952  0.00  0.00    +0.000 A 
ATOM      4  C   UNL     1       0.519   9.662  21.875  0.00  0.00    +0.000 A 
ATOM      5  N   UNL     1       1.274   8.558  21.489  0.00  0.00    +0.000 NA
ATOM      6  C   UNL     1       1.630   8.509  20.253  0.00  0.00    +0.000 A 
ATOM      7  C   UNL     1       2.201   7.288  19.765  0.00  0.00    +0.000 A 
ATOM      8  N   UNL     1       2.522   6.183  20.492  0.00  0.00    +0.000 N 
ATOM      9  C   UNL     1       3.034   5.211  19.665  0.00  0.00    +0.000 A 
ATOM     10  C   UNL     1       3.526   3.942  19.997  0.00  0.00    +0.000 A 
ATOM     11  C   UNL     1       3.993   3.135  18.957  0.00  0.00    +0.000 A 
ATOM     12  C   UNL     1       3.949   3.578  17.639  0.00  0.00    +0.000 A 
ATOM     13  C   UNL     1       3.453   4.855  17.321  0.00  0.00    +0.000 A 
ATOM     14  C   UNL     1       2.991   5.705  18.353  0.00  0.00    +0.000 A 
ATOM     15  C   UNL     1       2.469   7.030  18.446  0.00  0.00    +0.000 A 
ATOM     16  C   UNL     1       2.196   8.085  17.523  0.00  0.00    +0.000 A 
ATOM     17  C   UNL     1       1.731   9.282  17.967  0.00  0.00    +0.000 A 
ATOM     18  N   UNL     1       1.458   9.536  19.328  0.00  0.00    +0.000 N 
ATOM     19  C   UNL     1       1.017  10.800  19.770  0.00  0.00    +0.000 A 
ATOM     20  O   UNL     1       1.006  11.820  19.077  0.00  0.00    +0.000 OA
ATOM     21  C   UNL     1       0.455  10.855  21.156  0.00  0.00    +0.000 A 
ATOM     22  C   UNL     1      -0.320  11.947  21.643  0.00  0.00    +0.000 A 
ATOM     23  H   UNL     1       2.405   6.101  21.494  0.00  0.00    +0.000 HD
ENDROOT
BRANCH   1  26
ATOM     24  C   UNL     1      -3.455  12.897  22.721  0.00  0.00    +0.000 C 
ATOM     25  O   UNL     1      -3.992  12.189  21.858  0.00  0.00    +0.000 OA
ATOM     26  N   UNL     1      -2.132  12.765  23.146  0.00  0.00    +0.000 N 
ATOM     27  H   UNL     1      -1.776  13.508  23.749  0.00  0.00    +0.000 HD
BRANCH  24  28
ATOM     28  C   UNL     1      -4.346  13.954  23.391  0.00  0.00    +0.000 C 
BRANCH  28  33
ATOM     29  C   UNL     1      -7.508  17.023  20.981  0.00  0.00    +0.000 C 
ATOM     30  N   UNL     1      -6.220  16.840  21.643  0.00  0.00    +0.000 NA
ATOM     31  C   UNL     1      -5.387  15.849  20.939  0.00  0.00    +0.000 C 
ATOM     32  C   UNL     1      -4.010  15.650  21.627  0.00  0.00    +0.000 C 
ATOM     33  N   UNL     1      -4.006  15.355  23.081  0.00  0.00    +0.000 NA
ATOM     34  C   UNL     1      -4.989  16.265  23.740  0.00  0.00    +0.000 C 
ATOM     35  C   UNL     1      -6.372  16.429  23.045  0.00  0.00    +0.000 C 
ENDBRANCH  28  33
ENDBRANCH  24  28
ENDBRANCH   1  26
TORSDOF 3
ENDMDL
MODEL 6
REMARK VINA RESULT:      -9.4      0.760      1.143
REMARK  Name = 
REMARK  4 active torsions:
REMARK  status: ('A' for Active; 'I' for Inactive)
REMARK    1  A    between atoms: C_1  and  N_2
REMARK    2  A    between atoms: N_5  and  C_6
REMARK    3  A    between atoms: C_6  and  C_7
REMARK    4  A    between atoms: N_9  and  C_10
REMARK                            x       y       z     vdW  Elec       q    Type
REMARK                         _______ _______ _______ _____ _____    ______ ____
ROOT
ATOM      1  C   UNL     1      -1.081  11.814  22.262  0.00  0.00    +0.000 A 
ATOM      2  C   UNL     1      -1.167  10.607  22.981  0.00  0.00    +0.000 A 
ATOM      3  C   UNL     1      -0.300   9.552  22.753  0.00  0.00    +0.000 A 
ATOM      4  C   UNL     1       0.572   9.577  21.685  0.00  0.00    +0.000 A 
ATOM      5  N   UNL     1       1.276   8.403  21.430  0.00  0.00    +0.000 NA
ATOM      6  C   UNL     1       1.653   8.211  20.213  0.00  0.00    +0.000 A 
ATOM      7  C   UNL     1       2.169   6.921  19.864  0.00  0.00    +0.000 A 
ATOM      8  N   UNL     1       2.419   5.880  20.706  0.00  0.00    +0.000 N 
ATOM      9  C   UNL     1       2.896   4.806  19.993  0.00  0.00    +0.000 A 
ATOM     10  C   UNL     1       3.316   3.553  20.463  0.00  0.00    +0.000 A 
ATOM     11  C   UNL     1       3.759   2.624  19.521  0.00  0.00    +0.000 A 
ATOM     12  C   UNL     1       3.764   2.932  18.164  0.00  0.00    +0.000 A 
ATOM     13  C   UNL     1       3.340   4.193  17.707  0.00  0.00    +0.000 A 
ATOM     14  C   UNL     1       2.903   5.165  18.638  0.00  0.00    +0.000 A 
ATOM     15  C   UNL     1       2.449   6.517  18.584  0.00  0.00    +0.000 A 
ATOM     16  C   UNL     1       2.247   7.486  17.554  0.00  0.00    +0.000 A 
ATOM     17  C   UNL     1       1.837   8.743  17.865  0.00  0.00    +0.000 A 
ATOM     18  N   UNL     1       1.551   9.146  19.186  0.00  0.00    +0.000 N 
ATOM     19  C   UNL     1       1.168  10.469  19.489  0.00  0.00    +0.000 A 
ATOM     20  O   UNL     1       1.223  11.412  18.696  0.00  0.00    +0.000 OA
ATOM     21  C   UNL     1       0.583  10.691  20.848  0.00  0.00    +0.000 A 
ATOM     22  C   UNL     1      -0.144  11.865  21.204  0.00  0.00    +0.000 A 
ATOM     23  H   UNL     1       2.279   5.906  21.709  0.00  0.00    +0.000 HD
ENDROOT
BRANCH   1  26
ATOM     24  C   UNL     1      -1.580  14.009  23.370  0.00  0.00    +0.000 C 
ATOM     25  O   UNL     1      -0.501  14.121  23.966  0.00  0.00    +0.000 OA
ATOM     26  N   UNL     1      -1.939  12.920  22.573  0.00  0.00    +0.000 N 
ATOM     27  H   UNL     1      -2.911  12.886  22.267  0.00  0.00    +0.000 HD
BRANCH  24  28
ATOM     28  C   UNL     1      -2.556  15.190  23.490  0.00  0.00    +0.000 C 
BRANCH  28  33
ATOM     29  C   UNL     1      -7.534  14.778  22.960  0.00  0.00    +0.000 C 
ATOM     30  N   UNL     1      -6.384  14.859  23.856  0.00  0.00    +0.000 NA
ATOM     31  C   UNL     1      -5.676  16.143  23.710  0.00  0.00    +0.000 C 
ATOM     32  C   UNL     1      -4.455  16.248  24.664  0.00  0.00    +0.000 C 
ATOM     33  N   UNL     1      -3.473  15.136  24.644  0.00  0.00    +0.000 NA
ATOM     34  C   UNL     1      -4.230  13.849  24.620  0.00  0.00    +0.000 C 
ATOM     35  C   UNL     1      -5.435  13.760  23.639  0.00  0.00    +0.000 C 
ENDBRANCH  28  33
ENDBRANCH  24  28
ENDBRANCH   1  26
TORSDOF 3
ENDMDL
MODEL 7
REMARK VINA RESULT:      -9.4      1.153      1.268
REMARK  Name = 
REMARK  4 active torsions:
REMARK  status: ('A' for Active; 'I' for Inactive)
REMARK    1  A    between atoms: C_1  and  N_2
REMARK    2  A    between atoms: N_5  and  C_6
REMARK    3  A    between atoms: C_6  and  C_7
REMARK    4  A    between atoms: N_9  and  C_10
REMARK                            x       y       z     vdW  Elec       q    Type
REMARK                         _______ _______ _______ _____ _____    ______ ____
ROOT
ATOM      1  C   UNL     1      -1.092  11.741  22.494  0.00  0.00    +0.000 A 
ATOM      2  C   UNL     1      -1.129  10.500  23.155  0.00  0.00    +0.000 A 
ATOM      3  C   UNL     1      -0.242   9.480  22.853  0.00  0.00    +0.000 A 
ATOM      4  C   UNL     1       0.597   9.577  21.763  0.00  0.00    +0.000 A 
ATOM      5  N   UNL     1       1.322   8.435  21.432  0.00  0.00    +0.000 NA
ATOM      6  C   UNL     1       1.668   8.312  20.198  0.00  0.00    +0.000 A 
ATOM      7  C   UNL     1       2.205   7.053  19.773  0.00  0.00    +0.000 A 
ATOM      8  N   UNL     1       2.505   5.980  20.556  0.00  0.00    +0.000 N 
ATOM      9  C   UNL     1       2.987   4.954  19.779  0.00  0.00    +0.000 A 
ATOM     10  C   UNL     1       3.451   3.692  20.176  0.00  0.00    +0.000 A 
ATOM     11  C   UNL     1       3.889   2.820  19.178  0.00  0.00    +0.000 A 
ATOM     12  C   UNL     1       3.847   3.192  17.838  0.00  0.00    +0.000 A 
ATOM     13  C   UNL     1       3.379   4.462  17.455  0.00  0.00    +0.000 A 
ATOM     14  C   UNL     1       2.946   5.377  18.443  0.00  0.00    +0.000 A 
ATOM     15  C   UNL     1       2.458   6.718  18.468  0.00  0.00    +0.000 A 
ATOM     16  C   UNL     1       2.203   7.729  17.491  0.00  0.00    +0.000 A 
ATOM     17  C   UNL     1       1.771   8.959  17.874  0.00  0.00    +0.000 A 
ATOM     18  N   UNL     1       1.514   9.292  19.220  0.00  0.00    +0.000 N 
ATOM     19  C   UNL     1       1.108  10.588  19.597  0.00  0.00    +0.000 A 
ATOM     20  O   UNL     1       1.116  11.569  18.850  0.00  0.00    +0.000 OA
ATOM     21  C   UNL     1       0.557  10.731  20.981  0.00  0.00    +0.000 A 
ATOM     22  C   UNL     1      -0.188  11.866  21.413  0.00  0.00    +0.000 A 
ATOM     23  H   UNL     1       2.393   5.955  21.562  0.00  0.00    +0.000 HD
ENDROOT
BRANCH   1  26
ATOM     24  C   UNL     1      -3.153  12.647  23.602  0.00  0.00    +0.000 C 
ATOM     25  O   UNL     1      -3.633  11.555  23.933  0.00  0.00    +0.000 OA
ATOM     26  N   UNL     1      -1.968  12.809  22.881  0.00  0.00    +0.000 N 
ATOM     27  H   UNL     1      -1.769  13.751  22.545  0.00  0.00    +0.000 HD
BRANCH  24  28
ATOM     28  C   UNL     1      -3.908  13.899  24.073  0.00  0.00    +0.000 C 
BRANCH  28  33
ATOM     29  C   UNL     1      -7.917  11.923  21.779  0.00  0.00    +0.000 C 
ATOM     30  N   UNL     1      -7.014  13.060  21.939  0.00  0.00    +0.000 NA
ATOM     31  C   UNL     1      -5.633  12.710  21.562  0.00  0.00    +0.000 C 
ATOM     32  C   UNL     1      -4.662  13.911  21.720  0.00  0.00    +0.000 C 
ATOM     33  N   UNL     1      -4.654  14.619  23.024  0.00  0.00    +0.000 NA
ATOM     34  C   UNL     1      -6.071  14.806  23.458  0.00  0.00    +0.000 C 
ATOM     35  C   UNL     1      -7.019  13.581  23.313  0.00  0.00    +0.000 C 
ENDBRANCH  28  33
ENDBRANCH  24  28
ENDBRANCH   1  26
TORSDOF 3
ENDMDL
MODEL 8
REMARK VINA RESULT:      -9.3      1.731      2.620
REMARK  Name = 
REMARK  4 active torsions:
REMARK  status: ('A' for Active; 'I' for Inactive)
REMARK    1  A    between atoms: C_1  and  N_2
REMARK    2  A    between atoms: N_5  and  C_6
REMARK    3  A    between atoms: C_6  and  C_7
REMARK    4  A    between atoms: N_9  and  C_10
REMARK                            x       y       z     vdW  Elec       q    Type
REMARK                         _______ _______ _______ _____ _____    ______ ____
ROOT
ATOM      1  C   UNL     1      -0.999  11.867  22.558  0.00  0.00    +0.000 A 
ATOM      2  C   UNL     1      -1.104  10.624  23.209  0.00  0.00    +0.000 A 
ATOM      3  C   UNL     1      -0.263   9.565  22.912  0.00  0.00    +0.000 A 
ATOM      4  C   UNL     1       0.596   9.630  21.835  0.00  0.00    +0.000 A 
ATOM      5  N   UNL     1       1.271   8.457  21.506  0.00  0.00    +0.000 NA
ATOM      6  C   UNL     1       1.628   8.326  20.275  0.00  0.00    +0.000 A 
ATOM      7  C   UNL     1       2.111   7.046  19.849  0.00  0.00    +0.000 A 
ATOM      8  N   UNL     1       2.348   5.955  20.628  0.00  0.00    +0.000 N 
ATOM      9  C   UNL     1       2.792   4.912  19.850  0.00  0.00    +0.000 A 
ATOM     10  C   UNL     1       3.190   3.627  20.243  0.00  0.00    +0.000 A 
ATOM     11  C   UNL     1       3.601   2.742  19.245  0.00  0.00    +0.000 A 
ATOM     12  C   UNL     1       3.596   3.126  17.908  0.00  0.00    +0.000 A 
ATOM     13  C   UNL     1       3.195   4.419  17.528  0.00  0.00    +0.000 A 
ATOM     14  C   UNL     1       2.792   5.346  18.517  0.00  0.00    +0.000 A 
ATOM     15  C   UNL     1       2.367   6.709  18.544  0.00  0.00    +0.000 A 
ATOM     16  C   UNL     1       2.174   7.738  17.572  0.00  0.00    +0.000 A 
ATOM     17  C   UNL     1       1.796   8.984  17.958  0.00  0.00    +0.000 A 
ATOM     18  N   UNL     1       1.535   9.319  19.303  0.00  0.00    +0.000 N 
ATOM     19  C   UNL     1       1.185  10.631  19.684  0.00  0.00    +0.000 A 
ATOM     20  O   UNL     1       1.252  11.615  18.945  0.00  0.00    +0.000 OA
ATOM     21  C   UNL     1       0.622  10.790  21.062  0.00  0.00    +0.000 A 
ATOM     22  C   UNL     1      -0.074  11.956  21.492  0.00  0.00    +0.000 A 
ATOM     23  H   UNL     1       2.221   5.928  21.632  0.00  0.00    +0.000 HD
ENDROOT
BRANCH   1  26
ATOM     24  C   UNL     1      -1.370  14.269  23.182  0.00  0.00    +0.000 C 
ATOM     25  O   UNL     1      -0.180  14.609  23.166  0.00  0.00    +0.000 OA
ATOM     26  N   UNL     1      -1.829  12.972  22.941  0.00  0.00    +0.000 N 
ATOM     27  H   UNL     1      -2.815  12.799  23.136  0.00  0.00    +0.000 HD
BRANCH  24  28
ATOM     28  C   UNL     1      -2.398  15.381  23.439  0.00  0.00    +0.000 C 
BRANCH  28  33
ATOM     29  C   UNL     1      -0.549  18.630  26.794  0.00  0.00    +0.000 C 
ATOM     30  N   UNL     1      -1.517  17.582  26.485  0.00  0.00    +0.000 NA
ATOM     31  C   UNL     1      -0.850  16.307  26.166  0.00  0.00    +0.000 C 
ATOM     32  C   UNL     1      -1.868  15.180  25.844  0.00  0.00    +0.000 C 
ATOM     33  N   UNL     1      -2.905  15.466  24.821  0.00  0.00    +0.000 NA
ATOM     34  C   UNL     1      -3.440  16.836  25.074  0.00  0.00    +0.000 C 
ATOM     35  C   UNL     1      -2.399  17.954  25.370  0.00  0.00    +0.000 C 
ENDBRANCH  28  33
ENDBRANCH  24  28
ENDBRANCH   1  26
TORSDOF 3
ENDMDL
MODEL 9
REMARK VINA RESULT:      -9.3      1.157      1.766
REMARK  Name = 
REMARK  4 active torsions:
REMARK  status: ('A' for Active; 'I' for Inactive)
REMARK    1  A    between atoms: C_1  and  N_2
REMARK    2  A    between atoms: N_5  and  C_6
REMARK    3  A    between atoms: C_6  and  C_7
REMARK    4  A    between atoms: N_9  and  C_10
REMARK                            x       y       z     vdW  Elec       q    Type
REMARK                         _______ _______ _______ _____ _____    ______ ____
ROOT
ATOM      1  C   UNL     1      -1.142  11.992  22.609  0.00  0.00    +0.000 A 
ATOM      2  C   UNL     1      -1.241  10.740  23.242  0.00  0.00    +0.000 A 
ATOM      3  C   UNL     1      -0.384   9.694  22.942  0.00  0.00    +0.000 A 
ATOM      4  C   UNL     1       0.489   9.784  21.878  0.00  0.00    +0.000 A 
ATOM      5  N   UNL     1       1.181   8.624  21.542  0.00  0.00    +0.000 NA
ATOM      6  C   UNL     1       1.557   8.513  20.316  0.00  0.00    +0.000 A 
ATOM      7  C   UNL     1       2.060   7.244  19.878  0.00  0.00    +0.000 A 
ATOM      8  N   UNL     1       2.299   6.146  20.646  0.00  0.00    +0.000 N 
ATOM      9  C   UNL     1       2.765   5.119  19.861  0.00  0.00    +0.000 A 
ATOM     10  C   UNL     1       3.173   3.833  20.243  0.00  0.00    +0.000 A 
ATOM     11  C   UNL     1       3.608   2.966  19.239  0.00  0.00    +0.000 A 
ATOM     12  C   UNL     1       3.616   3.368  17.906  0.00  0.00    +0.000 A 
ATOM     13  C   UNL     1       3.205   4.661  17.538  0.00  0.00    +0.000 A 
ATOM     14  C   UNL     1       2.778   5.571  18.533  0.00  0.00    +0.000 A 
ATOM     15  C   UNL     1       2.337   6.928  18.574  0.00  0.00    +0.000 A 
ATOM     16  C   UNL     1       2.146   7.967  17.613  0.00  0.00    +0.000 A 
ATOM     17  C   UNL     1       1.747   9.204  18.010  0.00  0.00    +0.000 A 
ATOM     18  N   UNL     1       1.465   9.518  19.356  0.00  0.00    +0.000 N 
ATOM     19  C   UNL     1       1.095  10.820  19.749  0.00  0.00    +0.000 A 
ATOM     20  O   UNL     1       1.160  11.815  19.024  0.00  0.00    +0.000 OA
ATOM     21  C   UNL     1       0.511  10.954  21.121  0.00  0.00    +0.000 A 
ATOM     22  C   UNL     1      -0.204  12.107  21.557  0.00  0.00    +0.000 A 
ATOM     23  H   UNL     1       2.158   6.104  21.648  0.00  0.00    +0.000 HD
ENDROOT
BRANCH   1  26
ATOM     24  C   UNL     1      -3.221  12.947  23.641  0.00  0.00    +0.000 C 
ATOM     25  O   UNL     1      -3.768  11.866  23.895  0.00  0.00    +0.000 OA
ATOM     26  N   UNL     1      -1.989  13.083  22.996  0.00  0.00    +0.000 N 
ATOM     27  H   UNL     1      -1.729  14.028  22.715  0.00  0.00    +0.000 HD
BRANCH  24  28
ATOM     28  C   UNL     1      -3.944  14.212  24.126  0.00  0.00    +0.000 C 
BRANCH  28  33
ATOM     29  C   UNL     1      -4.845  18.200  21.207  0.00  0.00    +0.000 C 
ATOM     30  N   UNL     1      -5.342  16.966  21.810  0.00  0.00    +0.000 NA
ATOM     31  C   UNL     1      -5.340  17.046  23.282  0.00  0.00    +0.000 C 
ATOM     32  C   UNL     1      -5.873  15.744  23.938  0.00  0.00    +0.000 C 
ATOM     33  N   UNL     1      -5.261  14.462  23.512  0.00  0.00    +0.000 NA
ATOM     34  C   UNL     1      -5.122  14.487  22.025  0.00  0.00    +0.000 C 
ATOM     35  C   UNL     1      -4.562  15.793  21.393  0.00  0.00    +0.000 C 
ENDBRANCH  28  33
ENDBRANCH  24  28
ENDBRANCH   1  26
TORSDOF 3
ENDMDL
