MODEL 1
REMARK VINA RESULT:      -8.3      0.000      0.000
REMARK  Name = 
REMARK  4 active torsions:
REMARK  status: ('A' for Active; 'I' for Inactive)
REMARK    1  A    between atoms: C_1  and  C_2
REMARK    2  A    between atoms: C_5  and  S_6
REMARK    3  A    between atoms: S_6  and  N_9
REMARK    4  A    between atoms: N_12  and  C_13
REMARK                            x       y       z     vdW  Elec       q    Type
REMARK                         _______ _______ _______ _____ _____    ______ ____
ROOT
ATOM      1  N   UNL     1       5.626   6.071  17.658  0.00  0.00    +0.000 N 
ATOM      2  C   UNL     1       4.931   5.101  18.361  0.00  0.00    +0.000 C 
ATOM      3  O   UNL     1       5.412   3.987  18.509  0.00  0.00    +0.000 OA
ATOM      4  N   UNL     1       3.682   5.484  18.790  0.00  0.00    +0.000 N 
ATOM      5  H   UNL     1       5.275   7.003  17.481  0.00  0.00    +0.000 HD
ATOM      6  H   UNL     1       3.307   6.366  18.469  0.00  0.00    +0.000 HD
ENDROOT
BRANCH   4   7
ATOM      7  C   UNL     1       2.799   4.653  19.525  0.00  0.00    +0.000 A 
ATOM      8  C   UNL     1       2.920   4.442  20.903  0.00  0.00    +0.000 A 
ATOM      9  C   UNL     1       2.056   3.582  21.582  0.00  0.00    +0.000 A 
ATOM     10  C   UNL     1       1.040   2.928  20.896  0.00  0.00    +0.000 A 
ATOM     11  C   UNL     1       0.884   3.144  19.526  0.00  0.00    +0.000 A 
ATOM     12  C   UNL     1       1.756   4.004  18.854  0.00  0.00    +0.000 A 
ATOM     13  F   UNL     1       1.599   4.182  17.533  0.00  0.00    +0.000 F 
ENDBRANCH   4   7
BRANCH   1  14
ATOM     14  S   UNL     1       7.098   5.746  16.935  0.00  0.00    +0.000 S 
ATOM     15  O   UNL     1       7.825   4.805  17.757  0.00  0.00    +0.000 OA
ATOM     16  O   UNL     1       7.665   7.039  16.611  0.00  0.00    +0.000 OA
BRANCH  14  21
ATOM     17  C   UNL     1       5.550   3.108  11.677  0.00  0.00    +0.000 C 
ATOM     18  C   UNL     1       5.935   3.747  12.980  0.00  0.00    +0.000 A 
ATOM     19  C   UNL     1       5.087   3.674  14.093  0.00  0.00    +0.000 A 
ATOM     20  C   UNL     1       5.441   4.289  15.297  0.00  0.00    +0.000 A 
ATOM     21  C   UNL     1       6.655   4.975  15.391  0.00  0.00    +0.000 A 
ATOM     22  C   UNL     1       7.514   5.050  14.292  0.00  0.00    +0.000 A 
ATOM     23  C   UNL     1       7.151   4.436  13.089  0.00  0.00    +0.000 A 
ENDBRANCH  14  21
ENDBRANCH   1  14
TORSDOF 3
ENDMDL
MODEL 2
REMARK VINA RESULT:      -8.3      0.231      1.080
REMARK  Name = 
REMARK  4 active torsions:
REMARK  status: ('A' for Active; 'I' for Inactive)
REMARK    1  A    between atoms: C_1  and  C_2
REMARK    2  A    between atoms: C_5  and  S_6
REMARK    3  A    between atoms: S_6  and  N_9
REMARK    4  A    between atoms: N_12  and  C_13
REMARK                            x       y       z     vdW  Elec       q    Type
REMARK                         _______ _______ _______ _____ _____    ______ ____
ROOT
ATOM      1  N   UNL     1       5.643   5.997  17.875  0.00  0.00    +0.000 N 
ATOM      2  C   UNL     1       4.943   5.019  18.561  0.00  0.00    +0.000 C 
ATOM      3  O   UNL     1       5.432   3.909  18.719  0.00  0.00    +0.000 OA
ATOM      4  N   UNL     1       3.680   5.388  18.962  0.00  0.00    +0.000 N 
ATOM      5  H   UNL     1       5.287   6.925  17.691  0.00  0.00    +0.000 HD
ATOM      6  H   UNL     1       3.304   6.266  18.634  0.00  0.00    +0.000 HD
ENDROOT
BRANCH   4   7
ATOM      7  C   UNL     1       2.790   4.546  19.676  0.00  0.00    +0.000 A 
ATOM      8  C   UNL     1       2.875   4.344  21.059  0.00  0.00    +0.000 A 
ATOM      9  C   UNL     1       2.006   3.474  21.717  0.00  0.00    +0.000 A 
ATOM     10  C   UNL     1       1.019   2.801  21.006  0.00  0.00    +0.000 A 
ATOM     11  C   UNL     1       0.899   3.008  19.632  0.00  0.00    +0.000 A 
ATOM     12  C   UNL     1       1.776   3.878  18.980  0.00  0.00    +0.000 A 
ATOM     13  F   UNL     1       1.654   4.048  17.654  0.00  0.00    +0.000 F 
ENDBRANCH   4   7
BRANCH   1  14
ATOM     14  S   UNL     1       7.134   5.688  17.185  0.00  0.00    +0.000 S 
ATOM     15  O   UNL     1       7.840   4.729  18.005  0.00  0.00    +0.000 OA
ATOM     16  O   UNL     1       7.709   6.988  16.906  0.00  0.00    +0.000 OA
BRANCH  14  21
ATOM     17  C   UNL     1       5.802   3.181  11.804  0.00  0.00    +0.000 C 
ATOM     18  C   UNL     1       6.127   3.813  13.128  0.00  0.00    +0.000 A 
ATOM     19  C   UNL     1       7.280   4.593  13.287  0.00  0.00    +0.000 A 
ATOM     20  C   UNL     1       7.588   5.160  14.526  0.00  0.00    +0.000 A 
ATOM     21  C   UNL     1       6.734   4.952  15.613  0.00  0.00    +0.000 A 
ATOM     22  C   UNL     1       5.576   4.182  15.467  0.00  0.00    +0.000 A 
ATOM     23  C   UNL     1       5.277   3.614  14.225  0.00  0.00    +0.000 A 
ENDBRANCH  14  21
ENDBRANCH   1  14
TORSDOF 3
ENDMDL
MODEL 3
REMARK VINA RESULT:      -7.8      3.420      4.514
REMARK  Name = 
REMARK  4 active torsions:
REMARK  status: ('A' for Active; 'I' for Inactive)
REMARK    1  A    between atoms: C_1  and  C_2
REMARK    2  A    between atoms: C_5  and  S_6
REMARK    3  A    between atoms: S_6  and  N_9
REMARK    4  A    between atoms: N_12  and  C_13
REMARK                            x       y       z     vdW  Elec       q    Type
REMARK                         _______ _______ _______ _____ _____    ______ ____
ROOT
ATOM      1  N   UNL     1       3.760   4.906  19.832  0.00  0.00    +0.000 N 
ATOM      2  C   UNL     1       2.862   5.815  19.298  0.00  0.00    +0.000 C 
ATOM      3  O   UNL     1       2.264   5.554  18.264  0.00  0.00    +0.000 OA
ATOM      4  N   UNL     1       2.772   7.005  19.981  0.00  0.00    +0.000 N 
ATOM      5  H   UNL     1       4.301   5.070  20.670  0.00  0.00    +0.000 HD
ATOM      6  H   UNL     1       3.433   7.191  20.723  0.00  0.00    +0.000 HD
ENDROOT
BRANCH   4   7
ATOM      7  C   UNL     1       1.920   8.077  19.612  0.00  0.00    +0.000 A 
ATOM      8  C   UNL     1       1.870   8.601  18.315  0.00  0.00    +0.000 A 
ATOM      9  C   UNL     1       1.049   9.684  18.003  0.00  0.00    +0.000 A 
ATOM     10  C   UNL     1       0.243  10.254  18.982  0.00  0.00    +0.000 A 
ATOM     11  C   UNL     1       0.256   9.731  20.275  0.00  0.00    +0.000 A 
ATOM     12  C   UNL     1       1.085   8.649  20.579  0.00  0.00    +0.000 A 
ATOM     13  F   UNL     1       1.095   8.173  21.834  0.00  0.00    +0.000 F 
ENDBRANCH   4   7
BRANCH   1  14
ATOM     14  S   UNL     1       4.111   3.464  19.062  0.00  0.00    +0.000 S 
ATOM     15  O   UNL     1       2.875   2.856  18.622  0.00  0.00    +0.000 OA
ATOM     16  O   UNL     1       5.008   2.757  19.953  0.00  0.00    +0.000 OA
BRANCH  14  21
ATOM     17  C   UNL     1       7.362   5.150  14.204  0.00  0.00    +0.000 C 
ATOM     18  C   UNL     1       6.562   4.721  15.400  0.00  0.00    +0.000 A 
ATOM     19  C   UNL     1       5.272   4.194  15.250  0.00  0.00    +0.000 A 
ATOM     20  C   UNL     1       4.525   3.815  16.368  0.00  0.00    +0.000 A 
ATOM     21  C   UNL     1       5.072   3.959  17.646  0.00  0.00    +0.000 A 
ATOM     22  C   UNL     1       6.360   4.477  17.812  0.00  0.00    +0.000 A 
ATOM     23  C   UNL     1       7.100   4.856  16.688  0.00  0.00    +0.000 A 
ENDBRANCH  14  21
ENDBRANCH   1  14
TORSDOF 3
ENDMDL
MODEL 4
REMARK VINA RESULT:      -7.8      1.057      1.232
REMARK  Name = 
REMARK  4 active torsions:
REMARK  status: ('A' for Active; 'I' for Inactive)
REMARK    1  A    between atoms: C_1  and  C_2
REMARK    2  A    between atoms: C_5  and  S_6
REMARK    3  A    between atoms: S_6  and  N_9
REMARK    4  A    between atoms: N_12  and  C_13
REMARK                            x       y       z     vdW  Elec       q    Type
REMARK                         _______ _______ _______ _____ _____    ______ ____
ROOT
ATOM      1  N   UNL     1       5.843   6.153  19.045  0.00  0.00    +0.000 N 
ATOM      2  C   UNL     1       4.954   5.110  19.244  0.00  0.00    +0.000 C 
ATOM      3  O   UNL     1       5.203   3.997  18.803  0.00  0.00    +0.000 OA
ATOM      4  N   UNL     1       3.794   5.459  19.895  0.00  0.00    +0.000 N 
ATOM      5  H   UNL     1       5.687   7.100  19.364  0.00  0.00    +0.000 HD
ATOM      6  H   UNL     1       3.608   6.438  20.065  0.00  0.00    +0.000 HD
ENDROOT
BRANCH   4   7
ATOM      7  C   UNL     1       2.746   4.554  20.202  0.00  0.00    +0.000 A 
ATOM      8  C   UNL     1       2.640   3.901  21.435  0.00  0.00    +0.000 A 
ATOM      9  C   UNL     1       1.618   2.985  21.683  0.00  0.00    +0.000 A 
ATOM     10  C   UNL     1       0.668   2.717  20.704  0.00  0.00    +0.000 A 
ATOM     11  C   UNL     1       0.738   3.377  19.477  0.00  0.00    +0.000 A 
ATOM     12  C   UNL     1       1.768   4.290  19.237  0.00  0.00    +0.000 A 
ATOM     13  F   UNL     1       1.827   4.899  18.042  0.00  0.00    +0.000 F 
ENDBRANCH   4   7
BRANCH   1  14
ATOM     14  S   UNL     1       7.241   5.956  18.149  0.00  0.00    +0.000 S 
ATOM     15  O   UNL     1       8.065   4.951  18.783  0.00  0.00    +0.000 OA
ATOM     16  O   UNL     1       7.748   7.293  17.922  0.00  0.00    +0.000 OA
BRANCH  14  21
ATOM     17  C   UNL     1       5.239   3.918  12.778  0.00  0.00    +0.000 C 
ATOM     18  C   UNL     1       5.721   4.417  14.110  0.00  0.00    +0.000 A 
ATOM     19  C   UNL     1       5.188   5.582  14.677  0.00  0.00    +0.000 A 
ATOM     20  C   UNL     1       5.656   6.052  15.906  0.00  0.00    +0.000 A 
ATOM     21  C   UNL     1       6.660   5.349  16.578  0.00  0.00    +0.000 A 
ATOM     22  C   UNL     1       7.197   4.182  16.029  0.00  0.00    +0.000 A 
ATOM     23  C   UNL     1       6.726   3.719  14.796  0.00  0.00    +0.000 A 
ENDBRANCH  14  21
ENDBRANCH   1  14
TORSDOF 3
ENDMDL
MODEL 5
REMARK VINA RESULT:      -7.8      5.283      7.661
REMARK  Name = 
REMARK  4 active torsions:
REMARK  status: ('A' for Active; 'I' for Inactive)
REMARK    1  A    between atoms: C_1  and  C_2
REMARK    2  A    between atoms: C_5  and  S_6
REMARK    3  A    between atoms: S_6  and  N_9
REMARK    4  A    between atoms: N_12  and  C_13
REMARK                            x       y       z     vdW  Elec       q    Type
REMARK                         _______ _______ _______ _____ _____    ______ ____
ROOT
ATOM      1  N   UNL     1       7.340   7.787  16.905  0.00  0.00    +0.000 N 
ATOM      2  C   UNL     1       8.131   8.281  17.928  0.00  0.00    +0.000 C 
ATOM      3  O   UNL     1       8.547   7.532  18.801  0.00  0.00    +0.000 OA
ATOM      4  N   UNL     1       8.331   9.642  17.896  0.00  0.00    +0.000 N 
ATOM      5  H   UNL     1       6.947   8.356  16.167  0.00  0.00    +0.000 HD
ATOM      6  H   UNL     1       7.805  10.195  17.234  0.00  0.00    +0.000 HD
ENDROOT
BRANCH   4   7
ATOM      7  C   UNL     1       9.105  10.359  18.844  0.00  0.00    +0.000 A 
ATOM      8  C   UNL     1       8.777  10.426  20.203  0.00  0.00    +0.000 A 
ATOM      9  C   UNL     1       9.542  11.177  21.095  0.00  0.00    +0.000 A 
ATOM     10  C   UNL     1      10.664  11.864  20.647  0.00  0.00    +0.000 A 
ATOM     11  C   UNL     1      11.025  11.790  19.301  0.00  0.00    +0.000 A 
ATOM     12  C   UNL     1      10.251  11.038  18.414  0.00  0.00    +0.000 A 
ATOM     13  F   UNL     1      10.606  10.995  17.121  0.00  0.00    +0.000 F 
ENDBRANCH   4   7
BRANCH   1  14
ATOM     14  S   UNL     1       6.868   6.184  16.856  0.00  0.00    +0.000 S 
ATOM     15  O   UNL     1       7.886   5.377  17.494  0.00  0.00    +0.000 OA
ATOM     16  O   UNL     1       6.480   5.935  15.484  0.00  0.00    +0.000 OA
BRANCH  14  21
ATOM     17  C   UNL     1       1.796   6.039  20.212  0.00  0.00    +0.000 C 
ATOM     18  C   UNL     1       3.045   6.062  19.378  0.00  0.00    +0.000 A 
ATOM     19  C   UNL     1       4.154   5.277  19.724  0.00  0.00    +0.000 A 
ATOM     20  C   UNL     1       5.320   5.319  18.956  0.00  0.00    +0.000 A 
ATOM     21  C   UNL     1       5.378   6.147  17.831  0.00  0.00    +0.000 A 
ATOM     22  C   UNL     1       4.278   6.930  17.470  0.00  0.00    +0.000 A 
ATOM     23  C   UNL     1       3.115   6.885  18.245  0.00  0.00    +0.000 A 
ENDBRANCH  14  21
ENDBRANCH   1  14
TORSDOF 3
ENDMDL
MODEL 6
REMARK VINA RESULT:      -7.8      3.443      4.579
REMARK  Name = 
REMARK  4 active torsions:
REMARK  status: ('A' for Active; 'I' for Inactive)
REMARK    1  A    between atoms: C_1  and  C_2
REMARK    2  A    between atoms: C_5  and  S_6
REMARK    3  A    between atoms: S_6  and  N_9
REMARK    4  A    between atoms: N_12  and  C_13
REMARK                            x       y       z     vdW  Elec       q    Type
REMARK                         _______ _______ _______ _____ _____    ______ ____
ROOT
ATOM      1  N   UNL     1       3.792   4.992  19.845  0.00  0.00    +0.000 N 
ATOM      2  C   UNL     1       2.841   5.865  19.345  0.00  0.00    +0.000 C 
ATOM      3  O   UNL     1       2.176   5.556  18.366  0.00  0.00    +0.000 OA
ATOM      4  N   UNL     1       2.776   7.078  19.990  0.00  0.00    +0.000 N 
ATOM      5  H   UNL     1       4.388   5.196  20.636  0.00  0.00    +0.000 HD
ATOM      6  H   UNL     1       3.484   7.302  20.675  0.00  0.00    +0.000 HD
ENDROOT
BRANCH   4   7
ATOM      7  C   UNL     1       1.879   8.120  19.644  0.00  0.00    +0.000 A 
ATOM      8  C   UNL     1       1.797   8.661  18.356  0.00  0.00    +0.000 A 
ATOM      9  C   UNL     1       0.930   9.715  18.068  0.00  0.00    +0.000 A 
ATOM     10  C   UNL     1       0.111  10.238  19.062  0.00  0.00    +0.000 A 
ATOM     11  C   UNL     1       0.157   9.697  20.347  0.00  0.00    +0.000 A 
ATOM     12  C   UNL     1       1.031   8.644  20.627  0.00  0.00    +0.000 A 
ATOM     13  F   UNL     1       1.071   8.151  21.875  0.00  0.00    +0.000 F 
ENDBRANCH   4   7
BRANCH   1  14
ATOM     14  S   UNL     1       4.117   3.529  19.105  0.00  0.00    +0.000 S 
ATOM     15  O   UNL     1       2.867   2.922  18.700  0.00  0.00    +0.000 OA
ATOM     16  O   UNL     1       5.022   2.835  19.997  0.00  0.00    +0.000 OA
BRANCH  14  21
ATOM     17  C   UNL     1       7.362   5.067  14.195  0.00  0.00    +0.000 C 
ATOM     18  C   UNL     1       6.560   4.701  15.411  0.00  0.00    +0.000 A 
ATOM     19  C   UNL     1       7.128   4.760  16.690  0.00  0.00    +0.000 A 
ATOM     20  C   UNL     1       6.382   4.397  17.815  0.00  0.00    +0.000 A 
ATOM     21  C   UNL     1       5.058   3.980  17.661  0.00  0.00    +0.000 A 
ATOM     22  C   UNL     1       4.475   3.923  16.391  0.00  0.00    +0.000 A 
ATOM     23  C   UNL     1       5.228   4.284  15.270  0.00  0.00    +0.000 A 
ENDBRANCH  14  21
ENDBRANCH   1  14
TORSDOF 3
ENDMDL
MODEL 7
REMARK VINA RESULT:      -7.8      1.107      1.415
REMARK  Name = 
REMARK  4 active torsions:
REMARK  status: ('A' for Active; 'I' for Inactive)
REMARK    1  A    between atoms: C_1  and  C_2
REMARK    2  A    between atoms: C_5  and  S_6
REMARK    3  A    between atoms: S_6  and  N_9
REMARK    4  A    between atoms: N_12  and  C_13
REMARK                            x       y       z     vdW  Elec       q    Type
REMARK                         _______ _______ _______ _____ _____    ______ ____
ROOT
ATOM      1  N   UNL     1       5.913   6.036  19.186  0.00  0.00    +0.000 N 
ATOM      2  C   UNL     1       4.980   5.019  19.302  0.00  0.00    +0.000 C 
ATOM      3  O   UNL     1       5.178   3.938  18.765  0.00  0.00    +0.000 OA
ATOM      4  N   UNL     1       3.839   5.360  19.990  0.00  0.00    +0.000 N 
ATOM      5  H   UNL     1       5.799   6.957  19.586  0.00  0.00    +0.000 HD
ATOM      6  H   UNL     1       3.696   6.327  20.245  0.00  0.00    +0.000 HD
ENDROOT
BRANCH   4   7
ATOM      7  C   UNL     1       2.754   4.478  20.227  0.00  0.00    +0.000 A 
ATOM      8  C   UNL     1       2.577   3.795  21.436  0.00  0.00    +0.000 A 
ATOM      9  C   UNL     1       1.520   2.902  21.614  0.00  0.00    +0.000 A 
ATOM     10  C   UNL     1       0.605   2.689  20.589  0.00  0.00    +0.000 A 
ATOM     11  C   UNL     1       0.747   3.379  19.385  0.00  0.00    +0.000 A 
ATOM     12  C   UNL     1       1.810   4.268  19.215  0.00  0.00    +0.000 A 
ATOM     13  F   UNL     1       1.938   4.908  18.041  0.00  0.00    +0.000 F 
ENDBRANCH   4   7
BRANCH   1  14
ATOM     14  S   UNL     1       7.296   5.856  18.265  0.00  0.00    +0.000 S 
ATOM     15  O   UNL     1       8.113   4.813  18.846  0.00  0.00    +0.000 OA
ATOM     16  O   UNL     1       7.821   7.194  18.087  0.00  0.00    +0.000 OA
BRANCH  14  21
ATOM     17  C   UNL     1       5.233   4.005  12.850  0.00  0.00    +0.000 C 
ATOM     18  C   UNL     1       5.754   4.466  14.180  0.00  0.00    +0.000 A 
ATOM     19  C   UNL     1       6.734   3.732  14.861  0.00  0.00    +0.000 A 
ATOM     20  C   UNL     1       7.200   4.155  16.109  0.00  0.00    +0.000 A 
ATOM     21  C   UNL     1       6.687   5.324  16.677  0.00  0.00    +0.000 A 
ATOM     22  C   UNL     1       5.714   6.071  16.007  0.00  0.00    +0.000 A 
ATOM     23  C   UNL     1       5.251   5.639  14.761  0.00  0.00    +0.000 A 
ENDBRANCH  14  21
ENDBRANCH   1  14
TORSDOF 3
ENDMDL
MODEL 8
REMARK VINA RESULT:      -7.7      3.318      4.292
REMARK  Name = 
REMARK  4 active torsions:
REMARK  status: ('A' for Active; 'I' for Inactive)
REMARK    1  A    between atoms: C_1  and  C_2
REMARK    2  A    between atoms: C_5  and  S_6
REMARK    3  A    between atoms: S_6  and  N_9
REMARK    4  A    between atoms: N_12  and  C_13
REMARK                            x       y       z     vdW  Elec       q    Type
REMARK                         _______ _______ _______ _____ _____    ______ ____
ROOT
ATOM      1  N   UNL     1       3.900   5.090  19.774  0.00  0.00    +0.000 N 
ATOM      2  C   UNL     1       2.856   5.915  19.391  0.00  0.00    +0.000 C 
ATOM      3  O   UNL     1       2.077   5.558  18.519  0.00  0.00    +0.000 OA
ATOM      4  N   UNL     1       2.832   7.140  20.015  0.00  0.00    +0.000 N 
ATOM      5  H   UNL     1       4.589   5.335  20.472  0.00  0.00    +0.000 HD
ATOM      6  H   UNL     1       3.617   7.407  20.593  0.00  0.00    +0.000 HD
ENDROOT
BRANCH   4   7
ATOM      7  C   UNL     1       1.855   8.140  19.776  0.00  0.00    +0.000 A 
ATOM      8  C   UNL     1       0.909   8.526  20.732  0.00  0.00    +0.000 A 
ATOM      9  C   UNL     1      -0.063   9.484  20.443  0.00  0.00    +0.000 A 
ATOM     10  C   UNL     1      -0.095  10.091  19.192  0.00  0.00    +0.000 A 
ATOM     11  C   UNL     1       0.856   9.741  18.233  0.00  0.00    +0.000 A 
ATOM     12  C   UNL     1       1.822   8.778  18.531  0.00  0.00    +0.000 A 
ATOM     13  F   UNL     1       2.716   8.444  17.586  0.00  0.00    +0.000 F 
ENDBRANCH   4   7
BRANCH   1  14
ATOM     14  S   UNL     1       4.178   3.622  19.024  0.00  0.00    +0.000 S 
ATOM     15  O   UNL     1       2.909   3.051  18.628  0.00  0.00    +0.000 OA
ATOM     16  O   UNL     1       5.072   2.899  19.906  0.00  0.00    +0.000 OA
BRANCH  14  21
ATOM     17  C   UNL     1       7.359   5.096  14.053  0.00  0.00    +0.000 C 
ATOM     18  C   UNL     1       6.575   4.718  15.277  0.00  0.00    +0.000 A 
ATOM     19  C   UNL     1       5.241   4.303  15.175  0.00  0.00    +0.000 A 
ATOM     20  C   UNL     1       4.510   3.973  16.319  0.00  0.00    +0.000 A 
ATOM     21  C   UNL     1       5.119   4.053  17.575  0.00  0.00    +0.000 A 
ATOM     22  C   UNL     1       6.451   4.459  17.692  0.00  0.00    +0.000 A 
ATOM     23  C   UNL     1       7.175   4.791  16.542  0.00  0.00    +0.000 A 
ENDBRANCH  14  21
ENDBRANCH   1  14
TORSDOF 3
ENDMDL
MODEL 9
REMARK VINA RESULT:      -7.7      3.312      4.382
REMARK  Name = 
REMARK  4 active torsions:
REMARK  status: ('A' for Active; 'I' for Inactive)
REMARK    1  A    between atoms: C_1  and  C_2
REMARK    2  A    between atoms: C_5  and  S_6
REMARK    3  A    between atoms: S_6  and  N_9
REMARK    4  A    between atoms: N_12  and  C_13
REMARK                            x       y       z     vdW  Elec       q    Type
REMARK                         _______ _______ _______ _____ _____    ______ ____
ROOT
ATOM      1  N   UNL     1       3.830   4.999  19.819  0.00  0.00    +0.000 N 
ATOM      2  C   UNL     1       2.829   5.858  19.395  0.00  0.00    +0.000 C 
ATOM      3  O   UNL     1       2.095   5.538  18.471  0.00  0.00    +0.000 OA
ATOM      4  N   UNL     1       2.799   7.071  20.043  0.00  0.00    +0.000 N 
ATOM      5  H   UNL     1       4.483   5.213  20.561  0.00  0.00    +0.000 HD
ATOM      6  H   UNL     1       3.554   7.306  20.671  0.00  0.00    +0.000 HD
ENDROOT
BRANCH   4   7
ATOM      7  C   UNL     1       1.862   8.100  19.769  0.00  0.00    +0.000 A 
ATOM      8  C   UNL     1       0.904   8.526  20.696  0.00  0.00    +0.000 A 
ATOM      9  C   UNL     1      -0.028   9.512  20.373  0.00  0.00    +0.000 A 
ATOM     10  C   UNL     1      -0.008  10.107  19.117  0.00  0.00    +0.000 A 
ATOM     11  C   UNL     1       0.955   9.717  18.186  0.00  0.00    +0.000 A 
ATOM     12  C   UNL     1       1.882   8.726  18.517  0.00  0.00    +0.000 A 
ATOM     13  F   UNL     1       2.788   8.353  17.600  0.00  0.00    +0.000 F 
ENDBRANCH   4   7
BRANCH   1  14
ATOM     14  S   UNL     1       4.116   3.540  19.056  0.00  0.00    +0.000 S 
ATOM     15  O   UNL     1       2.850   2.964  18.659  0.00  0.00    +0.000 OA
ATOM     16  O   UNL     1       5.018   2.816  19.927  0.00  0.00    +0.000 OA
BRANCH  14  21
ATOM     17  C   UNL     1       7.333   5.081  14.128  0.00  0.00    +0.000 C 
ATOM     18  C   UNL     1       6.537   4.714  15.348  0.00  0.00    +0.000 A 
ATOM     19  C   UNL     1       7.104   4.799  16.626  0.00  0.00    +0.000 A 
ATOM     20  C   UNL     1       6.365   4.436  17.756  0.00  0.00    +0.000 A 
ATOM     21  C   UNL     1       5.048   3.991  17.606  0.00  0.00    +0.000 A 
ATOM     22  C   UNL     1       4.468   3.908  16.338  0.00  0.00    +0.000 A 
ATOM     23  C   UNL     1       5.214   4.269  15.212  0.00  0.00    +0.000 A 
ENDBRANCH  14  21
ENDBRANCH   1  14
TORSDOF 3
ENDMDL
