MODEL 1
REMARK VINA RESULT:      -8.0      0.000      0.000
REMARK  Name = 
REMARK  7 active torsions:
REMARK  status: ('A' for Active; 'I' for Inactive)
REMARK    1  A    between atoms: C_1  and  C_2
REMARK    2  A    between atoms: C_2  and  O_3
REMARK    3  A    between atoms: O_3  and  C_4
REMARK    4  A    between atoms: C_4  and  C_6
REMARK    5  A    between atoms: C_12  and  N_13
REMARK    6  A    between atoms: C_14  and  C_16
REMARK    7  A    between atoms: C_21  and  C_22
REMARK                            x       y       z     vdW  Elec       q    Type
REMARK                         _______ _______ _______ _____ _____    ______ ____
ROOT
ATOM      1  C   UNL     1       6.784   4.889  16.362  0.00  0.00    +0.000 A 
ATOM      2  C   UNL     1       7.556   5.011  15.186  0.00  0.00    +0.000 A 
ATOM      3  C   UNL     1       7.064   4.581  13.956  0.00  0.00    +0.000 A 
ATOM      4  C   UNL     1       5.797   4.019  13.895  0.00  0.00    +0.000 A 
ATOM      5 CL   UNL     1       5.181   3.473  12.384  0.00  0.00    +0.000 Cl
ATOM      6  C   UNL     1       5.013   3.910  15.045  0.00  0.00    +0.000 A 
ATOM      7  C   UNL     1       5.477   4.351  16.298  0.00  0.00    +0.000 A 
ENDROOT
BRANCH   7   8
ATOM      8  N   UNL     1       4.640   4.294  17.458  0.00  0.00    +0.000 N 
ATOM      9  C   UNL     1       4.006   3.159  17.943  0.00  0.00    +0.000 C 
ATOM     10  O   UNL     1       4.215   2.013  17.543  0.00  0.00    +0.000 OA
ATOM     11  H   UNL     1       4.560   5.156  18.000  0.00  0.00    +0.000 HD
BRANCH   9  12
ATOM     12  C   UNL     1       3.039   3.297  19.072  0.00  0.00    +0.000 A 
ATOM     13  C   UNL     1       3.424   2.656  20.269  0.00  0.00    +0.000 A 
ATOM     14  C   UNL     1       2.585   2.632  21.383  0.00  0.00    +0.000 A 
ATOM     15  C   UNL     1       1.349   3.260  21.321  0.00  0.00    +0.000 A 
ATOM     16  C   UNL     1       0.946   3.886  20.138  0.00  0.00    +0.000 A 
ATOM     17  C   UNL     1       1.764   3.886  18.989  0.00  0.00    +0.000 A 
ATOM     18  C   UNL     1       1.200   4.488  17.735  0.00  0.00    +0.000 C 
ENDBRANCH   9  12
ENDBRANCH   7   8
BRANCH   1  19
ATOM     19  C   UNL     1       7.385   5.317  17.655  0.00  0.00    +0.000 C 
ATOM     20  O   UNL     1       7.318   4.662  18.686  0.00  0.00    +0.000 OA
BRANCH  19  21
ATOM     21  O   UNL     1       8.035   6.494  17.481  0.00  0.00    +0.000 OA
BRANCH  21  23
ATOM     22  C   UNL     1       8.123   8.886  17.940  0.00  0.00    +0.000 C 
ATOM     23  C   UNL     1       7.261   7.703  17.543  0.00  0.00    +0.000 C 
ENDBRANCH  21  23
ENDBRANCH  19  21
ENDBRANCH   1  19
TORSDOF 5
ENDMDL
MODEL 2
REMARK VINA RESULT:      -7.7      1.224      1.561
REMARK  Name = 
REMARK  7 active torsions:
REMARK  status: ('A' for Active; 'I' for Inactive)
REMARK    1  A    between atoms: C_1  and  C_2
REMARK    2  A    between atoms: C_2  and  O_3
REMARK    3  A    between atoms: O_3  and  C_4
REMARK    4  A    between atoms: C_4  and  C_6
REMARK    5  A    between atoms: C_12  and  N_13
REMARK    6  A    between atoms: C_14  and  C_16
REMARK    7  A    between atoms: C_21  and  C_22
REMARK                            x       y       z     vdW  Elec       q    Type
REMARK                         _______ _______ _______ _____ _____    ______ ____
ROOT
ATOM      1  C   UNL     1       6.779   4.741  16.225  0.00  0.00    +0.000 A 
ATOM      2  C   UNL     1       7.548   5.135  15.107  0.00  0.00    +0.000 A 
ATOM      3  C   UNL     1       7.206   4.727  13.820  0.00  0.00    +0.000 A 
ATOM      4  C   UNL     1       6.094   3.918  13.642  0.00  0.00    +0.000 A 
ATOM      5 CL   UNL     1       5.666   3.398  12.058  0.00  0.00    +0.000 Cl
ATOM      6  C   UNL     1       5.311   3.536  14.734  0.00  0.00    +0.000 A 
ATOM      7  C   UNL     1       5.622   3.946  16.043  0.00  0.00    +0.000 A 
ENDROOT
BRANCH   7   8
ATOM      8  N   UNL     1       4.777   3.602  17.146  0.00  0.00    +0.000 N 
ATOM      9  C   UNL     1       3.856   4.445  17.752  0.00  0.00    +0.000 C 
ATOM     10  O   UNL     1       3.517   5.544  17.315  0.00  0.00    +0.000 OA
ATOM     11  H   UNL     1       4.823   2.634  17.465  0.00  0.00    +0.000 HD
BRANCH   9  12
ATOM     12  C   UNL     1       3.165   3.986  18.994  0.00  0.00    +0.000 A 
ATOM     13  C   UNL     1       2.801   5.015  19.889  0.00  0.00    +0.000 A 
ATOM     14  C   UNL     1       2.222   4.731  21.126  0.00  0.00    +0.000 A 
ATOM     15  C   UNL     1       1.986   3.412  21.483  0.00  0.00    +0.000 A 
ATOM     16  C   UNL     1       2.355   2.380  20.615  0.00  0.00    +0.000 A 
ATOM     17  C   UNL     1       2.979   2.646  19.378  0.00  0.00    +0.000 A 
ATOM     18  C   UNL     1       3.436   1.471  18.564  0.00  0.00    +0.000 C 
ENDBRANCH   9  12
ENDBRANCH   7   8
BRANCH   1  19
ATOM     19  C   UNL     1       7.225   5.163  17.580  0.00  0.00    +0.000 C 
ATOM     20  O   UNL     1       7.743   4.408  18.392  0.00  0.00    +0.000 OA
BRANCH  19  21
ATOM     21  O   UNL     1       7.009   6.492  17.731  0.00  0.00    +0.000 OA
BRANCH  21  23
ATOM     22  C   UNL     1       8.068   8.687  17.814  0.00  0.00    +0.000 C 
ATOM     23  C   UNL     1       8.037   7.272  18.362  0.00  0.00    +0.000 C 
ENDBRANCH  21  23
ENDBRANCH  19  21
ENDBRANCH   1  19
TORSDOF 5
ENDMDL
MODEL 3
REMARK VINA RESULT:      -7.6      0.604      1.604
REMARK  Name = 
REMARK  7 active torsions:
REMARK  status: ('A' for Active; 'I' for Inactive)
REMARK    1  A    between atoms: C_1  and  C_2
REMARK    2  A    between atoms: C_2  and  O_3
REMARK    3  A    between atoms: O_3  and  C_4
REMARK    4  A    between atoms: C_4  and  C_6
REMARK    5  A    between atoms: C_12  and  N_13
REMARK    6  A    between atoms: C_14  and  C_16
REMARK    7  A    between atoms: C_21  and  C_22
REMARK                            x       y       z     vdW  Elec       q    Type
REMARK                         _______ _______ _______ _____ _____    ______ ____
ROOT
ATOM      1  C   UNL     1       6.698   4.670  16.336  0.00  0.00    +0.000 A 
ATOM      2  C   UNL     1       7.403   4.871  15.129  0.00  0.00    +0.000 A 
ATOM      3  C   UNL     1       6.828   4.553  13.901  0.00  0.00    +0.000 A 
ATOM      4  C   UNL     1       5.545   4.028  13.872  0.00  0.00    +0.000 A 
ATOM      5 CL   UNL     1       4.826   3.620  12.362  0.00  0.00    +0.000 Cl
ATOM      6  C   UNL     1       4.827   3.843  15.056  0.00  0.00    +0.000 A 
ATOM      7  C   UNL     1       5.375   4.170  16.309  0.00  0.00    +0.000 A 
ENDROOT
BRANCH   7   8
ATOM      8  N   UNL     1       4.607   4.037  17.510  0.00  0.00    +0.000 N 
ATOM      9  C   UNL     1       3.892   2.911  17.892  0.00  0.00    +0.000 C 
ATOM     10  O   UNL     1       3.961   1.814  17.338  0.00  0.00    +0.000 OA
ATOM     11  H   UNL     1       4.645   4.824  18.159  0.00  0.00    +0.000 HD
BRANCH   9  12
ATOM     12  C   UNL     1       3.012   2.988  19.096  0.00  0.00    +0.000 A 
ATOM     13  C   UNL     1       1.798   3.682  18.905  0.00  0.00    +0.000 A 
ATOM     14  C   UNL     1       0.913   3.903  19.961  0.00  0.00    +0.000 A 
ATOM     15  C   UNL     1       1.224   3.423  21.225  0.00  0.00    +0.000 A 
ATOM     16  C   UNL     1       2.430   2.748  21.435  0.00  0.00    +0.000 A 
ATOM     17  C   UNL     1       3.355   2.550  20.388  0.00  0.00    +0.000 A 
ATOM     18  C   UNL     1       4.669   1.911  20.734  0.00  0.00    +0.000 C 
ENDBRANCH   9  12
ENDBRANCH   7   8
BRANCH   1  19
ATOM     19  C   UNL     1       7.385   4.978  17.620  0.00  0.00    +0.000 C 
ATOM     20  O   UNL     1       8.332   4.337  18.056  0.00  0.00    +0.000 OA
BRANCH  19  21
ATOM     21  O   UNL     1       6.828   6.082  18.175  0.00  0.00    +0.000 OA
BRANCH  21  23
ATOM     22  C   UNL     1       8.003   8.192  17.839  0.00  0.00    +0.000 C 
ATOM     23  C   UNL     1       6.851   7.300  17.414  0.00  0.00    +0.000 C 
ENDBRANCH  21  23
ENDBRANCH  19  21
ENDBRANCH   1  19
TORSDOF 5
ENDMDL
MODEL 4
REMARK VINA RESULT:      -7.6      1.036      1.329
REMARK  Name = 
REMARK  7 active torsions:
REMARK  status: ('A' for Active; 'I' for Inactive)
REMARK    1  A    between atoms: C_1  and  C_2
REMARK    2  A    between atoms: C_2  and  O_3
REMARK    3  A    between atoms: O_3  and  C_4
REMARK    4  A    between atoms: C_4  and  C_6
REMARK    5  A    between atoms: C_12  and  N_13
REMARK    6  A    between atoms: C_14  and  C_16
REMARK    7  A    between atoms: C_21  and  C_22
REMARK                            x       y       z     vdW  Elec       q    Type
REMARK                         _______ _______ _______ _____ _____    ______ ____
ROOT
ATOM      1  C   UNL     1       6.620   4.762  15.652  0.00  0.00    +0.000 A 
ATOM      2  C   UNL     1       7.405   4.751  14.477  0.00  0.00    +0.000 A 
ATOM      3  C   UNL     1       6.885   4.287  13.272  0.00  0.00    +0.000 A 
ATOM      4  C   UNL     1       5.579   3.824  13.232  0.00  0.00    +0.000 A 
ATOM      5 CL   UNL     1       4.928   3.237  11.751  0.00  0.00    +0.000 Cl
ATOM      6  C   UNL     1       4.783   3.848  14.380  0.00  0.00    +0.000 A 
ATOM      7  C   UNL     1       5.274   4.327  15.608  0.00  0.00    +0.000 A 
ENDROOT
BRANCH   7   8
ATOM      8  N   UNL     1       4.430   4.406  16.762  0.00  0.00    +0.000 N 
ATOM      9  C   UNL     1       3.938   3.326  17.479  0.00  0.00    +0.000 C 
ATOM     10  O   UNL     1       4.300   2.159  17.328  0.00  0.00    +0.000 OA
ATOM     11  H   UNL     1       4.230   5.345  17.110  0.00  0.00    +0.000 HD
BRANCH   9  12
ATOM     12  C   UNL     1       2.940   3.572  18.563  0.00  0.00    +0.000 A 
ATOM     13  C   UNL     1       1.794   2.751  18.517  0.00  0.00    +0.000 A 
ATOM     14  C   UNL     1       0.741   2.921  19.416  0.00  0.00    +0.000 A 
ATOM     15  C   UNL     1       0.823   3.910  20.384  0.00  0.00    +0.000 A 
ATOM     16  C   UNL     1       1.944   4.743  20.434  0.00  0.00    +0.000 A 
ATOM     17  C   UNL     1       3.001   4.612  19.508  0.00  0.00    +0.000 A 
ATOM     18  C   UNL     1       4.110   5.621  19.573  0.00  0.00    +0.000 C 
ENDBRANCH   9  12
ENDBRANCH   7   8
BRANCH   1  19
ATOM     19  C   UNL     1       7.247   5.220  16.922  0.00  0.00    +0.000 C 
ATOM     20  O   UNL     1       7.339   4.524  17.924  0.00  0.00    +0.000 OA
BRANCH  19  21
ATOM     21  O   UNL     1       7.721   6.479  16.761  0.00  0.00    +0.000 OA
BRANCH  21  23
ATOM     22  C   UNL     1       8.068   8.628  17.858  0.00  0.00    +0.000 C 
ATOM     23  C   UNL     1       7.080   7.536  17.493  0.00  0.00    +0.000 C 
ENDBRANCH  21  23
ENDBRANCH  19  21
ENDBRANCH   1  19
TORSDOF 5
ENDMDL
MODEL 5
REMARK VINA RESULT:      -7.5      1.299      1.357
REMARK  Name = 
REMARK  7 active torsions:
REMARK  status: ('A' for Active; 'I' for Inactive)
REMARK    1  A    between atoms: C_1  and  C_2
REMARK    2  A    between atoms: C_2  and  O_3
REMARK    3  A    between atoms: O_3  and  C_4
REMARK    4  A    between atoms: C_4  and  C_6
REMARK    5  A    between atoms: C_12  and  N_13
REMARK    6  A    between atoms: C_14  and  C_16
REMARK    7  A    between atoms: C_21  and  C_22
REMARK                            x       y       z     vdW  Elec       q    Type
REMARK                         _______ _______ _______ _____ _____    ______ ____
ROOT
ATOM      1  C   UNL     1       6.690   4.675  16.251  0.00  0.00    +0.000 A 
ATOM      2  C   UNL     1       7.536   4.979  15.161  0.00  0.00    +0.000 A 
ATOM      3  C   UNL     1       7.196   4.608  13.863  0.00  0.00    +0.000 A 
ATOM      4  C   UNL     1       6.009   3.925  13.645  0.00  0.00    +0.000 A 
ATOM      5 CL   UNL     1       5.582   3.450  12.047  0.00  0.00    +0.000 Cl
ATOM      6  C   UNL     1       5.152   3.634  14.709  0.00  0.00    +0.000 A 
ATOM      7  C   UNL     1       5.460   4.011  16.028  0.00  0.00    +0.000 A 
ENDROOT
BRANCH   7   8
ATOM      8  N   UNL     1       4.545   3.765  17.101  0.00  0.00    +0.000 N 
ATOM      9  C   UNL     1       3.690   4.701  17.665  0.00  0.00    +0.000 C 
ATOM     10  O   UNL     1       3.477   5.824  17.207  0.00  0.00    +0.000 OA
ATOM     11  H   UNL     1       4.484   2.800  17.429  0.00  0.00    +0.000 HD
BRANCH   9  12
ATOM     12  C   UNL     1       2.912   4.327  18.884  0.00  0.00    +0.000 A 
ATOM     13  C   UNL     1       2.631   2.951  19.013  0.00  0.00    +0.000 A 
ATOM     14  C   UNL     1       1.845   2.464  20.057  0.00  0.00    +0.000 A 
ATOM     15  C   UNL     1       1.334   3.348  20.997  0.00  0.00    +0.000 A 
ATOM     16  C   UNL     1       1.590   4.717  20.875  0.00  0.00    +0.000 A 
ATOM     17  C   UNL     1       2.349   5.231  19.803  0.00  0.00    +0.000 A 
ATOM     18  C   UNL     1       2.478   6.723  19.696  0.00  0.00    +0.000 C 
ENDBRANCH   9  12
ENDBRANCH   7   8
BRANCH   1  19
ATOM     19  C   UNL     1       7.133   5.050  17.621  0.00  0.00    +0.000 C 
ATOM     20  O   UNL     1       6.917   4.370  18.616  0.00  0.00    +0.000 OA
BRANCH  19  21
ATOM     21  O   UNL     1       7.832   6.209  17.566  0.00  0.00    +0.000 OA
BRANCH  21  23
ATOM     22  C   UNL     1       7.995   8.630  17.807  0.00  0.00    +0.000 C 
ATOM     23  C   UNL     1       7.091   7.440  17.547  0.00  0.00    +0.000 C 
ENDBRANCH  21  23
ENDBRANCH  19  21
ENDBRANCH   1  19
TORSDOF 5
ENDMDL
MODEL 6
REMARK VINA RESULT:      -7.2      2.780      3.447
REMARK  Name = 
REMARK  7 active torsions:
REMARK  status: ('A' for Active; 'I' for Inactive)
REMARK    1  A    between atoms: C_1  and  C_2
REMARK    2  A    between atoms: C_2  and  O_3
REMARK    3  A    between atoms: O_3  and  C_4
REMARK    4  A    between atoms: C_4  and  C_6
REMARK    5  A    between atoms: C_12  and  N_13
REMARK    6  A    between atoms: C_14  and  C_16
REMARK    7  A    between atoms: C_21  and  C_22
REMARK                            x       y       z     vdW  Elec       q    Type
REMARK                         _______ _______ _______ _____ _____    ______ ____
ROOT
ATOM      1  C   UNL     1       6.717   5.497  17.375  0.00  0.00    +0.000 A 
ATOM      2  C   UNL     1       7.587   4.738  16.562  0.00  0.00    +0.000 A 
ATOM      3  C   UNL     1       7.165   4.232  15.335  0.00  0.00    +0.000 A 
ATOM      4  C   UNL     1       5.867   4.477  14.915  0.00  0.00    +0.000 A 
ATOM      5 CL   UNL     1       5.328   3.849  13.406  0.00  0.00    +0.000 Cl
ATOM      6  C   UNL     1       5.000   5.244  15.697  0.00  0.00    +0.000 A 
ATOM      7  C   UNL     1       5.403   5.782  16.933  0.00  0.00    +0.000 A 
ENDROOT
BRANCH   7   8
ATOM      8  N   UNL     1       4.528   6.620  17.696  0.00  0.00    +0.000 N 
ATOM      9  C   UNL     1       3.181   6.384  17.926  0.00  0.00    +0.000 C 
ATOM     10  O   UNL     1       2.595   5.336  17.654  0.00  0.00    +0.000 OA
ATOM     11  H   UNL     1       4.959   7.425  18.152  0.00  0.00    +0.000 HD
BRANCH   9  12
ATOM     12  C   UNL     1       2.369   7.436  18.609  0.00  0.00    +0.000 A 
ATOM     13  C   UNL     1       2.177   8.618  17.864  0.00  0.00    +0.000 A 
ATOM     14  C   UNL     1       1.509   9.717  18.403  0.00  0.00    +0.000 A 
ATOM     15  C   UNL     1       1.011   9.646  19.696  0.00  0.00    +0.000 A 
ATOM     16  C   UNL     1       1.207   8.488  20.454  0.00  0.00    +0.000 A 
ATOM     17  C   UNL     1       1.915   7.382  19.939  0.00  0.00    +0.000 A 
ATOM     18  C   UNL     1       2.168   6.228  20.865  0.00  0.00    +0.000 C 
ENDBRANCH   9  12
ENDBRANCH   7   8
BRANCH   1  19
ATOM     19  C   UNL     1       7.208   5.966  18.700  0.00  0.00    +0.000 C 
ATOM     20  O   UNL     1       6.823   5.510  19.768  0.00  0.00    +0.000 OA
BRANCH  19  21
ATOM     21  O   UNL     1       8.158   6.915  18.517  0.00  0.00    +0.000 OA
BRANCH  21  23
ATOM     22  C   UNL     1       8.540   9.313  18.297  0.00  0.00    +0.000 C 
ATOM     23  C   UNL     1       7.793   8.096  17.785  0.00  0.00    +0.000 C 
ENDBRANCH  21  23
ENDBRANCH  19  21
ENDBRANCH   1  19
TORSDOF 5
ENDMDL
MODEL 7
REMARK VINA RESULT:      -7.2      1.234      1.539
REMARK  Name = 
REMARK  7 active torsions:
REMARK  status: ('A' for Active; 'I' for Inactive)
REMARK    1  A    between atoms: C_1  and  C_2
REMARK    2  A    between atoms: C_2  and  O_3
REMARK    3  A    between atoms: O_3  and  C_4
REMARK    4  A    between atoms: C_4  and  C_6
REMARK    5  A    between atoms: C_12  and  N_13
REMARK    6  A    between atoms: C_14  and  C_16
REMARK    7  A    between atoms: C_21  and  C_22
REMARK                            x       y       z     vdW  Elec       q    Type
REMARK                         _______ _______ _______ _____ _____    ______ ____
ROOT
ATOM      1  C   UNL     1       6.734   4.811  15.259  0.00  0.00    +0.000 A 
ATOM      2  C   UNL     1       7.473   4.587  14.076  0.00  0.00    +0.000 A 
ATOM      3  C   UNL     1       6.864   4.066  12.937  0.00  0.00    +0.000 A 
ATOM      4  C   UNL     1       5.512   3.760  12.975  0.00  0.00    +0.000 A 
ATOM      5 CL   UNL     1       4.749   3.105  11.578  0.00  0.00    +0.000 Cl
ATOM      6  C   UNL     1       4.763   3.995  14.130  0.00  0.00    +0.000 A 
ATOM      7  C   UNL     1       5.346   4.535  15.290  0.00  0.00    +0.000 A 
ENDROOT
BRANCH   7   8
ATOM      8  N   UNL     1       4.556   4.832  16.446  0.00  0.00    +0.000 N 
ATOM      9  C   UNL     1       4.054   3.900  17.343  0.00  0.00    +0.000 C 
ATOM     10  O   UNL     1       4.364   2.709  17.365  0.00  0.00    +0.000 OA
ATOM     11  H   UNL     1       4.407   5.821  16.649  0.00  0.00    +0.000 HD
BRANCH   9  12
ATOM     12  C   UNL     1       3.114   4.357  18.409  0.00  0.00    +0.000 A 
ATOM     13  C   UNL     1       3.484   5.553  19.060  0.00  0.00    +0.000 A 
ATOM     14  C   UNL     1       2.746   6.058  20.130  0.00  0.00    +0.000 A 
ATOM     15  C   UNL     1       1.616   5.378  20.561  0.00  0.00    +0.000 A 
ATOM     16  C   UNL     1       1.243   4.183  19.938  0.00  0.00    +0.000 A 
ATOM     17  C   UNL     1       2.001   3.637  18.881  0.00  0.00    +0.000 A 
ATOM     18  C   UNL     1       1.585   2.296  18.349  0.00  0.00    +0.000 C 
ENDBRANCH   9  12
ENDBRANCH   7   8
BRANCH   1  19
ATOM     19  C   UNL     1       7.451   5.319  16.461  0.00  0.00    +0.000 C 
ATOM     20  O   UNL     1       7.795   4.611  17.398  0.00  0.00    +0.000 OA
BRANCH  19  21
ATOM     21  O   UNL     1       7.689   6.645  16.314  0.00  0.00    +0.000 OA
BRANCH  21  23
ATOM     22  C   UNL     1       8.217   7.998  18.273  0.00  0.00    +0.000 C 
ATOM     23  C   UNL     1       7.147   7.537  17.302  0.00  0.00    +0.000 C 
ENDBRANCH  21  23
ENDBRANCH  19  21
ENDBRANCH   1  19
TORSDOF 5
ENDMDL
MODEL 8
REMARK VINA RESULT:      -7.2      2.547      6.047
REMARK  Name = 
REMARK  7 active torsions:
REMARK  status: ('A' for Active; 'I' for Inactive)
REMARK    1  A    between atoms: C_1  and  C_2
REMARK    2  A    between atoms: C_2  and  O_3
REMARK    3  A    between atoms: O_3  and  C_4
REMARK    4  A    between atoms: C_4  and  C_6
REMARK    5  A    between atoms: C_12  and  N_13
REMARK    6  A    between atoms: C_14  and  C_16
REMARK    7  A    between atoms: C_21  and  C_22
REMARK                            x       y       z     vdW  Elec       q    Type
REMARK                         _______ _______ _______ _____ _____    ______ ____
ROOT
ATOM      1  C   UNL     1       5.901   4.823  18.141  0.00  0.00    +0.000 A 
ATOM      2  C   UNL     1       5.396   5.114  19.429  0.00  0.00    +0.000 A 
ATOM      3  C   UNL     1       4.042   4.970  19.718  0.00  0.00    +0.000 A 
ATOM      4  C   UNL     1       3.180   4.540  18.720  0.00  0.00    +0.000 A 
ATOM      5 CL   UNL     1       1.502   4.369  19.061  0.00  0.00    +0.000 Cl
ATOM      6  C   UNL     1       3.666   4.228  17.449  0.00  0.00    +0.000 A 
ATOM      7  C   UNL     1       5.031   4.347  17.131  0.00  0.00    +0.000 A 
ENDROOT
BRANCH   7   8
ATOM      8  N   UNL     1       5.528   3.964  15.845  0.00  0.00    +0.000 N 
ATOM      9  C   UNL     1       5.637   4.795  14.740  0.00  0.00    +0.000 C 
ATOM     10  O   UNL     1       5.486   6.017  14.763  0.00  0.00    +0.000 OA
ATOM     11  H   UNL     1       5.884   3.010  15.764  0.00  0.00    +0.000 HD
BRANCH   9  12
ATOM     12  C   UNL     1       6.025   4.203  13.425  0.00  0.00    +0.000 A 
ATOM     13  C   UNL     1       5.181   3.171  12.963  0.00  0.00    +0.000 A 
ATOM     14  C   UNL     1       5.463   2.470  11.791  0.00  0.00    +0.000 A 
ATOM     15  C   UNL     1       6.592   2.798  11.054  0.00  0.00    +0.000 A 
ATOM     16  C   UNL     1       7.448   3.807  11.505  0.00  0.00    +0.000 A 
ATOM     17  C   UNL     1       7.200   4.499  12.710  0.00  0.00    +0.000 A 
ATOM     18  C   UNL     1       8.232   5.488  13.167  0.00  0.00    +0.000 C 
ENDBRANCH   9  12
ENDBRANCH   7   8
BRANCH   1  19
ATOM     19  C   UNL     1       7.349   5.047  17.878  0.00  0.00    +0.000 C 
ATOM     20  O   UNL     1       8.073   4.232  17.322  0.00  0.00    +0.000 OA
BRANCH  19  21
ATOM     21  O   UNL     1       7.696   6.285  18.303  0.00  0.00    +0.000 OA
BRANCH  21  23
ATOM     22  C   UNL     1       8.124   8.654  17.917  0.00  0.00    +0.000 C 
ATOM     23  C   UNL     1       7.440   7.393  17.425  0.00  0.00    +0.000 C 
ENDBRANCH  21  23
ENDBRANCH  19  21
ENDBRANCH   1  19
TORSDOF 5
ENDMDL
MODEL 9
REMARK VINA RESULT:      -7.1      1.479      1.983
REMARK  Name = 
REMARK  7 active torsions:
REMARK  status: ('A' for Active; 'I' for Inactive)
REMARK    1  A    between atoms: C_1  and  C_2
REMARK    2  A    between atoms: C_2  and  O_3
REMARK    3  A    between atoms: O_3  and  C_4
REMARK    4  A    between atoms: C_4  and  C_6
REMARK    5  A    between atoms: C_12  and  N_13
REMARK    6  A    between atoms: C_14  and  C_16
REMARK    7  A    between atoms: C_21  and  C_22
REMARK                            x       y       z     vdW  Elec       q    Type
REMARK                         _______ _______ _______ _____ _____    ______ ____
ROOT
ATOM      1  C   UNL     1       6.667   5.214  15.320  0.00  0.00    +0.000 A 
ATOM      2  C   UNL     1       7.458   5.026  14.165  0.00  0.00    +0.000 A 
ATOM      3  C   UNL     1       6.969   4.323  13.067  0.00  0.00    +0.000 A 
ATOM      4  C   UNL     1       5.686   3.798  13.118  0.00  0.00    +0.000 A 
ATOM      5 CL   UNL     1       5.074   2.917  11.772  0.00  0.00    +0.000 Cl
ATOM      6  C   UNL     1       4.884   3.992  14.245  0.00  0.00    +0.000 A 
ATOM      7  C   UNL     1       5.344   4.712  15.362  0.00  0.00    +0.000 A 
ENDROOT
BRANCH   7   8
ATOM      8  N   UNL     1       4.491   4.960  16.485  0.00  0.00    +0.000 N 
ATOM      9  C   UNL     1       4.004   3.999  17.358  0.00  0.00    +0.000 C 
ATOM     10  O   UNL     1       4.377   2.826  17.390  0.00  0.00    +0.000 OA
ATOM     11  H   UNL     1       4.280   5.939  16.683  0.00  0.00    +0.000 HD
BRANCH   9  12
ATOM     12  C   UNL     1       2.996   4.400  18.384  0.00  0.00    +0.000 A 
ATOM     13  C   UNL     1       3.205   5.670  18.963  0.00  0.00    +0.000 A 
ATOM     14  C   UNL     1       2.392   6.143  19.992  0.00  0.00    +0.000 A 
ATOM     15  C   UNL     1       1.347   5.357  20.453  0.00  0.00    +0.000 A 
ATOM     16  C   UNL     1       1.135   4.089  19.903  0.00  0.00    +0.000 A 
ATOM     17  C   UNL     1       1.972   3.578  18.888  0.00  0.00    +0.000 A 
ATOM     18  C   UNL     1       1.733   2.166  18.437  0.00  0.00    +0.000 C 
ENDBRANCH   9  12
ENDBRANCH   7   8
BRANCH   1  19
ATOM     19  C   UNL     1       7.264   5.927  16.482  0.00  0.00    +0.000 C 
ATOM     20  O   UNL     1       7.288   7.146  16.593  0.00  0.00    +0.000 OA
BRANCH  19  21
ATOM     21  O   UNL     1       7.714   5.021  17.383  0.00  0.00    +0.000 OA
BRANCH  21  23
ATOM     22  C   UNL     1       6.619   5.352  19.536  0.00  0.00    +0.000 C 
ATOM     23  C   UNL     1       7.904   5.459  18.738  0.00  0.00    +0.000 C 
ENDBRANCH  21  23
ENDBRANCH  19  21
ENDBRANCH   1  19
TORSDOF 5
ENDMDL
