MODEL 1
REMARK VINA RESULT:      -9.3      0.000      0.000
REMARK  Name = 
REMARK  3 active torsions:
REMARK  status: ('A' for Active; 'I' for Inactive)
REMARK    1  A    between atoms: C_2  and  C_11
REMARK    2  A    between atoms: N_3  and  C_4
REMARK    3  A    between atoms: C_4  and  C_5
REMARK                            x       y       z     vdW  Elec       q    Type
REMARK                         _______ _______ _______ _____ _____    ______ ____
ROOT
ATOM      1  C   UNL     1       6.673   5.765  18.162  0.00  0.00    +0.000 A 
ATOM      2  C   UNL     1       5.562   5.497  18.980  0.00  0.00    +0.000 A 
ATOM      3  C   UNL     1       4.462   4.786  18.468  0.00  0.00    +0.000 A 
ATOM      4  C   UNL     1       3.213   4.396  19.011  0.00  0.00    +0.000 A 
ATOM      5  C   UNL     1       2.619   4.578  20.274  0.00  0.00    +0.000 A 
ATOM      6  C   UNL     1       1.341   4.080  20.513  0.00  0.00    +0.000 A 
ATOM      7  C   UNL     1       0.658   3.413  19.501  0.00  0.00    +0.000 A 
ATOM      8  C   UNL     1       1.224   3.225  18.226  0.00  0.00    +0.000 A 
ATOM      9  C   UNL     1       2.517   3.727  17.998  0.00  0.00    +0.000 A 
ATOM     10  N   UNL     1       3.339   3.717  16.865  0.00  0.00    +0.000 N 
ATOM     11  C   UNL     1       4.496   4.351  17.152  0.00  0.00    +0.000 A 
ATOM     12  C   UNL     1       5.568   4.612  16.325  0.00  0.00    +0.000 A 
ATOM     13  C   UNL     1       6.638   5.328  16.837  0.00  0.00    +0.000 A 
ATOM     14  N   UNL     1       7.537   5.496  15.824  0.00  0.00    +0.000 N 
ATOM     15  C   UNL     1       7.065   4.948  14.659  0.00  0.00    +0.000 A 
ATOM     16  C   UNL     1       7.665   4.989  13.396  0.00  0.00    +0.000 A 
ATOM     17  C   UNL     1       7.012   4.348  12.350  0.00  0.00    +0.000 A 
ATOM     18  C   UNL     1       5.819   3.668  12.580  0.00  0.00    +0.000 A 
ATOM     19  C   UNL     1       5.219   3.641  13.858  0.00  0.00    +0.000 A 
ATOM     20  C   UNL     1       5.835   4.320  14.933  0.00  0.00    +0.000 A 
ATOM     21  H   UNL     1       3.073   3.311  15.981  0.00  0.00    +0.000 HD
ATOM     22  H   UNL     1       8.400   6.014  15.925  0.00  0.00    +0.000 HD
ENDROOT
BRANCH   1  24
ATOM     23  O   UNL     1       8.646   6.000  19.409  0.00  0.00    +0.000 OA
ATOM     24  C   UNL     1       7.842   6.526  18.646  0.00  0.00    +0.000 C 
ATOM     25  N   UNL     1       7.914   7.837  18.238  0.00  0.00    +0.000 N 
ATOM     26  H   UNL     1       7.093   8.264  17.831  0.00  0.00    +0.000 HD
BRANCH  25  27
ATOM     27  C   UNL     1       8.940   8.707  18.754  0.00  0.00    +0.000 C 
BRANCH  27  28
ATOM     28  C   UNL     1       8.754  10.117  18.280  0.00  0.00    +0.000 A 
ATOM     29  C   UNL     1       9.706  11.109  18.532  0.00  0.00    +0.000 A 
ATOM     30  C   UNL     1       9.485  12.406  18.080  0.00  0.00    +0.000 A 
ATOM     31  C   UNL     1       8.321  12.667  17.375  0.00  0.00    +0.000 A 
ATOM     32  N   UNL     1       7.391  11.733  17.090  0.00  0.00    +0.000 NA
ATOM     33  C   UNL     1       7.630  10.480  17.542  0.00  0.00    +0.000 A 
ENDBRANCH  27  28
ENDBRANCH  25  27
ENDBRANCH   1  24
TORSDOF 3
ENDMDL
MODEL 2
REMARK VINA RESULT:      -9.1      1.065      4.941
REMARK  Name = 
REMARK  3 active torsions:
REMARK  status: ('A' for Active; 'I' for Inactive)
REMARK    1  A    between atoms: C_2  and  C_11
REMARK    2  A    between atoms: N_3  and  C_4
REMARK    3  A    between atoms: C_4  and  C_5
REMARK                            x       y       z     vdW  Elec       q    Type
REMARK                         _______ _______ _______ _____ _____    ______ ____
ROOT
ATOM      1  C   UNL     1       6.944   6.131  17.533  0.00  0.00    +0.000 A 
ATOM      2  C   UNL     1       7.338   5.827  16.219  0.00  0.00    +0.000 A 
ATOM      3  C   UNL     1       6.470   5.123  15.365  0.00  0.00    +0.000 A 
ATOM      4  C   UNL     1       6.581   4.647  14.035  0.00  0.00    +0.000 A 
ATOM      5  C   UNL     1       7.612   4.714  13.078  0.00  0.00    +0.000 A 
ATOM      6  C   UNL     1       7.429   4.127  11.828  0.00  0.00    +0.000 A 
ATOM      7  C   UNL     1       6.235   3.475  11.537  0.00  0.00    +0.000 A 
ATOM      8  C   UNL     1       5.192   3.386  12.479  0.00  0.00    +0.000 A 
ATOM      9  C   UNL     1       5.386   3.987  13.735  0.00  0.00    +0.000 A 
ATOM     10  N   UNL     1       4.569   4.066  14.870  0.00  0.00    +0.000 N 
ATOM     11  C   UNL     1       5.223   4.743  15.838  0.00  0.00    +0.000 A 
ATOM     12  C   UNL     1       4.818   5.018  17.127  0.00  0.00    +0.000 A 
ATOM     13  C   UNL     1       5.689   5.696  17.963  0.00  0.00    +0.000 A 
ATOM     14  N   UNL     1       5.084   5.801  19.182  0.00  0.00    +0.000 N 
ATOM     15  C   UNL     1       3.864   5.175  19.175  0.00  0.00    +0.000 A 
ATOM     16  C   UNL     1       2.990   5.004  20.254  0.00  0.00    +0.000 A 
ATOM     17  C   UNL     1       1.790   4.346  20.015  0.00  0.00    +0.000 A 
ATOM     18  C   UNL     1       1.475   3.907  18.732  0.00  0.00    +0.000 A 
ATOM     19  C   UNL     1       2.369   4.078  17.653  0.00  0.00    +0.000 A 
ATOM     20  C   UNL     1       3.617   4.704  17.872  0.00  0.00    +0.000 A 
ATOM     21  H   UNL     1       3.652   3.653  14.932  0.00  0.00    +0.000 HD
ATOM     22  H   UNL     1       5.522   6.232  19.987  0.00  0.00    +0.000 HD
ENDROOT
BRANCH   1  24
ATOM     23  O   UNL     1       8.188   6.305  19.514  0.00  0.00    +0.000 OA
ATOM     24  C   UNL     1       7.827   6.847  18.475  0.00  0.00    +0.000 C 
ATOM     25  N   UNL     1       8.144   8.141  18.133  0.00  0.00    +0.000 N 
ATOM     26  H   UNL     1       7.607   8.596  17.407  0.00  0.00    +0.000 HD
BRANCH  25  27
ATOM     27  C   UNL     1       8.891   8.974  19.040  0.00  0.00    +0.000 C 
BRANCH  27  28
ATOM     28  C   UNL     1       9.040  10.368  18.509  0.00  0.00    +0.000 A 
ATOM     29  C   UNL     1      10.224  11.093  18.671  0.00  0.00    +0.000 A 
ATOM     30  C   UNL     1      10.313  12.388  18.168  0.00  0.00    +0.000 A 
ATOM     31  C   UNL     1       9.215  12.912  17.506  0.00  0.00    +0.000 A 
ATOM     32  N   UNL     1       8.064  12.236  17.308  0.00  0.00    +0.000 NA
ATOM     33  C   UNL     1       8.005  10.980  17.807  0.00  0.00    +0.000 A 
ENDBRANCH  27  28
ENDBRANCH  25  27
ENDBRANCH   1  24
TORSDOF 3
ENDMDL
MODEL 3
REMARK VINA RESULT:      -8.7      7.662     10.182
REMARK  Name = 
REMARK  3 active torsions:
REMARK  status: ('A' for Active; 'I' for Inactive)
REMARK    1  A    between atoms: C_2  and  C_11
REMARK    2  A    between atoms: N_3  and  C_4
REMARK    3  A    between atoms: C_4  and  C_5
REMARK                            x       y       z     vdW  Elec       q    Type
REMARK                         _______ _______ _______ _____ _____    ______ ____
ROOT
ATOM      1  C   UNL     1       0.226  10.180  19.262  0.00  0.00    +0.000 A 
ATOM      2  C   UNL     1       0.135  10.947  20.436  0.00  0.00    +0.000 A 
ATOM      3  C   UNL     1      -0.992  11.754  20.668  0.00  0.00    +0.000 A 
ATOM      4  C   UNL     1      -1.359  12.646  21.707  0.00  0.00    +0.000 A 
ATOM      5  C   UNL     1      -0.720  13.044  22.896  0.00  0.00    +0.000 A 
ATOM      6  C   UNL     1      -1.337  13.970  23.733  0.00  0.00    +0.000 A 
ATOM      7  C   UNL     1      -2.575  14.500  23.385  0.00  0.00    +0.000 A 
ATOM      8  C   UNL     1      -3.233  14.126  22.197  0.00  0.00    +0.000 A 
ATOM      9  C   UNL     1      -2.602  13.186  21.363  0.00  0.00    +0.000 A 
ATOM     10  N   UNL     1      -2.975  12.625  20.135  0.00  0.00    +0.000 N 
ATOM     11  C   UNL     1      -2.010  11.775  19.727  0.00  0.00    +0.000 A 
ATOM     12  C   UNL     1      -1.940  11.042  18.561  0.00  0.00    +0.000 A 
ATOM     13  C   UNL     1      -0.815  10.264  18.336  0.00  0.00    +0.000 A 
ATOM     14  N   UNL     1      -0.961   9.683  17.110  0.00  0.00    +0.000 N 
ATOM     15  C   UNL     1      -2.125  10.092  16.513  0.00  0.00    +0.000 A 
ATOM     16  C   UNL     1      -2.579   9.775  15.228  0.00  0.00    +0.000 A 
ATOM     17  C   UNL     1      -3.805  10.293  14.830  0.00  0.00    +0.000 A 
ATOM     18  C   UNL     1      -4.554  11.073  15.707  0.00  0.00    +0.000 A 
ATOM     19  C   UNL     1      -4.082  11.393  16.999  0.00  0.00    +0.000 A 
ATOM     20  C   UNL     1      -2.818  10.919  17.418  0.00  0.00    +0.000 A 
ATOM     21  H   UNL     1      -3.826  12.857  19.648  0.00  0.00    +0.000 HD
ATOM     22  H   UNL     1      -0.261   9.084  16.691  0.00  0.00    +0.000 HD
ENDROOT
BRANCH   1  24
ATOM     23  O   UNL     1       2.094   9.573  17.980  0.00  0.00    +0.000 OA
ATOM     24  C   UNL     1       1.399   9.335  18.962  0.00  0.00    +0.000 C 
ATOM     25  N   UNL     1       1.599   8.266  19.805  0.00  0.00    +0.000 N 
ATOM     26  H   UNL     1       0.849   7.990  20.423  0.00  0.00    +0.000 HD
BRANCH  25  27
ATOM     27  C   UNL     1       2.634   7.303  19.530  0.00  0.00    +0.000 C 
BRANCH  27  28
ATOM     28  C   UNL     1       2.086   5.909  19.468  0.00  0.00    +0.000 A 
ATOM     29  C   UNL     1       1.582   5.267  20.602  0.00  0.00    +0.000 A 
ATOM     30  C   UNL     1       1.091   3.969  20.496  0.00  0.00    +0.000 A 
ATOM     31  C   UNL     1       1.108   3.359  19.253  0.00  0.00    +0.000 A 
ATOM     32  N   UNL     1       1.562   3.954  18.131  0.00  0.00    +0.000 NA
ATOM     33  C   UNL     1       2.034   5.216  18.262  0.00  0.00    +0.000 A 
ENDBRANCH  27  28
ENDBRANCH  25  27
ENDBRANCH   1  24
TORSDOF 3
ENDMDL
MODEL 4
REMARK VINA RESULT:      -8.1      6.651      9.838
REMARK  Name = 
REMARK  3 active torsions:
REMARK  status: ('A' for Active; 'I' for Inactive)
REMARK    1  A    between atoms: C_2  and  C_11
REMARK    2  A    between atoms: N_3  and  C_4
REMARK    3  A    between atoms: C_4  and  C_5
REMARK                            x       y       z     vdW  Elec       q    Type
REMARK                         _______ _______ _______ _____ _____    ______ ____
ROOT
ATOM      1  C   UNL     1       0.881   9.929  18.173  0.00  0.00    +0.000 A 
ATOM      2  C   UNL     1      -0.478   9.588  18.060  0.00  0.00    +0.000 A 
ATOM      3  C   UNL     1      -1.468  10.576  18.195  0.00  0.00    +0.000 A 
ATOM      4  C   UNL     1      -2.885  10.550  18.169  0.00  0.00    +0.000 A 
ATOM      5  C   UNL     1      -3.820   9.512  17.990  0.00  0.00    +0.000 A 
ATOM      6  C   UNL     1      -5.182   9.798  18.029  0.00  0.00    +0.000 A 
ATOM      7  C   UNL     1      -5.609  11.104  18.249  0.00  0.00    +0.000 A 
ATOM      8  C   UNL     1      -4.696  12.159  18.439  0.00  0.00    +0.000 A 
ATOM      9  C   UNL     1      -3.323  11.859  18.393  0.00  0.00    +0.000 A 
ATOM     10  N   UNL     1      -2.185  12.658  18.551  0.00  0.00    +0.000 N 
ATOM     11  C   UNL     1      -1.084  11.887  18.434  0.00  0.00    +0.000 A 
ATOM     12  C   UNL     1       0.242  12.245  18.562  0.00  0.00    +0.000 A 
ATOM     13  C   UNL     1       1.208  11.259  18.443  0.00  0.00    +0.000 A 
ATOM     14  N   UNL     1       2.420  11.849  18.655  0.00  0.00    +0.000 N 
ATOM     15  C   UNL     1       2.268  13.179  18.949  0.00  0.00    +0.000 A 
ATOM     16  C   UNL     1       3.269  14.092  19.301  0.00  0.00    +0.000 A 
ATOM     17  C   UNL     1       2.888  15.406  19.544  0.00  0.00    +0.000 A 
ATOM     18  C   UNL     1       1.556  15.786  19.407  0.00  0.00    +0.000 A 
ATOM     19  C   UNL     1       0.554  14.854  19.060  0.00  0.00    +0.000 A 
ATOM     20  C   UNL     1       0.901  13.501  18.849  0.00  0.00    +0.000 A 
ATOM     21  H   UNL     1      -2.215  13.647  18.744  0.00  0.00    +0.000 HD
ATOM     22  H   UNL     1       3.295  11.340  18.654  0.00  0.00    +0.000 HD
ENDROOT
BRANCH   1  24
ATOM     23  O   UNL     1       2.736   8.960  17.114  0.00  0.00    +0.000 OA
ATOM     24  C   UNL     1       1.957   8.924  18.061  0.00  0.00    +0.000 C 
ATOM     25  N   UNL     1       1.971   7.950  19.032  0.00  0.00    +0.000 N 
ATOM     26  H   UNL     1       1.156   7.839  19.619  0.00  0.00    +0.000 HD
BRANCH  25  27
ATOM     27  C   UNL     1       2.895   6.848  18.947  0.00  0.00    +0.000 C 
BRANCH  27  28
ATOM     28  C   UNL     1       2.189   5.530  19.047  0.00  0.00    +0.000 A 
ATOM     29  C   UNL     1       1.722   5.037  20.268  0.00  0.00    +0.000 A 
ATOM     30  C   UNL     1       1.080   3.803  20.312  0.00  0.00    +0.000 A 
ATOM     31  C   UNL     1       0.913   3.107  19.126  0.00  0.00    +0.000 A 
ATOM     32  N   UNL     1       1.327   3.560  17.925  0.00  0.00    +0.000 NA
ATOM     33  C   UNL     1       1.949   4.762  17.911  0.00  0.00    +0.000 A 
ENDBRANCH  27  28
ENDBRANCH  25  27
ENDBRANCH   1  24
TORSDOF 3
ENDMDL
MODEL 5
REMARK VINA RESULT:      -7.9      7.343     10.149
REMARK  Name = 
REMARK  3 active torsions:
REMARK  status: ('A' for Active; 'I' for Inactive)
REMARK    1  A    between atoms: C_2  and  C_11
REMARK    2  A    between atoms: N_3  and  C_4
REMARK    3  A    between atoms: C_4  and  C_5
REMARK                            x       y       z     vdW  Elec       q    Type
REMARK                         _______ _______ _______ _____ _____    ______ ____
ROOT
ATOM      1  C   UNL     1       0.947  10.326  18.610  0.00  0.00    +0.000 A 
ATOM      2  C   UNL     1       1.272  11.322  19.546  0.00  0.00    +0.000 A 
ATOM      3  C   UNL     1       0.333  12.314  19.878  0.00  0.00    +0.000 A 
ATOM      4  C   UNL     1       0.365  13.443  20.734  0.00  0.00    +0.000 A 
ATOM      5  C   UNL     1       1.360  13.980  21.573  0.00  0.00    +0.000 A 
ATOM      6  C   UNL     1       1.096  15.137  22.300  0.00  0.00    +0.000 A 
ATOM      7  C   UNL     1      -0.144  15.758  22.188  0.00  0.00    +0.000 A 
ATOM      8  C   UNL     1      -1.153  15.248  21.351  0.00  0.00    +0.000 A 
ATOM      9  C   UNL     1      -0.878  14.076  20.625  0.00  0.00    +0.000 A 
ATOM     10  N   UNL     1      -1.644  13.335  19.716  0.00  0.00    +0.000 N 
ATOM     11  C   UNL     1      -0.915  12.288  19.274  0.00  0.00    +0.000 A 
ATOM     12  C   UNL     1      -1.255  11.329  18.343  0.00  0.00    +0.000 A 
ATOM     13  C   UNL     1      -0.314  10.367  18.012  0.00  0.00    +0.000 A 
ATOM     14  N   UNL     1      -0.865   9.575  17.048  0.00  0.00    +0.000 N 
ATOM     15  C   UNL     1      -2.118  10.017  16.711  0.00  0.00    +0.000 A 
ATOM     16  C   UNL     1      -2.959   9.512  15.714  0.00  0.00    +0.000 A 
ATOM     17  C   UNL     1      -4.203  10.109  15.555  0.00  0.00    +0.000 A 
ATOM     18  C   UNL     1      -4.592  11.153  16.391  0.00  0.00    +0.000 A 
ATOM     19  C   UNL     1      -3.731  11.659  17.389  0.00  0.00    +0.000 A 
ATOM     20  C   UNL     1      -2.442  11.103  17.547  0.00  0.00    +0.000 A 
ATOM     21  H   UNL     1      -2.581  13.583  19.439  0.00  0.00    +0.000 HD
ATOM     22  H   UNL     1      -0.372   8.807  16.608  0.00  0.00    +0.000 HD
ENDROOT
BRANCH   1  24
ATOM     23  O   UNL     1       2.425   9.307  17.101  0.00  0.00    +0.000 OA
ATOM     24  C   UNL     1       1.906   9.276  18.212  0.00  0.00    +0.000 C 
ATOM     25  N   UNL     1       2.108   8.270  19.128  0.00  0.00    +0.000 N 
ATOM     26  H   UNL     1       1.459   8.177  19.897  0.00  0.00    +0.000 HD
BRANCH  25  27
ATOM     27  C   UNL     1       2.921   7.129  18.792  0.00  0.00    +0.000 C 
BRANCH  27  28
ATOM     28  C   UNL     1       2.217   5.842  19.102  0.00  0.00    +0.000 A 
ATOM     29  C   UNL     1       1.973   4.883  18.116  0.00  0.00    +0.000 A 
ATOM     30  C   UNL     1       1.308   3.707  18.450  0.00  0.00    +0.000 A 
ATOM     31  C   UNL     1       0.920   3.522  19.767  0.00  0.00    +0.000 A 
ATOM     32  N   UNL     1       1.160   4.413  20.752  0.00  0.00    +0.000 NA
ATOM     33  C   UNL     1       1.807   5.548  20.399  0.00  0.00    +0.000 A 
ENDBRANCH  27  28
ENDBRANCH  25  27
ENDBRANCH   1  24
TORSDOF 3
ENDMDL
MODEL 6
REMARK VINA RESULT:      -7.9      4.050     10.119
REMARK  Name = 
REMARK  3 active torsions:
REMARK  status: ('A' for Active; 'I' for Inactive)
REMARK    1  A    between atoms: C_2  and  C_11
REMARK    2  A    between atoms: N_3  and  C_4
REMARK    3  A    between atoms: C_4  and  C_5
REMARK                            x       y       z     vdW  Elec       q    Type
REMARK                         _______ _______ _______ _____ _____    ______ ____
ROOT
ATOM      1  C   UNL     1       9.356  11.768  19.404  0.00  0.00    +0.000 A 
ATOM      2  C   UNL     1       8.959  11.513  20.728  0.00  0.00    +0.000 A 
ATOM      3  C   UNL     1       8.911  12.560  21.666  0.00  0.00    +0.000 A 
ATOM      4  C   UNL     1       8.594  12.621  23.046  0.00  0.00    +0.000 A 
ATOM      5  C   UNL     1       8.203  11.645  23.982  0.00  0.00    +0.000 A 
ATOM      6  C   UNL     1       7.968  12.015  25.304  0.00  0.00    +0.000 A 
ATOM      7  C   UNL     1       8.127  13.342  25.690  0.00  0.00    +0.000 A 
ATOM      8  C   UNL     1       8.525  14.336  24.777  0.00  0.00    +0.000 A 
ATOM      9  C   UNL     1       8.755  13.952  23.444  0.00  0.00    +0.000 A 
ATOM     10  N   UNL     1       9.162  14.678  22.318  0.00  0.00    +0.000 N 
ATOM     11  C   UNL     1       9.254  13.841  21.263  0.00  0.00    +0.000 A 
ATOM     12  C   UNL     1       9.660  14.115  19.973  0.00  0.00    +0.000 A 
ATOM     13  C   UNL     1       9.719  13.073  19.063  0.00  0.00    +0.000 A 
ATOM     14  N   UNL     1      10.189  13.584  17.889  0.00  0.00    +0.000 N 
ATOM     15  C   UNL     1      10.477  14.918  18.020  0.00  0.00    +0.000 A 
ATOM     16  C   UNL     1      11.047  15.763  17.061  0.00  0.00    +0.000 A 
ATOM     17  C   UNL     1      11.238  17.095  17.407  0.00  0.00    +0.000 A 
ATOM     18  C   UNL     1      10.840  17.559  18.658  0.00  0.00    +0.000 A 
ATOM     19  C   UNL     1      10.273  16.694  19.619  0.00  0.00    +0.000 A 
ATOM     20  C   UNL     1      10.106  15.325  19.316  0.00  0.00    +0.000 A 
ATOM     21  H   UNL     1       9.367  15.664  22.329  0.00  0.00    +0.000 HD
ATOM     22  H   UNL     1      10.355  13.022  17.063  0.00  0.00    +0.000 HD
ENDROOT
BRANCH   1  24
ATOM     23  O   UNL     1      10.304  10.751  17.515  0.00  0.00    +0.000 OA
ATOM     24  C   UNL     1       9.444  10.700  18.388  0.00  0.00    +0.000 C 
ATOM     25  N   UNL     1       8.481   9.721  18.464  0.00  0.00    +0.000 N 
ATOM     26  H   UNL     1       7.666   9.885  19.039  0.00  0.00    +0.000 HD
BRANCH  25  27
ATOM     27  C   UNL     1       8.393   8.704  17.447  0.00  0.00    +0.000 C 
BRANCH  27  28
ATOM     28  C   UNL     1       7.632   7.507  17.932  0.00  0.00    +0.000 A 
ATOM     29  C   UNL     1       6.401   7.145  17.380  0.00  0.00    +0.000 A 
ATOM     30  C   UNL     1       5.728   6.030  17.869  0.00  0.00    +0.000 A 
ATOM     31  C   UNL     1       6.317   5.302  18.891  0.00  0.00    +0.000 A 
ATOM     32  N   UNL     1       7.515   5.604  19.433  0.00  0.00    +0.000 NA
ATOM     33  C   UNL     1       8.147   6.694  18.939  0.00  0.00    +0.000 A 
ENDBRANCH  27  28
ENDBRANCH  25  27
ENDBRANCH   1  24
TORSDOF 3
ENDMDL
MODEL 7
REMARK VINA RESULT:      -7.9      8.895     10.937
REMARK  Name = 
REMARK  3 active torsions:
REMARK  status: ('A' for Active; 'I' for Inactive)
REMARK    1  A    between atoms: C_2  and  C_11
REMARK    2  A    between atoms: N_3  and  C_4
REMARK    3  A    between atoms: C_4  and  C_5
REMARK                            x       y       z     vdW  Elec       q    Type
REMARK                         _______ _______ _______ _____ _____    ______ ____
ROOT
ATOM      1  C   UNL     1      -0.968  11.409  20.917  0.00  0.00    +0.000 A 
ATOM      2  C   UNL     1      -1.527  12.391  21.752  0.00  0.00    +0.000 A 
ATOM      3  C   UNL     1      -2.688  13.078  21.355  0.00  0.00    +0.000 A 
ATOM      4  C   UNL     1      -3.456  14.117  21.938  0.00  0.00    +0.000 A 
ATOM      5  C   UNL     1      -3.333  14.838  23.141  0.00  0.00    +0.000 A 
ATOM      6  C   UNL     1      -4.257  15.835  23.443  0.00  0.00    +0.000 A 
ATOM      7  C   UNL     1      -5.288  16.115  22.553  0.00  0.00    +0.000 A 
ATOM      8  C   UNL     1      -5.430  15.416  21.340  0.00  0.00    +0.000 A 
ATOM      9  C   UNL     1      -4.494  14.408  21.048  0.00  0.00    +0.000 A 
ATOM     10  N   UNL     1      -4.351  13.555  19.947  0.00  0.00    +0.000 N 
ATOM     11  C   UNL     1      -3.271  12.767  20.136  0.00  0.00    +0.000 A 
ATOM     12  C   UNL     1      -2.735  11.816  19.293  0.00  0.00    +0.000 A 
ATOM     13  C   UNL     1      -1.581  11.159  19.688  0.00  0.00    +0.000 A 
ATOM     14  N   UNL     1      -1.227  10.315  18.675  0.00  0.00    +0.000 N 
ATOM     15  C   UNL     1      -2.091  10.436  17.617  0.00  0.00    +0.000 A 
ATOM     16  C   UNL     1      -2.009   9.796  16.376  0.00  0.00    +0.000 A 
ATOM     17  C   UNL     1      -3.010  10.055  15.449  0.00  0.00    +0.000 A 
ATOM     18  C   UNL     1      -4.066  10.903  15.776  0.00  0.00    +0.000 A 
ATOM     19  C   UNL     1      -4.133  11.549  17.029  0.00  0.00    +0.000 A 
ATOM     20  C   UNL     1      -3.107  11.341  17.978  0.00  0.00    +0.000 A 
ATOM     21  H   UNL     1      -4.960  13.566  19.144  0.00  0.00    +0.000 HD
ATOM     22  H   UNL     1      -0.397   9.735  18.698  0.00  0.00    +0.000 HD
ENDROOT
BRANCH   1  24
ATOM     23  O   UNL     1       1.327  11.275  21.383  0.00  0.00    +0.000 OA
ATOM     24  C   UNL     1       0.262  10.676  21.278  0.00  0.00    +0.000 C 
ATOM     25  N   UNL     1       0.129   9.314  21.416  0.00  0.00    +0.000 N 
ATOM     26  H   UNL     1      -0.708   8.870  21.063  0.00  0.00    +0.000 HD
BRANCH  25  27
ATOM     27  C   UNL     1       1.287   8.486  21.638  0.00  0.00    +0.000 C 
BRANCH  27  28
ATOM     28  C   UNL     1       1.732   7.812  20.375  0.00  0.00    +0.000 A 
ATOM     29  C   UNL     1       1.894   8.522  19.182  0.00  0.00    +0.000 A 
ATOM     30  C   UNL     1       2.301   7.851  18.032  0.00  0.00    +0.000 A 
ATOM     31  C   UNL     1       2.545   6.490  18.117  0.00  0.00    +0.000 A 
ATOM     32  N   UNL     1       2.424   5.775  19.254  0.00  0.00    +0.000 NA
ATOM     33  C   UNL     1       2.027   6.452  20.357  0.00  0.00    +0.000 A 
ENDBRANCH  27  28
ENDBRANCH  25  27
ENDBRANCH   1  24
TORSDOF 3
ENDMDL
MODEL 8
REMARK VINA RESULT:      -7.9      3.306      7.019
REMARK  Name = 
REMARK  3 active torsions:
REMARK  status: ('A' for Active; 'I' for Inactive)
REMARK    1  A    between atoms: C_2  and  C_11
REMARK    2  A    between atoms: N_3  and  C_4
REMARK    3  A    between atoms: C_4  and  C_5
REMARK                            x       y       z     vdW  Elec       q    Type
REMARK                         _______ _______ _______ _____ _____    ______ ____
ROOT
ATOM      1  C   UNL     1       4.663   6.458  17.058  0.00  0.00    +0.000 A 
ATOM      2  C   UNL     1       4.223   7.789  17.167  0.00  0.00    +0.000 A 
ATOM      3  C   UNL     1       3.082   8.096  17.928  0.00  0.00    +0.000 A 
ATOM      4  C   UNL     1       2.383   9.299  18.199  0.00  0.00    +0.000 A 
ATOM      5  C   UNL     1       2.587  10.634  17.802  0.00  0.00    +0.000 A 
ATOM      6  C   UNL     1       1.703  11.621  18.229  0.00  0.00    +0.000 A 
ATOM      7  C   UNL     1       0.623  11.281  19.037  0.00  0.00    +0.000 A 
ATOM      8  C   UNL     1       0.391   9.953  19.442  0.00  0.00    +0.000 A 
ATOM      9  C   UNL     1       1.293   8.965  19.010  0.00  0.00    +0.000 A 
ATOM     10  N   UNL     1       1.339   7.582  19.221  0.00  0.00    +0.000 N 
ATOM     11  C   UNL     1       2.406   7.071  18.572  0.00  0.00    +0.000 A 
ATOM     12  C   UNL     1       2.809   5.756  18.471  0.00  0.00    +0.000 A 
ATOM     13  C   UNL     1       3.925   5.464  17.703  0.00  0.00    +0.000 A 
ATOM     14  N   UNL     1       4.088   4.109  17.721  0.00  0.00    +0.000 N 
ATOM     15  C   UNL     1       3.088   3.509  18.441  0.00  0.00    +0.000 A 
ATOM     16  C   UNL     1       2.873   2.138  18.618  0.00  0.00    +0.000 A 
ATOM     17  C   UNL     1       1.797   1.749  19.407  0.00  0.00    +0.000 A 
ATOM     18  C   UNL     1       0.992   2.708  20.016  0.00  0.00    +0.000 A 
ATOM     19  C   UNL     1       1.214   4.089  19.823  0.00  0.00    +0.000 A 
ATOM     20  C   UNL     1       2.273   4.517  18.991  0.00  0.00    +0.000 A 
ATOM     21  H   UNL     1       0.655   7.074  19.759  0.00  0.00    +0.000 HD
ATOM     22  H   UNL     1       4.818   3.629  17.210  0.00  0.00    +0.000 HD
ENDROOT
BRANCH   1  24
ATOM     23  O   UNL     1       6.932   6.594  16.480  0.00  0.00    +0.000 OA
ATOM     24  C   UNL     1       5.841   6.081  16.252  0.00  0.00    +0.000 C 
ATOM     25  N   UNL     1       5.608   5.193  15.228  0.00  0.00    +0.000 N 
ATOM     26  H   UNL     1       4.653   5.020  14.944  0.00  0.00    +0.000 HD
BRANCH  25  27
ATOM     27  C   UNL     1       6.657   4.857  14.300  0.00  0.00    +0.000 C 
BRANCH  27  28
ATOM     28  C   UNL     1       6.153   3.978  13.195  0.00  0.00    +0.000 A 
ATOM     29  C   UNL     1       4.800   3.939  12.847  0.00  0.00    +0.000 A 
ATOM     30  C   UNL     1       4.378   3.101  11.819  0.00  0.00    +0.000 A 
ATOM     31  C   UNL     1       5.328   2.337  11.162  0.00  0.00    +0.000 A 
ATOM     32  N   UNL     1       6.645   2.365  11.452  0.00  0.00    +0.000 NA
ATOM     33  C   UNL     1       7.028   3.188  12.455  0.00  0.00    +0.000 A 
ENDBRANCH  27  28
ENDBRANCH  25  27
ENDBRANCH   1  24
TORSDOF 3
ENDMDL
MODEL 9
REMARK VINA RESULT:      -7.9      3.388      6.940
REMARK  Name = 
REMARK  3 active torsions:
REMARK  status: ('A' for Active; 'I' for Inactive)
REMARK    1  A    between atoms: C_2  and  C_11
REMARK    2  A    between atoms: N_3  and  C_4
REMARK    3  A    between atoms: C_4  and  C_5
REMARK                            x       y       z     vdW  Elec       q    Type
REMARK                         _______ _______ _______ _____ _____    ______ ____
ROOT
ATOM      1  C   UNL     1       5.056   6.211  17.302  0.00  0.00    +0.000 A 
ATOM      2  C   UNL     1       4.372   7.437  17.237  0.00  0.00    +0.000 A 
ATOM      3  C   UNL     1       3.311   7.702  18.120  0.00  0.00    +0.000 A 
ATOM      4  C   UNL     1       2.425   8.796  18.283  0.00  0.00    +0.000 A 
ATOM      5  C   UNL     1       2.292  10.027  17.613  0.00  0.00    +0.000 A 
ATOM      6  C   UNL     1       1.292  10.916  17.999  0.00  0.00    +0.000 A 
ATOM      7  C   UNL     1       0.429  10.580  19.037  0.00  0.00    +0.000 A 
ATOM      8  C   UNL     1       0.535   9.353  19.719  0.00  0.00    +0.000 A 
ATOM      9  C   UNL     1       1.551   8.465  19.324  0.00  0.00    +0.000 A 
ATOM     10  N   UNL     1       1.909   7.190  19.778  0.00  0.00    +0.000 N 
ATOM     11  C   UNL     1       2.957   6.742  19.056  0.00  0.00    +0.000 A 
ATOM     12  C   UNL     1       3.604   5.526  19.131  0.00  0.00    +0.000 A 
ATOM     13  C   UNL     1       4.637   5.270  18.244  0.00  0.00    +0.000 A 
ATOM     14  N   UNL     1       5.075   4.001  18.485  0.00  0.00    +0.000 N 
ATOM     15  C   UNL     1       4.332   3.408  19.473  0.00  0.00    +0.000 A 
ATOM     16  C   UNL     1       4.430   2.093  19.939  0.00  0.00    +0.000 A 
ATOM     17  C   UNL     1       3.580   1.707  20.967  0.00  0.00    +0.000 A 
ATOM     18  C   UNL     1       2.688   2.622  21.520  0.00  0.00    +0.000 A 
ATOM     19  C   UNL     1       2.592   3.944  21.036  0.00  0.00    +0.000 A 
ATOM     20  C   UNL     1       3.412   4.356  19.962  0.00  0.00    +0.000 A 
ATOM     21  H   UNL     1       1.428   6.701  20.516  0.00  0.00    +0.000 HD
ATOM     22  H   UNL     1       5.810   3.554  17.951  0.00  0.00    +0.000 HD
ENDROOT
BRANCH   1  24
ATOM     23  O   UNL     1       7.295   6.288  16.608  0.00  0.00    +0.000 OA
ATOM     24  C   UNL     1       6.162   5.877  16.382  0.00  0.00    +0.000 C 
ATOM     25  N   UNL     1       5.814   5.151  15.267  0.00  0.00    +0.000 N 
ATOM     26  H   UNL     1       4.837   5.075  15.023  0.00  0.00    +0.000 HD
BRANCH  25  27
ATOM     27  C   UNL     1       6.788   4.881  14.240  0.00  0.00    +0.000 C 
BRANCH  27  28
ATOM     28  C   UNL     1       6.223   4.001  13.165  0.00  0.00    +0.000 A 
ATOM     29  C   UNL     1       4.858   3.992  12.866  0.00  0.00    +0.000 A 
ATOM     30  C   UNL     1       4.379   3.152  11.865  0.00  0.00    +0.000 A 
ATOM     31  C   UNL     1       5.286   2.356  11.184  0.00  0.00    +0.000 A 
ATOM     32  N   UNL     1       6.613   2.355  11.427  0.00  0.00    +0.000 NA
ATOM     33  C   UNL     1       7.052   3.181  12.405  0.00  0.00    +0.000 A 
ENDBRANCH  27  28
ENDBRANCH  25  27
ENDBRANCH   1  24
TORSDOF 3
ENDMDL
