MODEL 1
REMARK VINA RESULT:      -8.9      0.000      0.000
REMARK  Name = 
REMARK  4 active torsions:
REMARK  status: ('A' for Active; 'I' for Inactive)
REMARK    1  A    between atoms: C_2  and  C_17
REMARK    2  A    between atoms: N_3  and  N_4
REMARK    3  A    between atoms: C_9  and  C_10
REMARK    4  A    between atoms: C_19  and  C_20
REMARK                            x       y       z     vdW  Elec       q    Type
REMARK                         _______ _______ _______ _____ _____    ______ ____
ROOT
ATOM      1  O   UNL     1       0.440   9.340  21.509  0.00  0.00    +0.000 OA
ATOM      2  C   UNL     1       0.896   9.311  20.372  0.00  0.00    +0.000 C 
ATOM      3  N   UNL     1       0.839  10.371  19.474  0.00  0.00    +0.000 N 
ATOM      4  H   UNL     1       1.128  10.254  18.512  0.00  0.00    +0.000 HD
ENDROOT
BRANCH   3   5
ATOM      5  N   UNL     1       0.201  11.577  19.838  0.00  0.00    +0.000 N 
ATOM      6  C   UNL     1       0.821  12.411  20.770  0.00  0.00    +0.000 C 
ATOM      7  O   UNL     1       1.942  12.255  21.242  0.00  0.00    +0.000 OA
ATOM      8  C   UNL     1      -0.087  13.554  21.167  0.00  0.00    +0.000 C 
ATOM      9  S   UNL     1      -1.717  13.227  20.445  0.00  0.00    +0.000 S 
ATOM     10  C   UNL     1      -1.249  11.574  19.884  0.00  0.00    +0.000 C 
BRANCH  10  11
ATOM     11  C   UNL     1      -1.967  11.155  18.618  0.00  0.00    +0.000 A 
ATOM     12  C   UNL     1      -3.196  11.717  18.238  0.00  0.00    +0.000 A 
ATOM     13  C   UNL     1      -3.799  11.361  17.027  0.00  0.00    +0.000 A 
ATOM     14  C   UNL     1      -3.192  10.423  16.195  0.00  0.00    +0.000 A 
ATOM     15 CL   UNL     1      -3.901  10.034  14.678  0.00  0.00    +0.000 Cl
ATOM     16  C   UNL     1      -2.006   9.806  16.583  0.00  0.00    +0.000 A 
ATOM     17  C   UNL     1      -1.400  10.165  17.791  0.00  0.00    +0.000 A 
ENDBRANCH  10  11
ENDBRANCH   3   5
BRANCH   2  18
ATOM     18  C   UNL     1       1.588   8.157  19.863  0.00  0.00    +0.000 A 
ATOM     19  C   UNL     1       2.179   7.907  18.644  0.00  0.00    +0.000 A 
ATOM     20  C   UNL     1       2.865   6.671  18.780  0.00  0.00    +0.000 A 
ATOM     21  N   UNL     1       2.642   6.145  19.994  0.00  0.00    +0.000 NA
ATOM     22  N   UNL     1       1.870   7.053  20.620  0.00  0.00    +0.000 N 
ATOM     23  H   UNL     1       1.583   6.878  21.580  0.00  0.00    +0.000 HD
BRANCH  20  24
ATOM     24  C   UNL     1       3.767   6.074  17.798  0.00  0.00    +0.000 A 
ATOM     25  C   UNL     1       4.537   6.874  16.942  0.00  0.00    +0.000 A 
ATOM     26  C   UNL     1       5.297   6.294  15.920  0.00  0.00    +0.000 A 
ATOM     27  C   UNL     1       5.298   4.911  15.755  0.00  0.00    +0.000 A 
ATOM     28 CL   UNL     1       6.196   4.197  14.474  0.00  0.00    +0.000 Cl
ATOM     29  C   UNL     1       4.564   4.099  16.615  0.00  0.00    +0.000 A 
ATOM     30  C   UNL     1       3.807   4.678  17.635  0.00  0.00    +0.000 A 
ENDBRANCH  20  24
ENDBRANCH   2  18
TORSDOF 4
ENDMDL
MODEL 2
REMARK VINA RESULT:      -8.9      1.067      1.155
REMARK  Name = 
REMARK  4 active torsions:
REMARK  status: ('A' for Active; 'I' for Inactive)
REMARK    1  A    between atoms: C_2  and  C_17
REMARK    2  A    between atoms: N_3  and  N_4
REMARK    3  A    between atoms: C_9  and  C_10
REMARK    4  A    between atoms: C_19  and  C_20
REMARK                            x       y       z     vdW  Elec       q    Type
REMARK                         _______ _______ _______ _____ _____    ______ ____
ROOT
ATOM      1  O   UNL     1       1.498  11.280  18.670  0.00  0.00    +0.000 OA
ATOM      2  C   UNL     1       0.999  10.266  19.143  0.00  0.00    +0.000 C 
ATOM      3  N   UNL     1      -0.199  10.233  19.848  0.00  0.00    +0.000 N 
ATOM      4  H   UNL     1      -0.506   9.389  20.314  0.00  0.00    +0.000 HD
ENDROOT
BRANCH   3   5
ATOM      5  N   UNL     1      -0.917  11.426  20.084  0.00  0.00    +0.000 N 
ATOM      6  C   UNL     1      -0.554  12.226  21.169  0.00  0.00    +0.000 C 
ATOM      7  O   UNL     1       0.416  12.053  21.899  0.00  0.00    +0.000 OA
ATOM      8  C   UNL     1      -1.542  13.355  21.367  0.00  0.00    +0.000 C 
ATOM      9  S   UNL     1      -2.938  13.055  20.252  0.00  0.00    +0.000 S 
ATOM     10  C   UNL     1      -2.333  11.422  19.768  0.00  0.00    +0.000 C 
BRANCH  10  11
ATOM     11  C   UNL     1      -2.710  11.050  18.351  0.00  0.00    +0.000 A 
ATOM     12  C   UNL     1      -3.815  11.621  17.698  0.00  0.00    +0.000 A 
ATOM     13  C   UNL     1      -4.096  11.309  16.364  0.00  0.00    +0.000 A 
ATOM     14  C   UNL     1      -3.290  10.405  15.675  0.00  0.00    +0.000 A 
ATOM     15 CL   UNL     1      -3.598  10.072  14.016  0.00  0.00    +0.000 Cl
ATOM     16  C   UNL     1      -2.228   9.779  16.322  0.00  0.00    +0.000 A 
ATOM     17  C   UNL     1      -1.944  10.094  17.654  0.00  0.00    +0.000 A 
ENDBRANCH  10  11
ENDBRANCH   3   5
BRANCH   2  18
ATOM     18  C   UNL     1       1.607   8.973  18.973  0.00  0.00    +0.000 A 
ATOM     19  C   UNL     1       2.231   8.391  17.891  0.00  0.00    +0.000 A 
ATOM     20  C   UNL     1       2.795   7.176  18.364  0.00  0.00    +0.000 A 
ATOM     21  N   UNL     1       2.466   6.978  19.650  0.00  0.00    +0.000 NA
ATOM     22  N   UNL     1       1.750   8.067  19.987  0.00  0.00    +0.000 N 
ATOM     23  H   UNL     1       1.402   8.154  20.939  0.00  0.00    +0.000 HD
BRANCH  20  24
ATOM     24  C   UNL     1       3.686   6.292  17.617  0.00  0.00    +0.000 A 
ATOM     25  C   UNL     1       4.701   6.809  16.800  0.00  0.00    +0.000 A 
ATOM     26  C   UNL     1       5.463   5.960  15.988  0.00  0.00    +0.000 A 
ATOM     27  C   UNL     1       5.218   4.588  15.998  0.00  0.00    +0.000 A 
ATOM     28 CL   UNL     1       6.122   3.546  14.971  0.00  0.00    +0.000 Cl
ATOM     29  C   UNL     1       4.235   4.054  16.826  0.00  0.00    +0.000 A 
ATOM     30  C   UNL     1       3.477   4.901  17.635  0.00  0.00    +0.000 A 
ENDBRANCH  20  24
ENDBRANCH   2  18
TORSDOF 4
ENDMDL
MODEL 3
REMARK VINA RESULT:      -8.5      4.363      8.862
REMARK  Name = 
REMARK  4 active torsions:
REMARK  status: ('A' for Active; 'I' for Inactive)
REMARK    1  A    between atoms: C_2  and  C_17
REMARK    2  A    between atoms: N_3  and  N_4
REMARK    3  A    between atoms: C_9  and  C_10
REMARK    4  A    between atoms: C_19  and  C_20
REMARK                            x       y       z     vdW  Elec       q    Type
REMARK                         _______ _______ _______ _____ _____    ______ ____
ROOT
ATOM      1  O   UNL     1       3.853   6.438  19.674  0.00  0.00    +0.000 OA
ATOM      2  C   UNL     1       3.200   6.941  18.766  0.00  0.00    +0.000 C 
ATOM      3  N   UNL     1       3.307   6.580  17.428  0.00  0.00    +0.000 N 
ATOM      4  H   UNL     1       2.829   7.106  16.708  0.00  0.00    +0.000 HD
ENDROOT
BRANCH   3   5
ATOM      5  N   UNL     1       4.232   5.590  17.031  0.00  0.00    +0.000 N 
ATOM      6  C   UNL     1       5.212   5.922  16.094  0.00  0.00    +0.000 C 
ATOM      7  O   UNL     1       5.427   7.042  15.643  0.00  0.00    +0.000 OA
ATOM      8  C   UNL     1       5.987   4.698  15.660  0.00  0.00    +0.000 C 
ATOM      9  S   UNL     1       5.152   3.251  16.361  0.00  0.00    +0.000 S 
ATOM     10  C   UNL     1       3.752   4.223  16.961  0.00  0.00    +0.000 C 
BRANCH  10  11
ATOM     11  C   UNL     1       3.137   3.655  18.222  0.00  0.00    +0.000 A 
ATOM     12  C   UNL     1       3.919   3.120  19.258  0.00  0.00    +0.000 A 
ATOM     13  C   UNL     1       3.325   2.669  20.441  0.00  0.00    +0.000 A 
ATOM     14  C   UNL     1       1.941   2.724  20.592  0.00  0.00    +0.000 A 
ATOM     15 CL   UNL     1       1.218   2.229  22.071  0.00  0.00    +0.000 Cl
ATOM     16  C   UNL     1       1.142   3.191  19.552  0.00  0.00    +0.000 A 
ATOM     17  C   UNL     1       1.736   3.648  18.372  0.00  0.00    +0.000 A 
ENDBRANCH  10  11
ENDBRANCH   3   5
BRANCH   2  18
ATOM     18  C   UNL     1       2.208   7.952  19.018  0.00  0.00    +0.000 A 
ATOM     19  C   UNL     1       1.476   8.256  20.144  0.00  0.00    +0.000 A 
ATOM     20  C   UNL     1       0.791   9.467  19.859  0.00  0.00    +0.000 A 
ATOM     21  N   UNL     1       1.024   9.848  18.594  0.00  0.00    +0.000 NA
ATOM     22  N   UNL     1       1.872   8.920  18.112  0.00  0.00    +0.000 N 
ATOM     23  H   UNL     1       2.212   9.011  17.157  0.00  0.00    +0.000 HD
BRANCH  20  24
ATOM     24  C   UNL     1       0.013  10.260  20.808  0.00  0.00    +0.000 A 
ATOM     25  C   UNL     1      -0.087   9.885  22.154  0.00  0.00    +0.000 A 
ATOM     26  C   UNL     1      -0.939  10.576  23.024  0.00  0.00    +0.000 A 
ATOM     27  C   UNL     1      -1.687  11.653  22.552  0.00  0.00    +0.000 A 
ATOM     28 CL   UNL     1      -2.766  12.479  23.605  0.00  0.00    +0.000 Cl
ATOM     29  C   UNL     1      -1.576  12.059  21.225  0.00  0.00    +0.000 A 
ATOM     30  C   UNL     1      -0.726  11.369  20.359  0.00  0.00    +0.000 A 
ENDBRANCH  20  24
ENDBRANCH   2  18
TORSDOF 4
ENDMDL
MODEL 4
REMARK VINA RESULT:      -8.5      3.079      3.857
REMARK  Name = 
REMARK  4 active torsions:
REMARK  status: ('A' for Active; 'I' for Inactive)
REMARK    1  A    between atoms: C_2  and  C_17
REMARK    2  A    between atoms: N_3  and  N_4
REMARK    3  A    between atoms: C_9  and  C_10
REMARK    4  A    between atoms: C_19  and  C_20
REMARK                            x       y       z     vdW  Elec       q    Type
REMARK                         _______ _______ _______ _____ _____    ______ ____
ROOT
ATOM      1  O   UNL     1       1.856   9.570  22.671  0.00  0.00    +0.000 OA
ATOM      2  C   UNL     1       1.280   9.341  21.613  0.00  0.00    +0.000 C 
ATOM      3  N   UNL     1       0.311  10.163  21.051  0.00  0.00    +0.000 N 
ATOM      4  H   UNL     1      -0.212   9.870  20.237  0.00  0.00    +0.000 HD
ENDROOT
BRANCH   3   5
ATOM      5  N   UNL     1      -0.094  11.342  21.716  0.00  0.00    +0.000 N 
ATOM      6  C   UNL     1      -1.002  11.241  22.771  0.00  0.00    +0.000 C 
ATOM      7  O   UNL     1      -1.418  10.199  23.266  0.00  0.00    +0.000 OA
ATOM      8  C   UNL     1      -1.451  12.608  23.236  0.00  0.00    +0.000 C 
ATOM      9  S   UNL     1      -0.805  13.821  22.054  0.00  0.00    +0.000 S 
ATOM     10  C   UNL     1      -0.209  12.548  20.919  0.00  0.00    +0.000 C 
BRANCH  10  11
ATOM     11  C   UNL     1       1.025  12.973  20.151  0.00  0.00    +0.000 A 
ATOM     12  C   UNL     1       1.158  12.750  18.771  0.00  0.00    +0.000 A 
ATOM     13  C   UNL     1       2.278  13.219  18.077  0.00  0.00    +0.000 A 
ATOM     14  C   UNL     1       3.288  13.893  18.759  0.00  0.00    +0.000 A 
ATOM     15 CL   UNL     1       4.634  14.525  17.893  0.00  0.00    +0.000 Cl
ATOM     16  C   UNL     1       3.207  14.069  20.137  0.00  0.00    +0.000 A 
ATOM     17  C   UNL     1       2.085  13.606  20.830  0.00  0.00    +0.000 A 
ENDBRANCH  10  11
ENDBRANCH   3   5
BRANCH   2  18
ATOM     18  C   UNL     1       1.596   8.187  20.815  0.00  0.00    +0.000 A 
ATOM     19  C   UNL     1       2.184   8.064  19.575  0.00  0.00    +0.000 A 
ATOM     20  C   UNL     1       2.406   6.675  19.375  0.00  0.00    +0.000 A 
ATOM     21  N   UNL     1       1.907   5.971  20.403  0.00  0.00    +0.000 NA
ATOM     22  N   UNL     1       1.423   6.901  21.247  0.00  0.00    +0.000 N 
ATOM     23  H   UNL     1       1.005   6.600  22.125  0.00  0.00    +0.000 HD
BRANCH  20  24
ATOM     24  C   UNL     1       3.149   6.072  18.271  0.00  0.00    +0.000 A 
ATOM     25  C   UNL     1       3.055   4.699  18.001  0.00  0.00    +0.000 A 
ATOM     26  C   UNL     1       3.870   4.110  17.027  0.00  0.00    +0.000 A 
ATOM     27  C   UNL     1       4.773   4.893  16.312  0.00  0.00    +0.000 A 
ATOM     28 CL   UNL     1       5.805   4.166  15.144  0.00  0.00    +0.000 Cl
ATOM     29  C   UNL     1       4.857   6.262  16.545  0.00  0.00    +0.000 A 
ATOM     30  C   UNL     1       4.044   6.849  17.516  0.00  0.00    +0.000 A 
ENDBRANCH  20  24
ENDBRANCH   2  18
TORSDOF 4
ENDMDL
MODEL 5
REMARK VINA RESULT:      -8.5      5.794      7.890
REMARK  Name = 
REMARK  4 active torsions:
REMARK  status: ('A' for Active; 'I' for Inactive)
REMARK    1  A    between atoms: C_2  and  C_17
REMARK    2  A    between atoms: N_3  and  N_4
REMARK    3  A    between atoms: C_9  and  C_10
REMARK    4  A    between atoms: C_19  and  C_20
REMARK                            x       y       z     vdW  Elec       q    Type
REMARK                         _______ _______ _______ _____ _____    ______ ____
ROOT
ATOM      1  O   UNL     1       5.998   6.415  16.403  0.00  0.00    +0.000 OA
ATOM      2  C   UNL     1       6.232   6.795  17.545  0.00  0.00    +0.000 C 
ATOM      3  N   UNL     1       5.557   6.349  18.675  0.00  0.00    +0.000 N 
ATOM      4  H   UNL     1       5.712   6.780  19.577  0.00  0.00    +0.000 HD
ENDROOT
BRANCH   3   5
ATOM      5  N   UNL     1       4.505   5.415  18.553  0.00  0.00    +0.000 N 
ATOM      6  C   UNL     1       4.821   4.066  18.379  0.00  0.00    +0.000 C 
ATOM      7  O   UNL     1       5.945   3.578  18.427  0.00  0.00    +0.000 OA
ATOM      8  C   UNL     1       3.582   3.249  18.087  0.00  0.00    +0.000 C 
ATOM      9  S   UNL     1       2.214   4.412  17.838  0.00  0.00    +0.000 S 
ATOM     10  C   UNL     1       3.299   5.856  17.878  0.00  0.00    +0.000 C 
BRANCH  10  11
ATOM     11  C   UNL     1       2.622   7.088  18.439  0.00  0.00    +0.000 A 
ATOM     12  C   UNL     1       2.385   8.230  17.656  0.00  0.00    +0.000 A 
ATOM     13  C   UNL     1       1.693   9.325  18.183  0.00  0.00    +0.000 A 
ATOM     14  C   UNL     1       1.251   9.301  19.503  0.00  0.00    +0.000 A 
ATOM     15 CL   UNL     1       0.344  10.621  20.130  0.00  0.00    +0.000 Cl
ATOM     16  C   UNL     1       1.530   8.205  20.316  0.00  0.00    +0.000 A 
ATOM     17  C   UNL     1       2.218   7.108  19.788  0.00  0.00    +0.000 A 
ENDBRANCH  10  11
ENDBRANCH   3   5
BRANCH   2  18
ATOM     18  C   UNL     1       7.284   7.734  17.830  0.00  0.00    +0.000 A 
ATOM     19  C   UNL     1       7.524   9.008  17.365  0.00  0.00    +0.000 A 
ATOM     20  C   UNL     1       8.604   9.516  18.135  0.00  0.00    +0.000 A 
ATOM     21  N   UNL     1       9.061   8.574  18.974  0.00  0.00    +0.000 NA
ATOM     22  N   UNL     1       8.256   7.516  18.767  0.00  0.00    +0.000 N 
ATOM     23  H   UNL     1       8.399   6.671  19.316  0.00  0.00    +0.000 HD
BRANCH  20  24
ATOM     24  C   UNL     1       9.111  10.886  18.110  0.00  0.00    +0.000 A 
ATOM     25  C   UNL     1       8.262  11.966  17.829  0.00  0.00    +0.000 A 
ATOM     26  C   UNL     1       8.782  13.257  17.678  0.00  0.00    +0.000 A 
ATOM     27  C   UNL     1      10.151  13.475  17.819  0.00  0.00    +0.000 A 
ATOM     28 CL   UNL     1      10.799  15.052  17.593  0.00  0.00    +0.000 Cl
ATOM     29  C   UNL     1      11.003  12.419  18.129  0.00  0.00    +0.000 A 
ATOM     30  C   UNL     1      10.484  11.133  18.279  0.00  0.00    +0.000 A 
ENDBRANCH  20  24
ENDBRANCH   2  18
TORSDOF 4
ENDMDL
MODEL 6
REMARK VINA RESULT:      -8.5      3.765      8.844
REMARK  Name = 
REMARK  4 active torsions:
REMARK  status: ('A' for Active; 'I' for Inactive)
REMARK    1  A    between atoms: C_2  and  C_17
REMARK    2  A    between atoms: N_3  and  N_4
REMARK    3  A    between atoms: C_9  and  C_10
REMARK    4  A    between atoms: C_19  and  C_20
REMARK                            x       y       z     vdW  Elec       q    Type
REMARK                         _______ _______ _______ _____ _____    ______ ____
ROOT
ATOM      1  O   UNL     1       2.888   6.475  20.439  0.00  0.00    +0.000 OA
ATOM      2  C   UNL     1       2.500   6.626  19.286  0.00  0.00    +0.000 C 
ATOM      3  N   UNL     1       2.316   5.591  18.377  0.00  0.00    +0.000 N 
ATOM      4  H   UNL     1       2.105   5.782  17.406  0.00  0.00    +0.000 HD
ENDROOT
BRANCH   3   5
ATOM      5  N   UNL     1       2.603   4.259  18.748  0.00  0.00    +0.000 N 
ATOM      6  C   UNL     1       1.725   3.597  19.608  0.00  0.00    +0.000 C 
ATOM      7  O   UNL     1       0.646   4.024  20.004  0.00  0.00    +0.000 OA
ATOM      8  C   UNL     1       2.286   2.258  20.034  0.00  0.00    +0.000 C 
ATOM      9  S   UNL     1       3.995   2.173  19.439  0.00  0.00    +0.000 S 
ATOM     10  C   UNL     1       4.000   3.897  18.896  0.00  0.00    +0.000 C 
BRANCH  10  11
ATOM     11  C   UNL     1       4.893   4.136  17.698  0.00  0.00    +0.000 A 
ATOM     12  C   UNL     1       4.463   3.883  16.386  0.00  0.00    +0.000 A 
ATOM     13  C   UNL     1       5.286   4.182  15.294  0.00  0.00    +0.000 A 
ATOM     14  C   UNL     1       6.556   4.714  15.505  0.00  0.00    +0.000 A 
ATOM     15 CL   UNL     1       7.542   5.141  14.162  0.00  0.00    +0.000 Cl
ATOM     16  C   UNL     1       7.027   4.913  16.800  0.00  0.00    +0.000 A 
ATOM     17  C   UNL     1       6.202   4.619  17.890  0.00  0.00    +0.000 A 
ENDBRANCH  10  11
ENDBRANCH   3   5
BRANCH   2  18
ATOM     18  C   UNL     1       2.154   7.922  18.768  0.00  0.00    +0.000 A 
ATOM     19  C   UNL     1       1.402   8.948  19.296  0.00  0.00    +0.000 A 
ATOM     20  C   UNL     1       1.559  10.051  18.415  0.00  0.00    +0.000 A 
ATOM     21  N   UNL     1       2.304   9.700  17.355  0.00  0.00    +0.000 NA
ATOM     22  N   UNL     1       2.642   8.418  17.590  0.00  0.00    +0.000 N 
ATOM     23  H   UNL     1       3.235   7.934  16.920  0.00  0.00    +0.000 HD
BRANCH  20  24
ATOM     24  C   UNL     1       1.075  11.411  18.642  0.00  0.00    +0.000 A 
ATOM     25  C   UNL     1      -0.285  11.667  18.868  0.00  0.00    +0.000 A 
ATOM     26  C   UNL     1      -0.756  12.982  18.954  0.00  0.00    +0.000 A 
ATOM     27  C   UNL     1       0.132  14.047  18.824  0.00  0.00    +0.000 A 
ATOM     28 CL   UNL     1      -0.448  15.665  18.886  0.00  0.00    +0.000 Cl
ATOM     29  C   UNL     1       1.490  13.811  18.631  0.00  0.00    +0.000 A 
ATOM     30  C   UNL     1       1.959  12.500  18.546  0.00  0.00    +0.000 A 
ENDBRANCH  20  24
ENDBRANCH   2  18
TORSDOF 4
ENDMDL
MODEL 7
REMARK VINA RESULT:      -8.5      4.346      9.047
REMARK  Name = 
REMARK  4 active torsions:
REMARK  status: ('A' for Active; 'I' for Inactive)
REMARK    1  A    between atoms: C_2  and  C_17
REMARK    2  A    between atoms: N_3  and  N_4
REMARK    3  A    between atoms: C_9  and  C_10
REMARK    4  A    between atoms: C_19  and  C_20
REMARK                            x       y       z     vdW  Elec       q    Type
REMARK                         _______ _______ _______ _____ _____    ______ ____
ROOT
ATOM      1  O   UNL     1       1.976   7.012  17.840  0.00  0.00    +0.000 OA
ATOM      2  C   UNL     1       2.036   6.819  19.050  0.00  0.00    +0.000 C 
ATOM      3  N   UNL     1       2.409   5.615  19.637  0.00  0.00    +0.000 N 
ATOM      4  H   UNL     1       2.330   5.478  20.636  0.00  0.00    +0.000 HD
ENDROOT
BRANCH   3   5
ATOM      5  N   UNL     1       2.727   4.500  18.831  0.00  0.00    +0.000 N 
ATOM      6  C   UNL     1       1.778   3.487  18.680  0.00  0.00    +0.000 C 
ATOM      7  O   UNL     1       0.626   3.512  19.099  0.00  0.00    +0.000 OA
ATOM      8  C   UNL     1       2.359   2.303  17.939  0.00  0.00    +0.000 C 
ATOM      9  S   UNL     1       4.140   2.593  17.767  0.00  0.00    +0.000 S 
ATOM     10  C   UNL     1       4.107   4.056  18.827  0.00  0.00    +0.000 C 
BRANCH  10  11
ATOM     11  C   UNL     1       5.150   5.085  18.445  0.00  0.00    +0.000 A 
ATOM     12  C   UNL     1       5.005   5.910  17.319  0.00  0.00    +0.000 A 
ATOM     13  C   UNL     1       5.951   6.900  17.032  0.00  0.00    +0.000 A 
ATOM     14  C   UNL     1       7.064   7.059  17.855  0.00  0.00    +0.000 A 
ATOM     15 CL   UNL     1       8.192   8.318  17.539  0.00  0.00    +0.000 Cl
ATOM     16  C   UNL     1       7.260   6.210  18.941  0.00  0.00    +0.000 A 
ATOM     17  C   UNL     1       6.312   5.224  19.230  0.00  0.00    +0.000 A 
ENDBRANCH  10  11
ENDBRANCH   3   5
BRANCH   2  18
ATOM     18  C   UNL     1       1.755   7.864  19.997  0.00  0.00    +0.000 A 
ATOM     19  C   UNL     1       1.265   9.141  19.832  0.00  0.00    +0.000 A 
ATOM     20  C   UNL     1       1.023   9.646  21.138  0.00  0.00    +0.000 A 
ATOM     21  N   UNL     1       1.419   8.758  22.062  0.00  0.00    +0.000 NA
ATOM     22  N   UNL     1       1.858   7.702  21.351  0.00  0.00    +0.000 N 
ATOM     23  H   UNL     1       2.196   6.880  21.846  0.00  0.00    +0.000 HD
BRANCH  20  24
ATOM     24  C   UNL     1       0.355  10.904  21.465  0.00  0.00    +0.000 A 
ATOM     25  C   UNL     1       0.730  12.104  20.845  0.00  0.00    +0.000 A 
ATOM     26  C   UNL     1       0.175  13.321  21.259  0.00  0.00    +0.000 A 
ATOM     27  C   UNL     1      -0.763  13.341  22.289  0.00  0.00    +0.000 A 
ATOM     28 CL   UNL     1      -1.415  14.838  22.830  0.00  0.00    +0.000 Cl
ATOM     29  C   UNL     1      -1.170  12.155  22.894  0.00  0.00    +0.000 A 
ATOM     30  C   UNL     1      -0.617  10.943  22.479  0.00  0.00    +0.000 A 
ENDBRANCH  20  24
ENDBRANCH   2  18
TORSDOF 4
ENDMDL
MODEL 8
REMARK VINA RESULT:      -8.4      3.064      3.799
REMARK  Name = 
REMARK  4 active torsions:
REMARK  status: ('A' for Active; 'I' for Inactive)
REMARK    1  A    between atoms: C_2  and  C_17
REMARK    2  A    between atoms: N_3  and  N_4
REMARK    3  A    between atoms: C_9  and  C_10
REMARK    4  A    between atoms: C_19  and  C_20
REMARK                            x       y       z     vdW  Elec       q    Type
REMARK                         _______ _______ _______ _____ _____    ______ ____
ROOT
ATOM      1  O   UNL     1      -0.498   9.897  19.483  0.00  0.00    +0.000 OA
ATOM      2  C   UNL     1       0.522   9.595  20.093  0.00  0.00    +0.000 C 
ATOM      3  N   UNL     1       0.998  10.270  21.211  0.00  0.00    +0.000 N 
ATOM      4  H   UNL     1       1.903  10.050  21.605  0.00  0.00    +0.000 HD
ENDROOT
BRANCH   3   5
ATOM      5  N   UNL     1       0.311  11.401  21.704  0.00  0.00    +0.000 N 
ATOM      6  C   UNL     1      -0.674  11.218  22.676  0.00  0.00    +0.000 C 
ATOM      7  O   UNL     1      -0.943  10.163  23.240  0.00  0.00    +0.000 OA
ATOM      8  C   UNL     1      -1.418  12.507  22.946  0.00  0.00    +0.000 C 
ATOM      9  S   UNL     1      -0.880  13.713  21.705  0.00  0.00    +0.000 S 
ATOM     10  C   UNL     1       0.064  12.486  20.774  0.00  0.00    +0.000 C 
BRANCH  10  11
ATOM     11  C   UNL     1       1.275  13.074  20.082  0.00  0.00    +0.000 A 
ATOM     12  C   UNL     1       2.228  13.842  20.770  0.00  0.00    +0.000 A 
ATOM     13  C   UNL     1       3.373  14.312  20.118  0.00  0.00    +0.000 A 
ATOM     14  C   UNL     1       3.565  14.040  18.766  0.00  0.00    +0.000 A 
ATOM     15 CL   UNL     1       5.003  14.563  17.981  0.00  0.00    +0.000 Cl
ATOM     16  C   UNL     1       2.602  13.336  18.049  0.00  0.00    +0.000 A 
ATOM     17  C   UNL     1       1.460  12.862  18.701  0.00  0.00    +0.000 A 
ENDBRANCH  10  11
ENDBRANCH   3   5
BRANCH   2  18
ATOM     18  C   UNL     1       1.319   8.458  19.718  0.00  0.00    +0.000 A 
ATOM     19  C   UNL     1       1.899   8.101  18.520  0.00  0.00    +0.000 A 
ATOM     20  C   UNL     1       2.718   6.974  18.794  0.00  0.00    +0.000 A 
ATOM     21  N   UNL     1       2.589   6.605  20.078  0.00  0.00    +0.000 NA
ATOM     22  N   UNL     1       1.741   7.507  20.606  0.00  0.00    +0.000 N 
ATOM     23  H   UNL     1       1.503   7.442  21.593  0.00  0.00    +0.000 HD
BRANCH  20  24
ATOM     24  C   UNL     1       3.651   6.341  17.865  0.00  0.00    +0.000 A 
ATOM     25  C   UNL     1       4.467   7.109  17.023  0.00  0.00    +0.000 A 
ATOM     26  C   UNL     1       5.260   6.494  16.046  0.00  0.00    +0.000 A 
ATOM     27  C   UNL     1       5.247   5.107  15.915  0.00  0.00    +0.000 A 
ATOM     28 CL   UNL     1       6.186   4.349  14.690  0.00  0.00    +0.000 Cl
ATOM     29  C   UNL     1       4.467   4.327  16.764  0.00  0.00    +0.000 A 
ATOM     30  C   UNL     1       3.677   4.941  17.737  0.00  0.00    +0.000 A 
ENDBRANCH  20  24
ENDBRANCH   2  18
TORSDOF 4
ENDMDL
MODEL 9
REMARK VINA RESULT:      -8.4      5.835      7.979
REMARK  Name = 
REMARK  4 active torsions:
REMARK  status: ('A' for Active; 'I' for Inactive)
REMARK    1  A    between atoms: C_2  and  C_17
REMARK    2  A    between atoms: N_3  and  N_4
REMARK    3  A    between atoms: C_9  and  C_10
REMARK    4  A    between atoms: C_19  and  C_20
REMARK                            x       y       z     vdW  Elec       q    Type
REMARK                         _______ _______ _______ _____ _____    ______ ____
ROOT
ATOM      1  O   UNL     1       5.947   6.477  16.337  0.00  0.00    +0.000 OA
ATOM      2  C   UNL     1       6.204   6.776  17.498  0.00  0.00    +0.000 C 
ATOM      3  N   UNL     1       5.560   6.242  18.608  0.00  0.00    +0.000 N 
ATOM      4  H   UNL     1       5.732   6.608  19.535  0.00  0.00    +0.000 HD
ENDROOT
BRANCH   3   5
ATOM      5  N   UNL     1       4.516   5.305  18.442  0.00  0.00    +0.000 N 
ATOM      6  C   UNL     1       4.843   3.971  18.192  0.00  0.00    +0.000 C 
ATOM      7  O   UNL     1       5.971   3.491  18.206  0.00  0.00    +0.000 OA
ATOM      8  C   UNL     1       3.608   3.161  17.865  0.00  0.00    +0.000 C 
ATOM      9  S   UNL     1       2.228   4.322  17.690  0.00  0.00    +0.000 S 
ATOM     10  C   UNL     1       3.301   5.772  17.801  0.00  0.00    +0.000 C 
BRANCH  10  11
ATOM     11  C   UNL     1       2.617   6.965  18.433  0.00  0.00    +0.000 A 
ATOM     12  C   UNL     1       2.223   6.972  19.780  0.00  0.00    +0.000 A 
ATOM     13  C   UNL     1       1.657   8.116  20.353  0.00  0.00    +0.000 A 
ATOM     14  C   UNL     1       1.458   9.257  19.579  0.00  0.00    +0.000 A 
ATOM     15 CL   UNL     1       0.823  10.683  20.300  0.00  0.00    +0.000 Cl
ATOM     16  C   UNL     1       1.783   9.251  18.226  0.00  0.00    +0.000 A 
ATOM     17  C   UNL     1       2.352   8.109  17.654  0.00  0.00    +0.000 A 
ENDBRANCH  10  11
ENDBRANCH   3   5
BRANCH   2  18
ATOM     18  C   UNL     1       7.252   7.705  17.826  0.00  0.00    +0.000 A 
ATOM     19  C   UNL     1       7.472   9.009  17.443  0.00  0.00    +0.000 A 
ATOM     20  C   UNL     1       8.562   9.476  18.225  0.00  0.00    +0.000 A 
ATOM     21  N   UNL     1       9.042   8.486  18.993  0.00  0.00    +0.000 NA
ATOM     22  N   UNL     1       8.242   7.435  18.730  0.00  0.00    +0.000 N 
ATOM     23  H   UNL     1       8.403   6.558  19.220  0.00  0.00    +0.000 HD
BRANCH  20  24
ATOM     24  C   UNL     1       9.055  10.850  18.282  0.00  0.00    +0.000 A 
ATOM     25  C   UNL     1      10.189  11.181  19.037  0.00  0.00    +0.000 A 
ATOM     26  C   UNL     1      10.576  12.517  19.191  0.00  0.00    +0.000 A 
ATOM     27  C   UNL     1       9.835  13.528  18.581  0.00  0.00    +0.000 A 
ATOM     28 CL   UNL     1      10.281  15.174  18.802  0.00  0.00    +0.000 Cl
ATOM     29  C   UNL     1       8.725  13.215  17.803  0.00  0.00    +0.000 A 
ATOM     30  C   UNL     1       8.341  11.882  17.649  0.00  0.00    +0.000 A 
ENDBRANCH  20  24
ENDBRANCH   2  18
TORSDOF 4
ENDMDL
