MODEL 1
REMARK VINA RESULT:      -8.1      0.000      0.000
REMARK  Name = 
REMARK  8 active torsions:
REMARK  status: ('A' for Active; 'I' for Inactive)
REMARK    1  A    between atoms: C_1  and  O_2
REMARK    2  A    between atoms: O_2  and  C_3
REMARK    3  A    between atoms: C_3  and  C_5
REMARK    4  A    between atoms: C_8  and  C_9
REMARK    5  A    between atoms: C_15  and  O_16
REMARK    6  A    between atoms: O_16  and  C_17
REMARK    7  A    between atoms: N_23  and  C_24
REMARK    8  A    between atoms: C_24  and  C_25
REMARK                            x       y       z     vdW  Elec       q    Type
REMARK                         _______ _______ _______ _____ _____    ______ ____
ROOT
ATOM      1  C   UNL     1       0.566  11.549  19.111  0.00  0.00    +0.000 A 
ATOM      2  C   UNL     1       1.393  12.678  18.988  0.00  0.00    +0.000 A 
ATOM      3  N   UNL     1       2.651  12.767  18.443  0.00  0.00    +0.000 N 
ATOM      4  C   UNL     1       3.131  14.037  18.525  0.00  0.00    +0.000 A 
ATOM      5  C   UNL     1       4.290  14.551  17.950  0.00  0.00    +0.000 A 
ATOM      6  C   UNL     1       4.657  15.836  18.317  0.00  0.00    +0.000 A 
ATOM      7  C   UNL     1       3.928  16.566  19.255  0.00  0.00    +0.000 A 
ATOM      8  C   UNL     1       2.702  16.067  19.749  0.00  0.00    +0.000 A 
ATOM      9  C   UNL     1       2.260  14.775  19.324  0.00  0.00    +0.000 A 
ATOM     10  C   UNL     1       1.059  13.959  19.415  0.00  0.00    +0.000 A 
ATOM     11  C   UNL     1      -0.278  14.137  19.799  0.00  0.00    +0.000 A 
ATOM     12  C   UNL     1      -1.165  13.064  19.639  0.00  0.00    +0.000 A 
ATOM     13  N   UNL     1      -0.757  11.807  19.300  0.00  0.00    +0.000 N 
ATOM     14  H   UNL     1       3.148  12.008  17.994  0.00  0.00    +0.000 HD
ENDROOT
BRANCH   1  18
ATOM     15  C   UNL     1       2.207   7.524  18.906  0.00  0.00    +0.000 A 
ATOM     16  C   UNL     1       2.161   8.348  17.784  0.00  0.00    +0.000 A 
ATOM     17  C   UNL     1       1.704   9.668  17.904  0.00  0.00    +0.000 A 
ATOM     18  C   UNL     1       1.190  10.197  19.122  0.00  0.00    +0.000 A 
ATOM     19  C   UNL     1       1.255   9.339  20.223  0.00  0.00    +0.000 A 
ATOM     20  C   UNL     1       1.794   8.048  20.133  0.00  0.00    +0.000 A 
BRANCH  15  21
ATOM     21  C   UNL     1       2.613   6.103  18.754  0.00  0.00    +0.000 C 
ATOM     22  O   UNL     1       2.139   5.353  17.919  0.00  0.00    +0.000 OA
BRANCH  21  24
ATOM     23  C   UNL     1       4.702   5.169  19.238  0.00  0.00    +0.000 C 
ATOM     24  O   UNL     1       3.511   5.786  19.720  0.00  0.00    +0.000 OA
ENDBRANCH  21  24
ENDBRANCH  15  21
ENDBRANCH   1  18
BRANCH   7  25
ATOM     25  O   UNL     1       4.514  17.773  19.521  0.00  0.00    +0.000 OA
ATOM     26  C   UNL     1       5.651  17.826  20.367  0.00  0.00    +0.000 C 
ENDBRANCH   7  25
BRANCH  13  27
ATOM     27  C   UNL     1      -1.830  10.766  19.153  0.00  0.00    +0.000 C 
BRANCH  27  28
ATOM     28  C   UNL     1      -2.464  10.690  17.769  0.00  0.00    +0.000 A 
ATOM     29  C   UNL     1      -1.960   9.899  16.720  0.00  0.00    +0.000 A 
ATOM     30  C   UNL     1      -2.651   9.799  15.503  0.00  0.00    +0.000 A 
ATOM     31  C   UNL     1      -3.840  10.487  15.306  0.00  0.00    +0.000 A 
ATOM     32  C   UNL     1      -4.340  11.301  16.317  0.00  0.00    +0.000 A 
ATOM     33  C   UNL     1      -3.658  11.404  17.536  0.00  0.00    +0.000 A 
ENDBRANCH  27  28
ENDBRANCH  13  27
TORSDOF 6
ENDMDL
MODEL 2
REMARK VINA RESULT:      -8.1      0.577      1.390
REMARK  Name = 
REMARK  8 active torsions:
REMARK  status: ('A' for Active; 'I' for Inactive)
REMARK    1  A    between atoms: C_1  and  O_2
REMARK    2  A    between atoms: O_2  and  C_3
REMARK    3  A    between atoms: C_3  and  C_5
REMARK    4  A    between atoms: C_8  and  C_9
REMARK    5  A    between atoms: C_15  and  O_16
REMARK    6  A    between atoms: O_16  and  C_17
REMARK    7  A    between atoms: N_23  and  C_24
REMARK    8  A    between atoms: C_24  and  C_25
REMARK                            x       y       z     vdW  Elec       q    Type
REMARK                         _______ _______ _______ _____ _____    ______ ____
ROOT
ATOM      1  C   UNL     1       0.487  11.323  19.068  0.00  0.00    +0.000 A 
ATOM      2  C   UNL     1       1.326  12.445  18.955  0.00  0.00    +0.000 A 
ATOM      3  N   UNL     1       2.551  12.544  18.342  0.00  0.00    +0.000 N 
ATOM      4  C   UNL     1       3.056  13.801  18.460  0.00  0.00    +0.000 A 
ATOM      5  C   UNL     1       4.189  14.328  17.845  0.00  0.00    +0.000 A 
ATOM      6  C   UNL     1       4.599  15.587  18.255  0.00  0.00    +0.000 A 
ATOM      7  C   UNL     1       3.938  16.277  19.271  0.00  0.00    +0.000 A 
ATOM      8  C   UNL     1       2.735  15.770  19.810  0.00  0.00    +0.000 A 
ATOM      9  C   UNL     1       2.247  14.509  19.347  0.00  0.00    +0.000 A 
ATOM     10  C   UNL     1       1.039  13.706  19.467  0.00  0.00    +0.000 A 
ATOM     11  C   UNL     1      -0.270  13.883  19.937  0.00  0.00    +0.000 A 
ATOM     12  C   UNL     1      -1.184  12.833  19.775  0.00  0.00    +0.000 A 
ATOM     13  N   UNL     1      -0.818  11.589  19.349  0.00  0.00    +0.000 N 
ATOM     14  H   UNL     1       3.007  11.803  17.825  0.00  0.00    +0.000 HD
ENDROOT
BRANCH   1  18
ATOM     15  C   UNL     1       2.419   7.424  19.030  0.00  0.00    +0.000 A 
ATOM     16  C   UNL     1       1.835   7.934  20.186  0.00  0.00    +0.000 A 
ATOM     17  C   UNL     1       1.148   9.156  20.142  0.00  0.00    +0.000 A 
ATOM     18  C   UNL     1       1.088   9.964  18.972  0.00  0.00    +0.000 A 
ATOM     19  C   UNL     1       1.685   9.415  17.834  0.00  0.00    +0.000 A 
ATOM     20  C   UNL     1       2.296   8.154  17.845  0.00  0.00    +0.000 A 
BRANCH  15  21
ATOM     21  C   UNL     1       3.217   6.172  19.103  0.00  0.00    +0.000 C 
ATOM     22  O   UNL     1       3.173   5.400  20.045  0.00  0.00    +0.000 OA
BRANCH  21  24
ATOM     23  C   UNL     1       3.963   4.837  17.334  0.00  0.00    +0.000 C 
ATOM     24  O   UNL     1       4.022   6.088  18.015  0.00  0.00    +0.000 OA
ENDBRANCH  21  24
ENDBRANCH  15  21
ENDBRANCH   1  18
BRANCH   7  25
ATOM     25  O   UNL     1       4.560  17.459  19.564  0.00  0.00    +0.000 OA
ATOM     26  C   UNL     1       5.973  17.496  19.680  0.00  0.00    +0.000 C 
ENDBRANCH   7  25
BRANCH  13  27
ATOM     27  C   UNL     1      -1.916  10.573  19.212  0.00  0.00    +0.000 C 
BRANCH  27  28
ATOM     28  C   UNL     1      -2.623  10.571  17.862  0.00  0.00    +0.000 A 
ATOM     29  C   UNL     1      -3.791  11.307  17.590  0.00  0.00    +0.000 A 
ATOM     30  C   UNL     1      -4.333  11.337  16.296  0.00  0.00    +0.000 A 
ATOM     31  C   UNL     1      -3.733  10.635  15.261  0.00  0.00    +0.000 A 
ATOM     32  C   UNL     1      -2.596   9.875  15.513  0.00  0.00    +0.000 A 
ATOM     33  C   UNL     1      -2.047   9.841  16.802  0.00  0.00    +0.000 A 
ENDBRANCH  27  28
ENDBRANCH  13  27
TORSDOF 6
ENDMDL
MODEL 3
REMARK VINA RESULT:      -8.0      0.533      1.080
REMARK  Name = 
REMARK  8 active torsions:
REMARK  status: ('A' for Active; 'I' for Inactive)
REMARK    1  A    between atoms: C_1  and  O_2
REMARK    2  A    between atoms: O_2  and  C_3
REMARK    3  A    between atoms: C_3  and  C_5
REMARK    4  A    between atoms: C_8  and  C_9
REMARK    5  A    between atoms: C_15  and  O_16
REMARK    6  A    between atoms: O_16  and  C_17
REMARK    7  A    between atoms: N_23  and  C_24
REMARK    8  A    between atoms: C_24  and  C_25
REMARK                            x       y       z     vdW  Elec       q    Type
REMARK                         _______ _______ _______ _____ _____    ______ ____
ROOT
ATOM      1  C   UNL     1       0.530  11.415  19.143  0.00  0.00    +0.000 A 
ATOM      2  C   UNL     1       1.354  12.545  19.003  0.00  0.00    +0.000 A 
ATOM      3  N   UNL     1       2.608  12.630  18.451  0.00  0.00    +0.000 N 
ATOM      4  C   UNL     1       3.086  13.902  18.516  0.00  0.00    +0.000 A 
ATOM      5  C   UNL     1       4.241  14.412  17.930  0.00  0.00    +0.000 A 
ATOM      6  C   UNL     1       4.607  15.702  18.281  0.00  0.00    +0.000 A 
ATOM      7  C   UNL     1       3.881  16.441  19.214  0.00  0.00    +0.000 A 
ATOM      8  C   UNL     1       2.659  15.945  19.720  0.00  0.00    +0.000 A 
ATOM      9  C   UNL     1       2.218  14.647  19.312  0.00  0.00    +0.000 A 
ATOM     10  C   UNL     1       1.019  13.829  19.419  0.00  0.00    +0.000 A 
ATOM     11  C   UNL     1      -0.316  14.009  19.807  0.00  0.00    +0.000 A 
ATOM     12  C   UNL     1      -1.203  12.932  19.663  0.00  0.00    +0.000 A 
ATOM     13  N   UNL     1      -0.794  11.672  19.337  0.00  0.00    +0.000 N 
ATOM     14  H   UNL     1       3.104  11.868  18.008  0.00  0.00    +0.000 HD
ENDROOT
BRANCH   1  18
ATOM     15  C   UNL     1       2.178   7.392  18.974  0.00  0.00    +0.000 A 
ATOM     16  C   UNL     1       2.122   8.202  17.844  0.00  0.00    +0.000 A 
ATOM     17  C   UNL     1       1.662   9.522  17.951  0.00  0.00    +0.000 A 
ATOM     18  C   UNL     1       1.157  10.065  19.166  0.00  0.00    +0.000 A 
ATOM     19  C   UNL     1       1.232   9.220  20.277  0.00  0.00    +0.000 A 
ATOM     20  C   UNL     1       1.773   7.929  20.199  0.00  0.00    +0.000 A 
BRANCH  15  21
ATOM     21  C   UNL     1       2.585   5.969  18.837  0.00  0.00    +0.000 C 
ATOM     22  O   UNL     1       2.914   5.462  17.779  0.00  0.00    +0.000 OA
BRANCH  21  24
ATOM     23  C   UNL     1       1.567   4.235  20.031  0.00  0.00    +0.000 C 
ATOM     24  O   UNL     1       2.458   5.347  20.036  0.00  0.00    +0.000 OA
ENDBRANCH  21  24
ENDBRANCH  15  21
ENDBRANCH   1  18
BRANCH   7  25
ATOM     25  O   UNL     1       4.466  17.651  19.464  0.00  0.00    +0.000 OA
ATOM     26  C   UNL     1       5.812  17.699  19.908  0.00  0.00    +0.000 C 
ENDBRANCH   7  25
BRANCH  13  27
ATOM     27  C   UNL     1      -1.865  10.628  19.206  0.00  0.00    +0.000 C 
BRANCH  27  28
ATOM     28  C   UNL     1      -2.588  10.615  17.866  0.00  0.00    +0.000 A 
ATOM     29  C   UNL     1      -3.768  11.338  17.607  0.00  0.00    +0.000 A 
ATOM     30  C   UNL     1      -4.326  11.360  16.319  0.00  0.00    +0.000 A 
ATOM     31  C   UNL     1      -3.731  10.661  15.278  0.00  0.00    +0.000 A 
ATOM     32  C   UNL     1      -2.583   9.914  15.518  0.00  0.00    +0.000 A 
ATOM     33  C   UNL     1      -2.018   9.889  16.800  0.00  0.00    +0.000 A 
ENDBRANCH  27  28
ENDBRANCH  13  27
TORSDOF 6
ENDMDL
MODEL 4
REMARK VINA RESULT:      -8.0      0.596      1.118
REMARK  Name = 
REMARK  8 active torsions:
REMARK  status: ('A' for Active; 'I' for Inactive)
REMARK    1  A    between atoms: C_1  and  O_2
REMARK    2  A    between atoms: O_2  and  C_3
REMARK    3  A    between atoms: C_3  and  C_5
REMARK    4  A    between atoms: C_8  and  C_9
REMARK    5  A    between atoms: C_15  and  O_16
REMARK    6  A    between atoms: O_16  and  C_17
REMARK    7  A    between atoms: N_23  and  C_24
REMARK    8  A    between atoms: C_24  and  C_25
REMARK                            x       y       z     vdW  Elec       q    Type
REMARK                         _______ _______ _______ _____ _____    ______ ____
ROOT
ATOM      1  C   UNL     1       0.451  11.562  19.091  0.00  0.00    +0.000 A 
ATOM      2  C   UNL     1       1.335  12.646  18.958  0.00  0.00    +0.000 A 
ATOM      3  N   UNL     1       2.576  12.675  18.370  0.00  0.00    +0.000 N 
ATOM      4  C   UNL     1       3.129  13.915  18.457  0.00  0.00    +0.000 A 
ATOM      5  C   UNL     1       4.295  14.375  17.850  0.00  0.00    +0.000 A 
ATOM      6  C   UNL     1       4.746  15.630  18.226  0.00  0.00    +0.000 A 
ATOM      7  C   UNL     1       4.092  16.381  19.203  0.00  0.00    +0.000 A 
ATOM      8  C   UNL     1       2.859  15.941  19.732  0.00  0.00    +0.000 A 
ATOM      9  C   UNL     1       2.330  14.684  19.301  0.00  0.00    +0.000 A 
ATOM     10  C   UNL     1       1.089  13.934  19.420  0.00  0.00    +0.000 A 
ATOM     11  C   UNL     1      -0.221  14.179  19.855  0.00  0.00    +0.000 A 
ATOM     12  C   UNL     1      -1.173  13.161  19.708  0.00  0.00    +0.000 A 
ATOM     13  N   UNL     1      -0.849  11.889  19.333  0.00  0.00    +0.000 N 
ATOM     14  H   UNL     1       3.013  11.899  17.889  0.00  0.00    +0.000 HD
ENDROOT
BRANCH   1  18
ATOM     15  C   UNL     1       2.225   7.591  19.229  0.00  0.00    +0.000 A 
ATOM     16  C   UNL     1       1.637   8.164  20.354  0.00  0.00    +0.000 A 
ATOM     17  C   UNL     1       1.000   9.409  20.253  0.00  0.00    +0.000 A 
ATOM     18  C   UNL     1       0.998  10.178  19.055  0.00  0.00    +0.000 A 
ATOM     19  C   UNL     1       1.597   9.567  17.950  0.00  0.00    +0.000 A 
ATOM     20  C   UNL     1       2.157   8.284  18.018  0.00  0.00    +0.000 A 
BRANCH  15  21
ATOM     21  C   UNL     1       2.970   6.312  19.363  0.00  0.00    +0.000 C 
ATOM     22  O   UNL     1       3.904   5.999  18.646  0.00  0.00    +0.000 OA
BRANCH  21  24
ATOM     23  C   UNL     1       1.719   4.399  19.860  0.00  0.00    +0.000 C 
ATOM     24  O   UNL     1       2.398   5.559  20.335  0.00  0.00    +0.000 OA
ENDBRANCH  21  24
ENDBRANCH  15  21
ENDBRANCH   1  18
BRANCH   7  25
ATOM     25  O   UNL     1       4.755  17.547  19.469  0.00  0.00    +0.000 OA
ATOM     26  C   UNL     1       5.915  17.522  20.284  0.00  0.00    +0.000 C 
ENDBRANCH   7  25
BRANCH  13  27
ATOM     27  C   UNL     1      -1.983  10.913  19.206  0.00  0.00    +0.000 C 
BRANCH  27  28
ATOM     28  C   UNL     1      -2.564  10.784  17.803  0.00  0.00    +0.000 A 
ATOM     29  C   UNL     1      -2.022   9.953  16.805  0.00  0.00    +0.000 A 
ATOM     30  C   UNL     1      -2.667   9.807  15.567  0.00  0.00    +0.000 A 
ATOM     31  C   UNL     1      -3.846  10.487  15.299  0.00  0.00    +0.000 A 
ATOM     32  C   UNL     1      -4.383  11.339  16.258  0.00  0.00    +0.000 A 
ATOM     33  C   UNL     1      -3.747  11.489  17.497  0.00  0.00    +0.000 A 
ENDBRANCH  27  28
ENDBRANCH  13  27
TORSDOF 6
ENDMDL
MODEL 5
REMARK VINA RESULT:      -7.4      3.641      7.554
REMARK  Name = 
REMARK  8 active torsions:
REMARK  status: ('A' for Active; 'I' for Inactive)
REMARK    1  A    between atoms: C_1  and  O_2
REMARK    2  A    between atoms: O_2  and  C_3
REMARK    3  A    between atoms: C_3  and  C_5
REMARK    4  A    between atoms: C_8  and  C_9
REMARK    5  A    between atoms: C_15  and  O_16
REMARK    6  A    between atoms: O_16  and  C_17
REMARK    7  A    between atoms: N_23  and  C_24
REMARK    8  A    between atoms: C_24  and  C_25
REMARK                            x       y       z     vdW  Elec       q    Type
REMARK                         _______ _______ _______ _____ _____    ______ ____
ROOT
ATOM      1  C   UNL     1      -2.314  11.823  19.858  0.00  0.00    +0.000 A 
ATOM      2  C   UNL     1      -1.293  10.878  19.658  0.00  0.00    +0.000 A 
ATOM      3  N   UNL     1      -0.503  10.257  20.594  0.00  0.00    +0.000 N 
ATOM      4  C   UNL     1       0.386   9.415  20.002  0.00  0.00    +0.000 A 
ATOM      5  C   UNL     1       1.239   8.501  20.617  0.00  0.00    +0.000 A 
ATOM      6  C   UNL     1       2.176   7.875  19.811  0.00  0.00    +0.000 A 
ATOM      7  C   UNL     1       2.295   8.178  18.455  0.00  0.00    +0.000 A 
ATOM      8  C   UNL     1       1.357   9.030  17.831  0.00  0.00    +0.000 A 
ATOM      9  C   UNL     1       0.330   9.629  18.626  0.00  0.00    +0.000 A 
ATOM     10  C   UNL     1      -0.893  10.389  18.419  0.00  0.00    +0.000 A 
ATOM     11  C   UNL     1      -1.724  10.726  17.341  0.00  0.00    +0.000 A 
ATOM     12  C   UNL     1      -2.906  11.431  17.606  0.00  0.00    +0.000 A 
ATOM     13  N   UNL     1      -3.196  11.961  18.830  0.00  0.00    +0.000 N 
ATOM     14  H   UNL     1      -0.591  10.363  21.596  0.00  0.00    +0.000 HD
ENDROOT
BRANCH   1  18
ATOM     15  C   UNL     1      -1.971  14.240  23.459  0.00  0.00    +0.000 A 
ATOM     16  C   UNL     1      -1.391  14.639  22.259  0.00  0.00    +0.000 A 
ATOM     17  C   UNL     1      -1.592  13.879  21.098  0.00  0.00    +0.000 A 
ATOM     18  C   UNL     1      -2.302  12.645  21.099  0.00  0.00    +0.000 A 
ATOM     19  C   UNL     1      -2.869  12.281  22.323  0.00  0.00    +0.000 A 
ATOM     20  C   UNL     1      -2.749  13.080  23.469  0.00  0.00    +0.000 A 
BRANCH  15  21
ATOM     21  C   UNL     1      -1.683  15.004  24.701  0.00  0.00    +0.000 C 
ATOM     22  O   UNL     1      -0.565  15.360  25.029  0.00  0.00    +0.000 OA
BRANCH  21  24
ATOM     23  C   UNL     1      -3.578  16.325  25.071  0.00  0.00    +0.000 C 
ATOM     24  O   UNL     1      -2.830  15.160  25.409  0.00  0.00    +0.000 OA
ENDBRANCH  21  24
ENDBRANCH  15  21
ENDBRANCH   1  18
BRANCH   7  25
ATOM     25  O   UNL     1       3.333   7.501  17.877  0.00  0.00    +0.000 OA
ATOM     26  C   UNL     1       3.332   6.083  17.881  0.00  0.00    +0.000 C 
ENDBRANCH   7  25
BRANCH  13  27
ATOM     27  C   UNL     1      -4.509  12.679  18.960  0.00  0.00    +0.000 C 
BRANCH  27  28
ATOM     28  C   UNL     1      -5.661  11.819  19.464  0.00  0.00    +0.000 A 
ATOM     29  C   UNL     1      -6.089  10.636  18.834  0.00  0.00    +0.000 A 
ATOM     30  C   UNL     1      -7.093   9.840  19.410  0.00  0.00    +0.000 A 
ATOM     31  C   UNL     1      -7.690  10.211  20.606  0.00  0.00    +0.000 A 
ATOM     32  C   UNL     1      -7.305  11.393  21.231  0.00  0.00    +0.000 A 
ATOM     33  C   UNL     1      -6.304  12.191  20.664  0.00  0.00    +0.000 A 
ENDBRANCH  27  28
ENDBRANCH  13  27
TORSDOF 6
ENDMDL
MODEL 6
REMARK VINA RESULT:      -7.3      3.680      7.534
REMARK  Name = 
REMARK  8 active torsions:
REMARK  status: ('A' for Active; 'I' for Inactive)
REMARK    1  A    between atoms: C_1  and  O_2
REMARK    2  A    between atoms: O_2  and  C_3
REMARK    3  A    between atoms: C_3  and  C_5
REMARK    4  A    between atoms: C_8  and  C_9
REMARK    5  A    between atoms: C_15  and  O_16
REMARK    6  A    between atoms: O_16  and  C_17
REMARK    7  A    between atoms: N_23  and  C_24
REMARK    8  A    between atoms: C_24  and  C_25
REMARK                            x       y       z     vdW  Elec       q    Type
REMARK                         _______ _______ _______ _____ _____    ______ ____
ROOT
ATOM      1  C   UNL     1      -1.805  11.823  20.161  0.00  0.00    +0.000 A 
ATOM      2  C   UNL     1      -0.875  10.810  19.873  0.00  0.00    +0.000 A 
ATOM      3  N   UNL     1      -0.102  10.079  20.742  0.00  0.00    +0.000 N 
ATOM      4  C   UNL     1       0.688   9.198  20.072  0.00  0.00    +0.000 A 
ATOM      5  C   UNL     1       1.486   8.189  20.605  0.00  0.00    +0.000 A 
ATOM      6  C   UNL     1       2.333   7.529  19.730  0.00  0.00    +0.000 A 
ATOM      7  C   UNL     1       2.422   7.888  18.385  0.00  0.00    +0.000 A 
ATOM      8  C   UNL     1       1.534   8.844  17.844  0.00  0.00    +0.000 A 
ATOM      9  C   UNL     1       0.594   9.484  18.712  0.00  0.00    +0.000 A 
ATOM     10  C   UNL     1      -0.568  10.352  18.595  0.00  0.00    +0.000 A 
ATOM     11  C   UNL     1      -1.412  10.808  17.573  0.00  0.00    +0.000 A 
ATOM     12  C   UNL     1      -2.519  11.594  17.923  0.00  0.00    +0.000 A 
ATOM     13  N   UNL     1      -2.713  12.084  19.181  0.00  0.00    +0.000 N 
ATOM     14  H   UNL     1      -0.140  10.143  21.751  0.00  0.00    +0.000 HD
ENDROOT
BRANCH   1  18
ATOM     15  C   UNL     1      -1.715  14.112  23.860  0.00  0.00    +0.000 A 
ATOM     16  C   UNL     1      -2.674  13.128  23.638  0.00  0.00    +0.000 A 
ATOM     17  C   UNL     1      -2.623  12.352  22.472  0.00  0.00    +0.000 A 
ATOM     18  C   UNL     1      -1.673  12.579  21.437  0.00  0.00    +0.000 A 
ATOM     19  C   UNL     1      -0.727  13.574  21.700  0.00  0.00    +0.000 A 
ATOM     20  C   UNL     1      -0.715  14.295  22.902  0.00  0.00    +0.000 A 
BRANCH  15  21
ATOM     21  C   UNL     1      -1.826  14.986  25.057  0.00  0.00    +0.000 C 
ATOM     22  O   UNL     1      -2.884  15.254  25.600  0.00  0.00    +0.000 OA
BRANCH  21  24
ATOM     23  C   UNL     1      -0.563  16.243  26.573  0.00  0.00    +0.000 C 
ATOM     24  O   UNL     1      -0.599  15.469  25.377  0.00  0.00    +0.000 OA
ENDBRANCH  21  24
ENDBRANCH  15  21
ENDBRANCH   1  18
BRANCH   7  25
ATOM     25  O   UNL     1       3.375   7.159  17.730  0.00  0.00    +0.000 OA
ATOM     26  C   UNL     1       3.410   5.750  17.891  0.00  0.00    +0.000 C 
ENDBRANCH   7  25
BRANCH  13  27
ATOM     27  C   UNL     1      -3.955  12.899  19.404  0.00  0.00    +0.000 C 
BRANCH  27  28
ATOM     28  C   UNL     1      -5.224  12.086  19.624  0.00  0.00    +0.000 A 
ATOM     29  C   UNL     1      -5.680  11.091  18.739  0.00  0.00    +0.000 A 
ATOM     30  C   UNL     1      -6.804  10.311  19.055  0.00  0.00    +0.000 A 
ATOM     31  C   UNL     1      -7.494  10.513  20.241  0.00  0.00    +0.000 A 
ATOM     32  C   UNL     1      -7.081  11.511  21.117  0.00  0.00    +0.000 A 
ATOM     33  C   UNL     1      -5.959  12.293  20.810  0.00  0.00    +0.000 A 
ENDBRANCH  27  28
ENDBRANCH  13  27
TORSDOF 6
ENDMDL
MODEL 7
REMARK VINA RESULT:      -7.3      3.639      7.638
REMARK  Name = 
REMARK  8 active torsions:
REMARK  status: ('A' for Active; 'I' for Inactive)
REMARK    1  A    between atoms: C_1  and  O_2
REMARK    2  A    between atoms: O_2  and  C_3
REMARK    3  A    between atoms: C_3  and  C_5
REMARK    4  A    between atoms: C_8  and  C_9
REMARK    5  A    between atoms: C_15  and  O_16
REMARK    6  A    between atoms: O_16  and  C_17
REMARK    7  A    between atoms: N_23  and  C_24
REMARK    8  A    between atoms: C_24  and  C_25
REMARK                            x       y       z     vdW  Elec       q    Type
REMARK                         _______ _______ _______ _____ _____    ______ ____
ROOT
ATOM      1  C   UNL     1      -1.746  11.836  20.110  0.00  0.00    +0.000 A 
ATOM      2  C   UNL     1      -0.833  10.805  19.830  0.00  0.00    +0.000 A 
ATOM      3  N   UNL     1      -0.058  10.083  20.705  0.00  0.00    +0.000 N 
ATOM      4  C   UNL     1       0.713   9.179  20.042  0.00  0.00    +0.000 A 
ATOM      5  C   UNL     1       1.505   8.170  20.586  0.00  0.00    +0.000 A 
ATOM      6  C   UNL     1       2.333   7.483  19.713  0.00  0.00    +0.000 A 
ATOM      7  C   UNL     1       2.408   7.814  18.360  0.00  0.00    +0.000 A 
ATOM      8  C   UNL     1       1.524   8.770  17.811  0.00  0.00    +0.000 A 
ATOM      9  C   UNL     1       0.604   9.438  18.678  0.00  0.00    +0.000 A 
ATOM     10  C   UNL     1      -0.549  10.318  18.559  0.00  0.00    +0.000 A 
ATOM     11  C   UNL     1      -1.400  10.764  17.538  0.00  0.00    +0.000 A 
ATOM     12  C   UNL     1      -2.493  11.571  17.886  0.00  0.00    +0.000 A 
ATOM     13  N   UNL     1      -2.665  12.089  19.137  0.00  0.00    +0.000 N 
ATOM     14  H   UNL     1      -0.082  10.167  21.713  0.00  0.00    +0.000 HD
ENDROOT
BRANCH   1  18
ATOM     15  C   UNL     1      -1.589  14.162  23.784  0.00  0.00    +0.000 A 
ATOM     16  C   UNL     1      -2.453  13.080  23.646  0.00  0.00    +0.000 A 
ATOM     17  C   UNL     1      -2.418  12.301  22.481  0.00  0.00    +0.000 A 
ATOM     18  C   UNL     1      -1.588  12.616  21.369  0.00  0.00    +0.000 A 
ATOM     19  C   UNL     1      -0.735  13.708  21.548  0.00  0.00    +0.000 A 
ATOM     20  C   UNL     1      -0.699  14.439  22.743  0.00  0.00    +0.000 A 
BRANCH  15  21
ATOM     21  C   UNL     1      -1.691  15.033  24.984  0.00  0.00    +0.000 C 
ATOM     22  O   UNL     1      -0.724  15.493  25.566  0.00  0.00    +0.000 OA
BRANCH  21  24
ATOM     23  C   UNL     1      -3.596  16.390  24.962  0.00  0.00    +0.000 C 
ATOM     24  O   UNL     1      -2.994  15.155  25.342  0.00  0.00    +0.000 OA
ENDBRANCH  21  24
ENDBRANCH  15  21
ENDBRANCH   1  18
BRANCH   7  25
ATOM     25  O   UNL     1       3.343   7.059  17.708  0.00  0.00    +0.000 OA
ATOM     26  C   UNL     1       3.345   5.650  17.874  0.00  0.00    +0.000 C 
ENDBRANCH   7  25
BRANCH  13  27
ATOM     27  C   UNL     1      -3.893  12.923  19.359  0.00  0.00    +0.000 C 
BRANCH  27  28
ATOM     28  C   UNL     1      -5.140  12.138  19.744  0.00  0.00    +0.000 A 
ATOM     29  C   UNL     1      -5.859  12.345  20.936  0.00  0.00    +0.000 A 
ATOM     30  C   UNL     1      -7.056  11.655  21.180  0.00  0.00    +0.000 A 
ATOM     31  C   UNL     1      -7.550  10.746  20.256  0.00  0.00    +0.000 A 
ATOM     32  C   UNL     1      -6.841  10.500  19.085  0.00  0.00    +0.000 A 
ATOM     33  C   UNL     1      -5.645  11.187  18.833  0.00  0.00    +0.000 A 
ENDBRANCH  27  28
ENDBRANCH  13  27
TORSDOF 6
ENDMDL
MODEL 8
REMARK VINA RESULT:      -7.3      3.883      7.738
REMARK  Name = 
REMARK  8 active torsions:
REMARK  status: ('A' for Active; 'I' for Inactive)
REMARK    1  A    between atoms: C_1  and  O_2
REMARK    2  A    between atoms: O_2  and  C_3
REMARK    3  A    between atoms: C_3  and  C_5
REMARK    4  A    between atoms: C_8  and  C_9
REMARK    5  A    between atoms: C_15  and  O_16
REMARK    6  A    between atoms: O_16  and  C_17
REMARK    7  A    between atoms: N_23  and  C_24
REMARK    8  A    between atoms: C_24  and  C_25
REMARK                            x       y       z     vdW  Elec       q    Type
REMARK                         _______ _______ _______ _____ _____    ______ ____
ROOT
ATOM      1  C   UNL     1      -2.765  11.958  19.513  0.00  0.00    +0.000 A 
ATOM      2  C   UNL     1      -1.681  11.073  19.387  0.00  0.00    +0.000 A 
ATOM      3  N   UNL     1      -0.832  10.609  20.362  0.00  0.00    +0.000 N 
ATOM      4  C   UNL     1       0.105   9.774  19.838  0.00  0.00    +0.000 A 
ATOM      5  C   UNL     1       1.032   8.993  20.522  0.00  0.00    +0.000 A 
ATOM      6  C   UNL     1       1.998   8.353  19.763  0.00  0.00    +0.000 A 
ATOM      7  C   UNL     1       2.072   8.520  18.380  0.00  0.00    +0.000 A 
ATOM      8  C   UNL     1       1.064   9.235  17.695  0.00  0.00    +0.000 A 
ATOM      9  C   UNL     1       0.010   9.839  18.449  0.00  0.00    +0.000 A 
ATOM     10  C   UNL     1      -1.268  10.486  18.195  0.00  0.00    +0.000 A 
ATOM     11  C   UNL     1      -2.140  10.649  17.109  0.00  0.00    +0.000 A 
ATOM     12  C   UNL     1      -3.365  11.293  17.329  0.00  0.00    +0.000 A 
ATOM     13  N   UNL     1      -3.672  11.927  18.498  0.00  0.00    +0.000 N 
ATOM     14  H   UNL     1      -0.911  10.813  21.350  0.00  0.00    +0.000 HD
ENDROOT
BRANCH   1  18
ATOM     15  C   UNL     1      -3.145  14.675  22.890  0.00  0.00    +0.000 A 
ATOM     16  C   UNL     1      -3.628  13.371  22.949  0.00  0.00    +0.000 A 
ATOM     17  C   UNL     1      -3.415  12.496  21.874  0.00  0.00    +0.000 A 
ATOM     18  C   UNL     1      -2.791  12.905  20.662  0.00  0.00    +0.000 A 
ATOM     19  C   UNL     1      -2.320  14.220  20.644  0.00  0.00    +0.000 A 
ATOM     20  C   UNL     1      -2.449  15.075  21.747  0.00  0.00    +0.000 A 
BRANCH  15  21
ATOM     21  C   UNL     1      -3.449  15.620  23.997  0.00  0.00    +0.000 C 
ATOM     22  O   UNL     1      -3.807  16.771  23.820  0.00  0.00    +0.000 OA
BRANCH  21  24
ATOM     23  C   UNL     1      -1.968  15.411  25.795  0.00  0.00    +0.000 C 
ATOM     24  O   UNL     1      -3.194  15.017  25.185  0.00  0.00    +0.000 OA
ENDBRANCH  21  24
ENDBRANCH  15  21
ENDBRANCH   1  18
BRANCH   7  25
ATOM     25  O   UNL     1       3.146   7.862  17.849  0.00  0.00    +0.000 OA
ATOM     26  C   UNL     1       3.264   6.459  18.027  0.00  0.00    +0.000 C 
ENDBRANCH   7  25
BRANCH  13  27
ATOM     27  C   UNL     1      -5.031  12.559  18.586  0.00  0.00    +0.000 C 
BRANCH  27  28
ATOM     28  C   UNL     1      -6.071  11.742  19.343  0.00  0.00    +0.000 A 
ATOM     29  C   UNL     1      -6.425  10.422  19.007  0.00  0.00    +0.000 A 
ATOM     30  C   UNL     1      -7.318   9.694  19.809  0.00  0.00    +0.000 A 
ATOM     31  C   UNL     1      -7.877  10.265  20.943  0.00  0.00    +0.000 A 
ATOM     32  C   UNL     1      -7.567  11.579  21.277  0.00  0.00    +0.000 A 
ATOM     33  C   UNL     1      -6.675  12.312  20.483  0.00  0.00    +0.000 A 
ENDBRANCH  27  28
ENDBRANCH  13  27
TORSDOF 6
ENDMDL
MODEL 9
REMARK VINA RESULT:      -7.2      1.008      1.537
REMARK  Name = 
REMARK  8 active torsions:
REMARK  status: ('A' for Active; 'I' for Inactive)
REMARK    1  A    between atoms: C_1  and  O_2
REMARK    2  A    between atoms: O_2  and  C_3
REMARK    3  A    between atoms: C_3  and  C_5
REMARK    4  A    between atoms: C_8  and  C_9
REMARK    5  A    between atoms: C_15  and  O_16
REMARK    6  A    between atoms: O_16  and  C_17
REMARK    7  A    between atoms: N_23  and  C_24
REMARK    8  A    between atoms: C_24  and  C_25
REMARK                            x       y       z     vdW  Elec       q    Type
REMARK                         _______ _______ _______ _____ _____    ______ ____
ROOT
ATOM      1  C   UNL     1       0.266  11.106  19.544  0.00  0.00    +0.000 A 
ATOM      2  C   UNL     1       1.060  12.250  19.730  0.00  0.00    +0.000 A 
ATOM      3  N   UNL     1       2.326  12.503  19.262  0.00  0.00    +0.000 N 
ATOM      4  C   UNL     1       2.765  13.724  19.671  0.00  0.00    +0.000 A 
ATOM      5  C   UNL     1       3.920  14.394  19.276  0.00  0.00    +0.000 A 
ATOM      6  C   UNL     1       4.239  15.555  19.961  0.00  0.00    +0.000 A 
ATOM      7  C   UNL     1       3.467  16.010  21.030  0.00  0.00    +0.000 A 
ATOM      8  C   UNL     1       2.247  15.373  21.348  0.00  0.00    +0.000 A 
ATOM      9  C   UNL     1       1.854  14.218  20.603  0.00  0.00    +0.000 A 
ATOM     10  C   UNL     1       0.677  13.375  20.453  0.00  0.00    +0.000 A 
ATOM     11  C   UNL     1      -0.672  13.420  20.830  0.00  0.00    +0.000 A 
ATOM     12  C   UNL     1      -1.523  12.399  20.383  0.00  0.00    +0.000 A 
ATOM     13  N   UNL     1      -1.069  11.276  19.754  0.00  0.00    +0.000 N 
ATOM     14  H   UNL     1       2.856  11.893  18.652  0.00  0.00    +0.000 HD
ENDROOT
BRANCH   1  18
ATOM     15  C   UNL     1       2.402   7.374  18.881  0.00  0.00    +0.000 A 
ATOM     16  C   UNL     1       1.885   7.703  20.131  0.00  0.00    +0.000 A 
ATOM     17  C   UNL     1       1.130   8.874  20.290  0.00  0.00    +0.000 A 
ATOM     18  C   UNL     1       0.931   9.810  19.237  0.00  0.00    +0.000 A 
ATOM     19  C   UNL     1       1.465   9.442  17.999  0.00  0.00    +0.000 A 
ATOM     20  C   UNL     1       2.145   8.231  17.808  0.00  0.00    +0.000 A 
BRANCH  15  21
ATOM     21  C   UNL     1       3.272   6.177  18.740  0.00  0.00    +0.000 C 
ATOM     22  O   UNL     1       4.222   5.945  19.467  0.00  0.00    +0.000 OA
BRANCH  21  24
ATOM     23  C   UNL     1       1.876   4.486  17.926  0.00  0.00    +0.000 C 
ATOM     24  O   UNL     1       2.879   5.462  17.656  0.00  0.00    +0.000 OA
ENDBRANCH  21  24
ENDBRANCH  15  21
ENDBRANCH   1  18
BRANCH   7  25
ATOM     25  O   UNL     1       4.010  17.125  21.604  0.00  0.00    +0.000 OA
ATOM     26  C   UNL     1       4.598  18.120  20.782  0.00  0.00    +0.000 C 
ENDBRANCH   7  25
BRANCH  13  27
ATOM     27  C   UNL     1      -2.105  10.279  19.321  0.00  0.00    +0.000 C 
BRANCH  27  28
ATOM     28  C   UNL     1      -2.623  10.468  17.901  0.00  0.00    +0.000 A 
ATOM     29  C   UNL     1      -2.050   9.854  16.771  0.00  0.00    +0.000 A 
ATOM     30  C   UNL     1      -2.640   9.993  15.505  0.00  0.00    +0.000 A 
ATOM     31  C   UNL     1      -3.792  10.747  15.340  0.00  0.00    +0.000 A 
ATOM     32  C   UNL     1      -4.358  11.389  16.436  0.00  0.00    +0.000 A 
ATOM     33  C   UNL     1      -3.777  11.254  17.704  0.00  0.00    +0.000 A 
ENDBRANCH  27  28
ENDBRANCH  13  27
TORSDOF 6
ENDMDL
