MODEL 1
REMARK VINA RESULT:      -8.2      0.000      0.000
REMARK  Name = 
REMARK  5 active torsions:
REMARK  status: ('A' for Active; 'I' for Inactive)
REMARK    1  A    between atoms: C_2  and  C_3
REMARK    2  A    between atoms: C_3  and  C_4
REMARK    3  A    between atoms: C_4  and  C_5
REMARK    4  A    between atoms: N_7  and  C_8
REMARK    5  A    between atoms: N_16  and  C_17
REMARK                            x       y       z     vdW  Elec       q    Type
REMARK                         _______ _______ _______ _____ _____    ______ ____
ROOT
ATOM      1  C   UNL     1       2.664   2.506  20.698  0.00  0.00    +0.000 C 
ENDROOT
BRANCH   1   3
ATOM      2  O   UNL     1       4.965   2.222  20.117  0.00  0.00    +0.000 OA
ATOM      3  C   UNL     1       3.901   2.779  19.873  0.00  0.00    +0.000 C 
ATOM      4  N   UNL     1       3.675   3.717  18.870  0.00  0.00    +0.000 N 
ATOM      5  H   UNL     1       2.807   4.241  18.917  0.00  0.00    +0.000 HD
BRANCH   4   6
ATOM      6  C   UNL     1       4.614   4.131  17.893  0.00  0.00    +0.000 A 
ATOM      7  C   UNL     1       4.720   3.526  16.635  0.00  0.00    +0.000 A 
ATOM      8  C   UNL     1       5.710   3.923  15.730  0.00  0.00    +0.000 A 
ATOM      9  C   UNL     1       6.590   4.940  16.073  0.00  0.00    +0.000 A 
ATOM     10  F   UNL     1       7.552   5.284  15.205  0.00  0.00    +0.000 F 
ATOM     11  C   UNL     1       6.465   5.588  17.299  0.00  0.00    +0.000 A 
ATOM     12 CL   UNL     1       7.540   6.867  17.722  0.00  0.00    +0.000 Cl
ATOM     13  C   UNL     1       5.472   5.195  18.204  0.00  0.00    +0.000 A 
ENDBRANCH   4   6
ENDBRANCH   1   3
BRANCH   1  14
ATOM     14  C   UNL     1       2.267   3.666  21.626  0.00  0.00    +0.000 C 
BRANCH  14  15
ATOM     15  C   UNL     1       1.693   4.772  20.765  0.00  0.00    +0.000 C 
ATOM     16  O   UNL     1       0.748   4.541  20.018  0.00  0.00    +0.000 OA
ATOM     17  N   UNL     1       2.333   5.998  20.876  0.00  0.00    +0.000 N 
ATOM     18  H   UNL     1       3.226   6.019  21.356  0.00  0.00    +0.000 HD
BRANCH  17  19
ATOM     19  C   UNL     1       1.946   7.160  20.163  0.00  0.00    +0.000 A 
ATOM     20  C   UNL     1       2.325   7.383  18.830  0.00  0.00    +0.000 A 
ATOM     21  C   UNL     1       2.018   8.576  18.177  0.00  0.00    +0.000 A 
ATOM     22  C   UNL     1       1.312   9.556  18.854  0.00  0.00    +0.000 A 
ATOM     23  F   UNL     1       1.052  10.712  18.223  0.00  0.00    +0.000 F 
ATOM     24  C   UNL     1       0.885   9.341  20.162  0.00  0.00    +0.000 A 
ATOM     25 CL   UNL     1       0.016  10.567  21.004  0.00  0.00    +0.000 Cl
ATOM     26  C   UNL     1       1.182   8.134  20.817  0.00  0.00    +0.000 A 
ENDBRANCH  17  19
ENDBRANCH  14  15
ENDBRANCH   1  14
TORSDOF 5
ENDMDL
MODEL 2
REMARK VINA RESULT:      -8.2      5.406      7.028
REMARK  Name = 
REMARK  5 active torsions:
REMARK  status: ('A' for Active; 'I' for Inactive)
REMARK    1  A    between atoms: C_2  and  C_3
REMARK    2  A    between atoms: C_3  and  C_4
REMARK    3  A    between atoms: C_4  and  C_5
REMARK    4  A    between atoms: N_7  and  C_8
REMARK    5  A    between atoms: N_16  and  C_17
REMARK                            x       y       z     vdW  Elec       q    Type
REMARK                         _______ _______ _______ _____ _____    ______ ____
ROOT
ATOM      1  C   UNL     1       6.994   7.469  17.216  0.00  0.00    +0.000 C 
ENDROOT
BRANCH   1   3
ATOM      2  O   UNL     1       8.637   7.417  18.950  0.00  0.00    +0.000 OA
ATOM      3  C   UNL     1       8.029   8.089  18.126  0.00  0.00    +0.000 C 
ATOM      4  N   UNL     1       8.167   9.459  17.920  0.00  0.00    +0.000 N 
ATOM      5  H   UNL     1       7.459   9.913  17.352  0.00  0.00    +0.000 HD
BRANCH   4   6
ATOM      6  C   UNL     1       9.100  10.307  18.566  0.00  0.00    +0.000 A 
ATOM      7  C   UNL     1       9.151  10.463  19.957  0.00  0.00    +0.000 A 
ATOM      8  C   UNL     1      10.043  11.366  20.545  0.00  0.00    +0.000 A 
ATOM      9  C   UNL     1      10.902  12.107  19.744  0.00  0.00    +0.000 A 
ATOM     10  F   UNL     1      11.727  12.990  20.324  0.00  0.00    +0.000 F 
ATOM     11  C   UNL     1      10.901  11.925  18.363  0.00  0.00    +0.000 A 
ATOM     12 CL   UNL     1      11.981  12.825  17.366  0.00  0.00    +0.000 Cl
ATOM     13  C   UNL     1      10.012  11.018  17.773  0.00  0.00    +0.000 A 
ENDBRANCH   4   6
ENDBRANCH   1   3
BRANCH   1  14
ATOM     14  C   UNL     1       7.266   5.994  16.879  0.00  0.00    +0.000 C 
BRANCH  14  15
ATOM     15  C   UNL     1       6.256   5.152  17.632  0.00  0.00    +0.000 C 
ATOM     16  O   UNL     1       6.621   4.447  18.567  0.00  0.00    +0.000 OA
ATOM     17  N   UNL     1       4.954   5.229  17.160  0.00  0.00    +0.000 N 
ATOM     18  H   UNL     1       4.807   5.672  16.258  0.00  0.00    +0.000 HD
BRANCH  17  19
ATOM     19  C   UNL     1       3.863   4.527  17.730  0.00  0.00    +0.000 A 
ATOM     20  C   UNL     1       3.375   3.329  17.184  0.00  0.00    +0.000 A 
ATOM     21  C   UNL     1       2.239   2.706  17.699  0.00  0.00    +0.000 A 
ATOM     22  C   UNL     1       1.588   3.273  18.782  0.00  0.00    +0.000 A 
ATOM     23  F   UNL     1       0.478   2.678  19.247  0.00  0.00    +0.000 F 
ATOM     24  C   UNL     1       2.079   4.436  19.370  0.00  0.00    +0.000 A 
ATOM     25 CL   UNL     1       1.259   5.144  20.709  0.00  0.00    +0.000 Cl
ATOM     26  C   UNL     1       3.231   5.059  18.860  0.00  0.00    +0.000 A 
ENDBRANCH  17  19
ENDBRANCH  14  15
ENDBRANCH   1  14
TORSDOF 5
ENDMDL
MODEL 3
REMARK VINA RESULT:      -8.1      5.579      7.096
REMARK  Name = 
REMARK  5 active torsions:
REMARK  status: ('A' for Active; 'I' for Inactive)
REMARK    1  A    between atoms: C_2  and  C_3
REMARK    2  A    between atoms: C_3  and  C_4
REMARK    3  A    between atoms: C_4  and  C_5
REMARK    4  A    between atoms: N_7  and  C_8
REMARK    5  A    between atoms: N_16  and  C_17
REMARK                            x       y       z     vdW  Elec       q    Type
REMARK                         _______ _______ _______ _____ _____    ______ ____
ROOT
ATOM      1  C   UNL     1       7.047   7.710  17.260  0.00  0.00    +0.000 C 
ENDROOT
BRANCH   1   3
ATOM      2  O   UNL     1       8.740   7.629  18.944  0.00  0.00    +0.000 OA
ATOM      3  C   UNL     1       8.111   8.315  18.147  0.00  0.00    +0.000 C 
ATOM      4  N   UNL     1       8.249   9.686  17.954  0.00  0.00    +0.000 N 
ATOM      5  H   UNL     1       7.526  10.150  17.412  0.00  0.00    +0.000 HD
BRANCH   4   6
ATOM      6  C   UNL     1       9.204  10.522  18.582  0.00  0.00    +0.000 A 
ATOM      7  C   UNL     1       9.261  10.703  19.970  0.00  0.00    +0.000 A 
ATOM      8  C   UNL     1      10.177  11.594  20.540  0.00  0.00    +0.000 A 
ATOM      9  C   UNL     1      11.052  12.298  19.724  0.00  0.00    +0.000 A 
ATOM     10  F   UNL     1      11.900  13.172  20.287  0.00  0.00    +0.000 F 
ATOM     11  C   UNL     1      11.044  12.091  18.347  0.00  0.00    +0.000 A 
ATOM     12 CL   UNL     1      12.143  12.946  17.332  0.00  0.00    +0.000 Cl
ATOM     13  C   UNL     1      10.132  11.196  17.775  0.00  0.00    +0.000 A 
ENDBRANCH   4   6
ENDBRANCH   1   3
BRANCH   1  14
ATOM     14  C   UNL     1       7.144   6.181  17.126  0.00  0.00    +0.000 C 
BRANCH  14  15
ATOM     15  C   UNL     1       6.092   5.569  18.028  0.00  0.00    +0.000 C 
ATOM     16  O   UNL     1       6.427   4.826  18.945  0.00  0.00    +0.000 OA
ATOM     17  N   UNL     1       4.781   5.890  17.708  0.00  0.00    +0.000 N 
ATOM     18  H   UNL     1       4.612   6.333  16.811  0.00  0.00    +0.000 HD
BRANCH  17  19
ATOM     19  C   UNL     1       3.653   5.427  18.431  0.00  0.00    +0.000 A 
ATOM     20  C   UNL     1       3.102   6.148  19.502  0.00  0.00    +0.000 A 
ATOM     21  C   UNL     1       2.056   5.630  20.264  0.00  0.00    +0.000 A 
ATOM     22  C   UNL     1       1.539   4.384  19.947  0.00  0.00    +0.000 A 
ATOM     23  F   UNL     1       0.553   3.885  20.709  0.00  0.00    +0.000 F 
ATOM     24  C   UNL     1       2.038   3.670  18.861  0.00  0.00    +0.000 A 
ATOM     25 CL   UNL     1       1.400   2.116  18.477  0.00  0.00    +0.000 Cl
ATOM     26  C   UNL     1       3.085   4.196  18.084  0.00  0.00    +0.000 A 
ENDBRANCH  17  19
ENDBRANCH  14  15
ENDBRANCH   1  14
TORSDOF 5
ENDMDL
MODEL 4
REMARK VINA RESULT:      -8.1      5.404      6.990
REMARK  Name = 
REMARK  5 active torsions:
REMARK  status: ('A' for Active; 'I' for Inactive)
REMARK    1  A    between atoms: C_2  and  C_3
REMARK    2  A    between atoms: C_3  and  C_4
REMARK    3  A    between atoms: C_4  and  C_5
REMARK    4  A    between atoms: N_7  and  C_8
REMARK    5  A    between atoms: N_16  and  C_17
REMARK                            x       y       z     vdW  Elec       q    Type
REMARK                         _______ _______ _______ _____ _____    ______ ____
ROOT
ATOM      1  C   UNL     1       7.764   6.417  18.499  0.00  0.00    +0.000 C 
ENDROOT
BRANCH   1   3
ATOM      2  O   UNL     1       7.431   8.367  17.160  0.00  0.00    +0.000 OA
ATOM      3  C   UNL     1       7.959   7.874  18.150  0.00  0.00    +0.000 C 
ATOM      4  N   UNL     1       8.794   8.530  19.049  0.00  0.00    +0.000 N 
ATOM      5  H   UNL     1       9.318   7.951  19.698  0.00  0.00    +0.000 HD
BRANCH   4   6
ATOM      6  C   UNL     1       9.114   9.910  19.032  0.00  0.00    +0.000 A 
ATOM      7  C   UNL     1       9.337  10.625  17.848  0.00  0.00    +0.000 A 
ATOM      8  C   UNL     1       9.720  11.970  17.884  0.00  0.00    +0.000 A 
ATOM      9  C   UNL     1       9.866  12.612  19.106  0.00  0.00    +0.000 A 
ATOM     10  F   UNL     1      10.266  13.892  19.121  0.00  0.00    +0.000 F 
ATOM     11  C   UNL     1       9.598  11.931  20.291  0.00  0.00    +0.000 A 
ATOM     12 CL   UNL     1       9.756  12.729  21.810  0.00  0.00    +0.000 Cl
ATOM     13  C   UNL     1       9.210  10.586  20.256  0.00  0.00    +0.000 A 
ENDBRANCH   4   6
ENDBRANCH   1   3
BRANCH   1  14
ATOM     14  C   UNL     1       7.404   5.531  17.295  0.00  0.00    +0.000 C 
BRANCH  14  15
ATOM     15  C   UNL     1       5.931   5.191  17.393  0.00  0.00    +0.000 C 
ATOM     16  O   UNL     1       5.101   5.887  16.817  0.00  0.00    +0.000 OA
ATOM     17  N   UNL     1       5.630   4.093  18.187  0.00  0.00    +0.000 N 
ATOM     18  H   UNL     1       6.367   3.727  18.781  0.00  0.00    +0.000 HD
BRANCH  17  19
ATOM     19  C   UNL     1       4.316   3.608  18.401  0.00  0.00    +0.000 A 
ATOM     20  C   UNL     1       3.780   2.543  17.660  0.00  0.00    +0.000 A 
ATOM     21  C   UNL     1       2.453   2.145  17.817  0.00  0.00    +0.000 A 
ATOM     22  C   UNL     1       1.652   2.803  18.735  0.00  0.00    +0.000 A 
ATOM     23  F   UNL     1       0.368   2.429  18.851  0.00  0.00    +0.000 F 
ATOM     24  C   UNL     1       2.174   3.832  19.514  0.00  0.00    +0.000 A 
ATOM     25 CL   UNL     1       1.171   4.656  20.647  0.00  0.00    +0.000 Cl
ATOM     26  C   UNL     1       3.514   4.227  19.367  0.00  0.00    +0.000 A 
ENDBRANCH  17  19
ENDBRANCH  14  15
ENDBRANCH   1  14
TORSDOF 5
ENDMDL
MODEL 5
REMARK VINA RESULT:      -8.0      4.390      5.503
REMARK  Name = 
REMARK  5 active torsions:
REMARK  status: ('A' for Active; 'I' for Inactive)
REMARK    1  A    between atoms: C_2  and  C_3
REMARK    2  A    between atoms: C_3  and  C_4
REMARK    3  A    between atoms: C_4  and  C_5
REMARK    4  A    between atoms: N_7  and  C_8
REMARK    5  A    between atoms: N_16  and  C_17
REMARK                            x       y       z     vdW  Elec       q    Type
REMARK                         _______ _______ _______ _____ _____    ______ ____
ROOT
ATOM      1  C   UNL     1       7.693   6.584  18.381  0.00  0.00    +0.000 C 
ENDROOT
BRANCH   1   3
ATOM      2  O   UNL     1       6.196   7.189  16.620  0.00  0.00    +0.000 OA
ATOM      3  C   UNL     1       7.004   6.376  17.052  0.00  0.00    +0.000 C 
ATOM      4  N   UNL     1       7.381   5.185  16.437  0.00  0.00    +0.000 N 
ATOM      5  H   UNL     1       7.899   4.520  17.002  0.00  0.00    +0.000 HD
BRANCH   4   6
ATOM      6  C   UNL     1       6.964   4.742  15.158  0.00  0.00    +0.000 A 
ATOM      7  C   UNL     1       6.038   3.708  14.976  0.00  0.00    +0.000 A 
ATOM      8  C   UNL     1       5.710   3.257  13.693  0.00  0.00    +0.000 A 
ATOM      9  C   UNL     1       6.297   3.850  12.583  0.00  0.00    +0.000 A 
ATOM     10  F   UNL     1       5.995   3.381  11.364  0.00  0.00    +0.000 F 
ATOM     11  C   UNL     1       7.181   4.913  12.744  0.00  0.00    +0.000 A 
ATOM     12 CL   UNL     1       7.895   5.668  11.370  0.00  0.00    +0.000 Cl
ATOM     13  C   UNL     1       7.506   5.370  14.028  0.00  0.00    +0.000 A 
ENDBRANCH   4   6
ENDBRANCH   1   3
BRANCH   1  14
ATOM     14  C   UNL     1       7.445   5.455  19.394  0.00  0.00    +0.000 C 
BRANCH  14  15
ATOM     15  C   UNL     1       5.970   5.111  19.353  0.00  0.00    +0.000 C 
ATOM     16  O   UNL     1       5.133   5.965  19.624  0.00  0.00    +0.000 OA
ATOM     17  N   UNL     1       5.681   3.793  19.029  0.00  0.00    +0.000 N 
ATOM     18  H   UNL     1       6.448   3.128  19.035  0.00  0.00    +0.000 HD
BRANCH  17  19
ATOM     19  C   UNL     1       4.366   3.272  18.931  0.00  0.00    +0.000 A 
ATOM     20  C   UNL     1       3.803   2.887  17.704  0.00  0.00    +0.000 A 
ATOM     21  C   UNL     1       2.475   2.471  17.613  0.00  0.00    +0.000 A 
ATOM     22  C   UNL     1       1.701   2.422  18.761  0.00  0.00    +0.000 A 
ATOM     23  F   UNL     1       0.416   2.050  18.652  0.00  0.00    +0.000 F 
ATOM     24  C   UNL     1       2.250   2.756  19.996  0.00  0.00    +0.000 A 
ATOM     25 CL   UNL     1       1.280   2.705  21.419  0.00  0.00    +0.000 Cl
ATOM     26  C   UNL     1       3.591   3.163  20.091  0.00  0.00    +0.000 A 
ENDBRANCH  17  19
ENDBRANCH  14  15
ENDBRANCH   1  14
TORSDOF 5
ENDMDL
MODEL 6
REMARK VINA RESULT:      -8.0      5.722      7.277
REMARK  Name = 
REMARK  5 active torsions:
REMARK  status: ('A' for Active; 'I' for Inactive)
REMARK    1  A    between atoms: C_2  and  C_3
REMARK    2  A    between atoms: C_3  and  C_4
REMARK    3  A    between atoms: C_4  and  C_5
REMARK    4  A    between atoms: N_7  and  C_8
REMARK    5  A    between atoms: N_16  and  C_17
REMARK                            x       y       z     vdW  Elec       q    Type
REMARK                         _______ _______ _______ _____ _____    ______ ____
ROOT
ATOM      1  C   UNL     1       7.902   7.021  18.313  0.00  0.00    +0.000 C 
ENDROOT
BRANCH   1   3
ATOM      2  O   UNL     1       7.598   9.159  17.290  0.00  0.00    +0.000 OA
ATOM      3  C   UNL     1       8.143   8.507  18.173  0.00  0.00    +0.000 C 
ATOM      4  N   UNL     1       9.039   8.993  19.121  0.00  0.00    +0.000 N 
ATOM      5  H   UNL     1       9.563   8.306  19.654  0.00  0.00    +0.000 HD
BRANCH   4   6
ATOM      6  C   UNL     1       9.414  10.348  19.291  0.00  0.00    +0.000 A 
ATOM      7  C   UNL     1       9.281  11.027  20.509  0.00  0.00    +0.000 A 
ATOM      8  C   UNL     1       9.599  12.386  20.611  0.00  0.00    +0.000 A 
ATOM      9  C   UNL     1      10.066  13.070  19.496  0.00  0.00    +0.000 A 
ATOM     10  F   UNL     1      10.334  14.379  19.606  0.00  0.00    +0.000 F 
ATOM     11  C   UNL     1      10.253  12.397  18.292  0.00  0.00    +0.000 A 
ATOM     12 CL   UNL     1      10.855  13.235  16.911  0.00  0.00    +0.000 Cl
ATOM     13  C   UNL     1       9.941  11.036  18.189  0.00  0.00    +0.000 A 
ENDBRANCH   4   6
ENDBRANCH   1   3
BRANCH   1  14
ATOM     14  C   UNL     1       7.235   6.380  17.085  0.00  0.00    +0.000 C 
BRANCH  14  15
ATOM     15  C   UNL     1       5.810   6.032  17.461  0.00  0.00    +0.000 C 
ATOM     16  O   UNL     1       4.951   6.907  17.488  0.00  0.00    +0.000 OA
ATOM     17  N   UNL     1       5.594   4.701  17.788  0.00  0.00    +0.000 N 
ATOM     18  H   UNL     1       6.409   4.116  17.938  0.00  0.00    +0.000 HD
BRANCH  17  19
ATOM     19  C   UNL     1       4.332   4.171  18.158  0.00  0.00    +0.000 A 
ATOM     20  C   UNL     1       3.425   3.666  17.214  0.00  0.00    +0.000 A 
ATOM     21  C   UNL     1       2.151   3.241  17.587  0.00  0.00    +0.000 A 
ATOM     22  C   UNL     1       1.778   3.303  18.919  0.00  0.00    +0.000 A 
ATOM     23  F   UNL     1       0.537   2.920  19.258  0.00  0.00    +0.000 F 
ATOM     24  C   UNL     1       2.677   3.757  19.881  0.00  0.00    +0.000 A 
ATOM     25 CL   UNL     1       2.207   3.844  21.536  0.00  0.00    +0.000 Cl
ATOM     26  C   UNL     1       3.966   4.175  19.509  0.00  0.00    +0.000 A 
ENDBRANCH  17  19
ENDBRANCH  14  15
ENDBRANCH   1  14
TORSDOF 5
ENDMDL
MODEL 7
REMARK VINA RESULT:      -7.9      0.422      6.193
REMARK  Name = 
REMARK  5 active torsions:
REMARK  status: ('A' for Active; 'I' for Inactive)
REMARK    1  A    between atoms: C_2  and  C_3
REMARK    2  A    between atoms: C_3  and  C_4
REMARK    3  A    between atoms: C_4  and  C_5
REMARK    4  A    between atoms: N_7  and  C_8
REMARK    5  A    between atoms: N_16  and  C_17
REMARK                            x       y       z     vdW  Elec       q    Type
REMARK                         _______ _______ _______ _____ _____    ______ ____
ROOT
ATOM      1  C   UNL     1       2.562   3.679  21.329  0.00  0.00    +0.000 C 
ENDROOT
BRANCH   1   3
ATOM      2  O   UNL     1       0.605   4.652  20.363  0.00  0.00    +0.000 OA
ATOM      3  C   UNL     1       1.778   4.800  20.686  0.00  0.00    +0.000 C 
ATOM      4  N   UNL     1       2.543   5.948  20.502  0.00  0.00    +0.000 N 
ATOM      5  H   UNL     1       3.546   5.858  20.628  0.00  0.00    +0.000 HD
BRANCH   4   6
ATOM      6  C   UNL     1       2.077   7.184  19.989  0.00  0.00    +0.000 A 
ATOM      7  C   UNL     1       2.331   7.608  18.679  0.00  0.00    +0.000 A 
ATOM      8  C   UNL     1       1.911   8.868  18.240  0.00  0.00    +0.000 A 
ATOM      9  C   UNL     1       1.220   9.705  19.105  0.00  0.00    +0.000 A 
ATOM     10  F   UNL     1       0.855  10.921  18.676  0.00  0.00    +0.000 F 
ATOM     11  C   UNL     1       0.913   9.277  20.394  0.00  0.00    +0.000 A 
ATOM     12 CL   UNL     1       0.036  10.303  21.466  0.00  0.00    +0.000 Cl
ATOM     13  C   UNL     1       1.329   8.015  20.835  0.00  0.00    +0.000 A 
ENDBRANCH   4   6
ENDBRANCH   1   3
BRANCH   1  14
ATOM     14  C   UNL     1       2.917   2.535  20.365  0.00  0.00    +0.000 C 
BRANCH  14  15
ATOM     15  C   UNL     1       4.091   2.987  19.522  0.00  0.00    +0.000 C 
ATOM     16  O   UNL     1       5.238   2.798  19.915  0.00  0.00    +0.000 OA
ATOM     17  N   UNL     1       3.756   3.631  18.340  0.00  0.00    +0.000 N 
ATOM     18  H   UNL     1       2.790   3.920  18.221  0.00  0.00    +0.000 HD
BRANCH  17  19
ATOM     19  C   UNL     1       4.705   4.122  17.409  0.00  0.00    +0.000 A 
ATOM     20  C   UNL     1       4.932   3.501  16.172  0.00  0.00    +0.000 A 
ATOM     21  C   UNL     1       5.938   3.939  15.312  0.00  0.00    +0.000 A 
ATOM     22  C   UNL     1       6.720   5.022  15.681  0.00  0.00    +0.000 A 
ATOM     23  F   UNL     1       7.705   5.412  14.858  0.00  0.00    +0.000 F 
ATOM     24  C   UNL     1       6.484   5.684  16.883  0.00  0.00    +0.000 A 
ATOM     25 CL   UNL     1       7.465   7.023  17.343  0.00  0.00    +0.000 Cl
ATOM     26  C   UNL     1       5.462   5.251  17.745  0.00  0.00    +0.000 A 
ENDBRANCH  17  19
ENDBRANCH  14  15
ENDBRANCH   1  14
TORSDOF 5
ENDMDL
MODEL 8
REMARK VINA RESULT:      -7.9      5.736      7.255
REMARK  Name = 
REMARK  5 active torsions:
REMARK  status: ('A' for Active; 'I' for Inactive)
REMARK    1  A    between atoms: C_2  and  C_3
REMARK    2  A    between atoms: C_3  and  C_4
REMARK    3  A    between atoms: C_4  and  C_5
REMARK    4  A    between atoms: N_7  and  C_8
REMARK    5  A    between atoms: N_16  and  C_17
REMARK                            x       y       z     vdW  Elec       q    Type
REMARK                         _______ _______ _______ _____ _____    ______ ____
ROOT
ATOM      1  C   UNL     1       8.086   7.080  18.491  0.00  0.00    +0.000 C 
ENDROOT
BRANCH   1   3
ATOM      2  O   UNL     1       7.637   9.198  17.481  0.00  0.00    +0.000 OA
ATOM      3  C   UNL     1       8.254   8.574  18.336  0.00  0.00    +0.000 C 
ATOM      4  N   UNL     1       9.174   9.103  19.237  0.00  0.00    +0.000 N 
ATOM      5  H   UNL     1       9.754   8.442  19.743  0.00  0.00    +0.000 HD
BRANCH   4   6
ATOM      6  C   UNL     1       9.497  10.474  19.386  0.00  0.00    +0.000 A 
ATOM      7  C   UNL     1       9.315  11.173  20.585  0.00  0.00    +0.000 A 
ATOM      8  C   UNL     1       9.582  12.544  20.664  0.00  0.00    +0.000 A 
ATOM      9  C   UNL     1      10.049  13.221  19.545  0.00  0.00    +0.000 A 
ATOM     10  F   UNL     1      10.267  14.540  19.632  0.00  0.00    +0.000 F 
ATOM     11  C   UNL     1      10.285  12.530  18.359  0.00  0.00    +0.000 A 
ATOM     12 CL   UNL     1      10.886  13.360  16.973  0.00  0.00    +0.000 Cl
ATOM     13  C   UNL     1      10.023  11.157  18.280  0.00  0.00    +0.000 A 
ENDBRANCH   4   6
ENDBRANCH   1   3
BRANCH   1  14
ATOM     14  C   UNL     1       7.043   6.469  17.540  0.00  0.00    +0.000 C 
BRANCH  14  15
ATOM     15  C   UNL     1       6.002   5.764  18.385  0.00  0.00    +0.000 C 
ATOM     16  O   UNL     1       6.352   5.040  19.312  0.00  0.00    +0.000 OA
ATOM     17  N   UNL     1       4.686   5.982  18.003  0.00  0.00    +0.000 N 
ATOM     18  H   UNL     1       4.525   6.420  17.103  0.00  0.00    +0.000 HD
BRANCH  17  19
ATOM     19  C   UNL     1       3.566   5.421  18.667  0.00  0.00    +0.000 A 
ATOM     20  C   UNL     1       2.923   6.072  19.731  0.00  0.00    +0.000 A 
ATOM     21  C   UNL     1       1.886   5.461  20.436  0.00  0.00    +0.000 A 
ATOM     22  C   UNL     1       1.472   4.192  20.067  0.00  0.00    +0.000 A 
ATOM     23  F   UNL     1       0.495   3.604  20.775  0.00  0.00    +0.000 F 
ATOM     24  C   UNL     1       2.065   3.545  18.986  0.00  0.00    +0.000 A 
ATOM     25 CL   UNL     1       1.555   1.961  18.538  0.00  0.00    +0.000 Cl
ATOM     26  C   UNL     1       3.101   4.163  18.267  0.00  0.00    +0.000 A 
ENDBRANCH  17  19
ENDBRANCH  14  15
ENDBRANCH   1  14
TORSDOF 5
ENDMDL
MODEL 9
REMARK VINA RESULT:      -7.8      5.968      7.500
REMARK  Name = 
REMARK  5 active torsions:
REMARK  status: ('A' for Active; 'I' for Inactive)
REMARK    1  A    between atoms: C_2  and  C_3
REMARK    2  A    between atoms: C_3  and  C_4
REMARK    3  A    between atoms: C_4  and  C_5
REMARK    4  A    between atoms: N_7  and  C_8
REMARK    5  A    between atoms: N_16  and  C_17
REMARK                            x       y       z     vdW  Elec       q    Type
REMARK                         _______ _______ _______ _____ _____    ______ ____
ROOT
ATOM      1  C   UNL     1       7.984   6.919  18.685  0.00  0.00    +0.000 C 
ENDROOT
BRANCH   1   3
ATOM      2  O   UNL     1       7.456   4.593  18.547  0.00  0.00    +0.000 OA
ATOM      3  C   UNL     1       7.041   5.746  18.547  0.00  0.00    +0.000 C 
ATOM      4  N   UNL     1       5.714   6.142  18.406  0.00  0.00    +0.000 N 
ATOM      5  H   UNL     1       5.545   7.126  18.219  0.00  0.00    +0.000 HD
BRANCH   4   6
ATOM      6  C   UNL     1       4.593   5.280  18.324  0.00  0.00    +0.000 A 
ATOM      7  C   UNL     1       4.386   4.399  17.255  0.00  0.00    +0.000 A 
ATOM      8  C   UNL     1       3.228   3.618  17.184  0.00  0.00    +0.000 A 
ATOM      9  C   UNL     1       2.276   3.702  18.191  0.00  0.00    +0.000 A 
ATOM     10  F   UNL     1       1.158   2.970  18.088  0.00  0.00    +0.000 F 
ATOM     11  C   UNL     1       2.491   4.534  19.287  0.00  0.00    +0.000 A 
ATOM     12 CL   UNL     1       1.324   4.626  20.552  0.00  0.00    +0.000 Cl
ATOM     13  C   UNL     1       3.652   5.313  19.363  0.00  0.00    +0.000 A 
ENDBRANCH   4   6
ENDBRANCH   1   3
BRANCH   1  14
ATOM     14  C   UNL     1       7.921   7.909  17.510  0.00  0.00    +0.000 C 
BRANCH  14  15
ATOM     15  C   UNL     1       8.255   9.286  18.046  0.00  0.00    +0.000 C 
ATOM     16  O   UNL     1       7.738  10.280  17.548  0.00  0.00    +0.000 OA
ATOM     17  N   UNL     1       9.182   9.309  19.078  0.00  0.00    +0.000 N 
ATOM     18  H   UNL     1       9.699   8.455  19.263  0.00  0.00    +0.000 HD
BRANCH  17  19
ATOM     19  C   UNL     1       9.623  10.492  19.721  0.00  0.00    +0.000 A 
ATOM     20  C   UNL     1       9.087  10.925  20.944  0.00  0.00    +0.000 A 
ATOM     21  C   UNL     1       9.462  12.142  21.511  0.00  0.00    +0.000 A 
ATOM     22  C   UNL     1      10.395  12.934  20.862  0.00  0.00    +0.000 A 
ATOM     23  F   UNL     1      10.722  14.117  21.404  0.00  0.00    +0.000 F 
ATOM     24  C   UNL     1      10.974  12.505  19.670  0.00  0.00    +0.000 A 
ATOM     25 CL   UNL     1      12.126  13.497  18.859  0.00  0.00    +0.000 Cl
ATOM     26  C   UNL     1      10.607  11.273  19.103  0.00  0.00    +0.000 A 
ENDBRANCH  17  19
ENDBRANCH  14  15
ENDBRANCH   1  14
TORSDOF 5
ENDMDL
