MODEL 1
REMARK VINA RESULT:      -6.9      0.000      0.000
REMARK  Name = 
REMARK  6 active torsions:
REMARK  status: ('A' for Active; 'I' for Inactive)
REMARK    1  A    between atoms: C_1  and  C_2
REMARK    2  A    between atoms: C_2  and  C_3
REMARK    3  A    between atoms: C_2  and  C_4
REMARK    4  A    between atoms: C_2  and  C_6
REMARK    5  A    between atoms: C_4  and  O_5
REMARK    6  A    between atoms: C_11  and  N_12
REMARK                            x       y       z     vdW  Elec       q    Type
REMARK                         _______ _______ _______ _____ _____    ______ ____
ROOT
ATOM      1  C   UNL     1       4.384   4.055  18.653  0.00  0.00    +0.000 C 
ATOM      2  N   UNL     1       4.273   3.502  17.294  0.00  0.00    +0.000 N 
ATOM      3  C   UNL     1       5.197   3.944  16.339  0.00  0.00    +0.000 A 
ATOM      4  C   UNL     1       5.370   3.186  15.171  0.00  0.00    +0.000 A 
ATOM      5  C   UNL     1       6.228   3.606  14.153  0.00  0.00    +0.000 A 
ATOM      6  C   UNL     1       6.916   4.813  14.298  0.00  0.00    +0.000 A 
ATOM      7  C   UNL     1       6.740   5.596  15.446  0.00  0.00    +0.000 A 
ATOM      8  C   UNL     1       5.846   5.187  16.455  0.00  0.00    +0.000 A 
ATOM      9  C   UNL     1       5.645   6.035  17.692  0.00  0.00    +0.000 C 
ATOM     10  N   UNL     1       5.325   7.445  17.417  0.00  0.00    +0.000 NA
ATOM     11  C   UNL     1       3.873   7.579  17.338  0.00  0.00    +0.000 C 
ATOM     12  C   UNL     1       3.280   6.317  17.939  0.00  0.00    +0.000 C 
ATOM     13  C   UNL     1       4.467   5.590  18.566  0.00  0.00    +0.000 C 
ATOM     14  H   UNL     1       4.165   2.491  17.265  0.00  0.00    +0.000 HD
ATOM     15  H   UNL     1       5.758   7.775  16.559  0.00  0.00    +0.000 HD
ENDROOT
BRANCH   1  17
ATOM     16  C   UNL     1       2.083   2.939  18.705  0.00  0.00    +0.000 C 
ATOM     17  C   UNL     1       3.253   3.459  19.583  0.00  0.00    +0.000 C 
ATOM     18  C   UNL     1       2.656   4.492  20.560  0.00  0.00    +0.000 C 
BRANCH  17  19
ATOM     19  C   UNL     1       3.815   2.251  20.380  0.00  0.00    +0.000 C 
BRANCH  19  20
ATOM     20  O   UNL     1       5.089   1.834  19.901  0.00  0.00    +0.000 OA
ATOM     21  H   UNL     1       5.681   2.607  19.918  0.00  0.00    +0.000 HD
ENDBRANCH  19  20
ENDBRANCH  17  19
ENDBRANCH   1  17
BRANCH   6  22
ATOM     22  N   UNL     1       7.815   5.271  13.233  0.00  0.00    +0.000 N 
ATOM     23  O   UNL     1       7.564   4.913  12.072  0.00  0.00    +0.000 OA
ATOM     24  O   UNL     1       8.771   5.992  13.554  0.00  0.00    +0.000 OA
ENDBRANCH   6  22
TORSDOF 4
ENDMDL
MODEL 2
REMARK VINA RESULT:      -6.8      4.033      6.842
REMARK  Name = 
REMARK  6 active torsions:
REMARK  status: ('A' for Active; 'I' for Inactive)
REMARK    1  A    between atoms: C_1  and  C_2
REMARK    2  A    between atoms: C_2  and  C_3
REMARK    3  A    between atoms: C_2  and  C_4
REMARK    4  A    between atoms: C_2  and  C_6
REMARK    5  A    between atoms: C_4  and  O_5
REMARK    6  A    between atoms: C_11  and  N_12
REMARK                            x       y       z     vdW  Elec       q    Type
REMARK                         _______ _______ _______ _____ _____    ______ ____
ROOT
ATOM      1  C   UNL     1       4.491   5.934  17.996  0.00  0.00    +0.000 C 
ATOM      2  N   UNL     1       3.640   6.995  17.432  0.00  0.00    +0.000 N 
ATOM      3  C   UNL     1       2.798   7.683  18.314  0.00  0.00    +0.000 A 
ATOM      4  C   UNL     1       2.269   8.918  17.910  0.00  0.00    +0.000 A 
ATOM      5  C   UNL     1       1.373   9.623  18.716  0.00  0.00    +0.000 A 
ATOM      6  C   UNL     1       0.987   9.078  19.942  0.00  0.00    +0.000 A 
ATOM      7  C   UNL     1       1.485   7.836  20.354  0.00  0.00    +0.000 A 
ATOM      8  C   UNL     1       2.361   7.110  19.523  0.00  0.00    +0.000 A 
ATOM      9  C   UNL     1       2.894   5.763  19.959  0.00  0.00    +0.000 C 
ATOM     10  N   UNL     1       1.857   4.808  20.385  0.00  0.00    +0.000 NA
ATOM     11  C   UNL     1       1.439   4.036  19.218  0.00  0.00    +0.000 C 
ATOM     12  C   UNL     1       2.488   4.257  18.142  0.00  0.00    +0.000 C 
ATOM     13  C   UNL     1       3.621   4.994  18.851  0.00  0.00    +0.000 C 
ATOM     14  H   UNL     1       4.131   7.634  16.813  0.00  0.00    +0.000 HD
ATOM     15  H   UNL     1       1.058   5.273  20.806  0.00  0.00    +0.000 HD
ENDROOT
BRANCH   1  17
ATOM     16  C   UNL     1       5.240   6.099  15.556  0.00  0.00    +0.000 C 
ATOM     17  C   UNL     1       5.355   5.259  16.856  0.00  0.00    +0.000 C 
ATOM     18  C   UNL     1       4.896   3.829  16.508  0.00  0.00    +0.000 C 
BRANCH  17  19
ATOM     19  C   UNL     1       6.849   5.242  17.274  0.00  0.00    +0.000 C 
BRANCH  19  20
ATOM     20  O   UNL     1       7.141   4.194  18.193  0.00  0.00    +0.000 OA
ATOM     21  H   UNL     1       7.578   4.590  18.968  0.00  0.00    +0.000 HD
ENDBRANCH  19  20
ENDBRANCH  17  19
ENDBRANCH   1  17
BRANCH   6  22
ATOM     22  N   UNL     1       0.040   9.804  20.796  0.00  0.00    +0.000 N 
ATOM     23  O   UNL     1      -0.361   9.238  21.824  0.00  0.00    +0.000 OA
ATOM     24  O   UNL     1      -0.300  10.943  20.444  0.00  0.00    +0.000 OA
ENDBRANCH   6  22
TORSDOF 4
ENDMDL
MODEL 3
REMARK VINA RESULT:      -6.6      4.091      6.937
REMARK  Name = 
REMARK  6 active torsions:
REMARK  status: ('A' for Active; 'I' for Inactive)
REMARK    1  A    between atoms: C_1  and  C_2
REMARK    2  A    between atoms: C_2  and  C_3
REMARK    3  A    between atoms: C_2  and  C_4
REMARK    4  A    between atoms: C_2  and  C_6
REMARK    5  A    between atoms: C_4  and  O_5
REMARK    6  A    between atoms: C_11  and  N_12
REMARK                            x       y       z     vdW  Elec       q    Type
REMARK                         _______ _______ _______ _____ _____    ______ ____
ROOT
ATOM      1  C   UNL     1       4.519   6.130  17.906  0.00  0.00    +0.000 C 
ATOM      2  N   UNL     1       3.635   7.184  17.383  0.00  0.00    +0.000 N 
ATOM      3  C   UNL     1       2.776   7.816  18.291  0.00  0.00    +0.000 A 
ATOM      4  C   UNL     1       2.209   9.048  17.933  0.00  0.00    +0.000 A 
ATOM      5  C   UNL     1       1.296   9.697  18.766  0.00  0.00    +0.000 A 
ATOM      6  C   UNL     1       0.931   9.098  19.973  0.00  0.00    +0.000 A 
ATOM      7  C   UNL     1       1.468   7.857  20.339  0.00  0.00    +0.000 A 
ATOM      8  C   UNL     1       2.361   7.187  19.479  0.00  0.00    +0.000 A 
ATOM      9  C   UNL     1       2.936   5.842  19.866  0.00  0.00    +0.000 C 
ATOM     10  N   UNL     1       1.929   4.842  20.261  0.00  0.00    +0.000 NA
ATOM     11  C   UNL     1       1.529   4.100  19.068  0.00  0.00    +0.000 C 
ATOM     12  C   UNL     1       2.567   4.390  17.998  0.00  0.00    +0.000 C 
ATOM     13  C   UNL     1       3.681   5.134  18.729  0.00  0.00    +0.000 C 
ATOM     14  H   UNL     1       4.104   7.860  16.785  0.00  0.00    +0.000 HD
ATOM     15  H   UNL     1       1.118   5.268  20.701  0.00  0.00    +0.000 HD
ENDROOT
BRANCH   1  17
ATOM     16  C   UNL     1       6.902   5.690  17.085  0.00  0.00    +0.000 C 
ATOM     17  C   UNL     1       5.397   5.522  16.740  0.00  0.00    +0.000 C 
ATOM     18  C   UNL     1       5.170   6.211  15.380  0.00  0.00    +0.000 C 
BRANCH  17  19
ATOM     19  C   UNL     1       5.113   4.002  16.609  0.00  0.00    +0.000 C 
BRANCH  19  20
ATOM     20  O   UNL     1       6.132   3.322  15.884  0.00  0.00    +0.000 OA
ATOM     21  H   UNL     1       6.316   3.836  15.077  0.00  0.00    +0.000 HD
ENDBRANCH  19  20
ENDBRANCH  17  19
ENDBRANCH   1  17
BRANCH   6  22
ATOM     22  N   UNL     1      -0.033   9.764  20.855  0.00  0.00    +0.000 N 
ATOM     23  O   UNL     1      -0.379   9.169  21.887  0.00  0.00    +0.000 OA
ATOM     24  O   UNL     1      -0.442  10.886  20.521  0.00  0.00    +0.000 OA
ENDBRANCH   6  22
TORSDOF 4
ENDMDL
MODEL 4
REMARK VINA RESULT:      -6.5      3.921      5.885
REMARK  Name = 
REMARK  6 active torsions:
REMARK  status: ('A' for Active; 'I' for Inactive)
REMARK    1  A    between atoms: C_1  and  C_2
REMARK    2  A    between atoms: C_2  and  C_3
REMARK    3  A    between atoms: C_2  and  C_4
REMARK    4  A    between atoms: C_2  and  C_6
REMARK    5  A    between atoms: C_4  and  O_5
REMARK    6  A    between atoms: C_11  and  N_12
REMARK                            x       y       z     vdW  Elec       q    Type
REMARK                         _______ _______ _______ _____ _____    ______ ____
ROOT
ATOM      1  C   UNL     1       2.449   4.352  19.413  0.00  0.00    +0.000 C 
ATOM      2  N   UNL     1       2.220   5.408  20.412  0.00  0.00    +0.000 N 
ATOM      3  C   UNL     1       1.988   6.706  19.937  0.00  0.00    +0.000 A 
ATOM      4  C   UNL     1       1.402   7.642  20.803  0.00  0.00    +0.000 A 
ATOM      5  C   UNL     1       1.203   8.967  20.412  0.00  0.00    +0.000 A 
ATOM      6  C   UNL     1       1.610   9.369  19.138  0.00  0.00    +0.000 A 
ATOM      7  C   UNL     1       2.217   8.456  18.267  0.00  0.00    +0.000 A 
ATOM      8  C   UNL     1       2.449   7.129  18.678  0.00  0.00    +0.000 A 
ATOM      9  C   UNL     1       3.115   6.141  17.744  0.00  0.00    +0.000 C 
ATOM     10  N   UNL     1       4.384   6.613  17.165  0.00  0.00    +0.000 NA
ATOM     11  C   UNL     1       5.472   6.199  18.048  0.00  0.00    +0.000 C 
ATOM     12  C   UNL     1       4.905   5.144  18.982  0.00  0.00    +0.000 C 
ATOM     13  C   UNL     1       3.523   4.827  18.417  0.00  0.00    +0.000 C 
ATOM     14  H   UNL     1       1.555   5.155  21.138  0.00  0.00    +0.000 HD
ATOM     15  H   UNL     1       4.396   7.621  17.038  0.00  0.00    +0.000 HD
ENDROOT
BRANCH   1  17
ATOM     16  C   UNL     1       2.283   3.067  21.619  0.00  0.00    +0.000 C 
ATOM     17  C   UNL     1       2.710   2.967  20.129  0.00  0.00    +0.000 C 
ATOM     18  C   UNL     1       4.192   2.541  20.116  0.00  0.00    +0.000 C 
BRANCH  17  19
ATOM     19  C   UNL     1       1.844   1.864  19.466  0.00  0.00    +0.000 C 
BRANCH  19  20
ATOM     20  O   UNL     1       2.379   1.433  18.218  0.00  0.00    +0.000 OA
ATOM     21  H   UNL     1       3.055   0.756  18.402  0.00  0.00    +0.000 HD
ENDBRANCH  19  20
ENDBRANCH  17  19
ENDBRANCH   1  17
BRANCH   6  22
ATOM     22  N   UNL     1       1.415  10.761  18.716  0.00  0.00    +0.000 N 
ATOM     23  O   UNL     1       2.289  11.276  18.003  0.00  0.00    +0.000 OA
ATOM     24  O   UNL     1       0.385  11.340  19.094  0.00  0.00    +0.000 OA
ENDBRANCH   6  22
TORSDOF 4
ENDMDL
MODEL 5
REMARK VINA RESULT:      -6.5      3.845      5.738
REMARK  Name = 
REMARK  6 active torsions:
REMARK  status: ('A' for Active; 'I' for Inactive)
REMARK    1  A    between atoms: C_1  and  C_2
REMARK    2  A    between atoms: C_2  and  C_3
REMARK    3  A    between atoms: C_2  and  C_4
REMARK    4  A    between atoms: C_2  and  C_6
REMARK    5  A    between atoms: C_4  and  O_5
REMARK    6  A    between atoms: C_11  and  N_12
REMARK                            x       y       z     vdW  Elec       q    Type
REMARK                         _______ _______ _______ _____ _____    ______ ____
ROOT
ATOM      1  C   UNL     1       2.510   4.390  19.394  0.00  0.00    +0.000 C 
ATOM      2  N   UNL     1       2.254   5.458  20.375  0.00  0.00    +0.000 N 
ATOM      3  C   UNL     1       2.028   6.748  19.880  0.00  0.00    +0.000 A 
ATOM      4  C   UNL     1       1.420   7.693  20.720  0.00  0.00    +0.000 A 
ATOM      5  C   UNL     1       1.225   9.012  20.309  0.00  0.00    +0.000 A 
ATOM      6  C   UNL     1       1.659   9.401  19.040  0.00  0.00    +0.000 A 
ATOM      7  C   UNL     1       2.290   8.480  18.194  0.00  0.00    +0.000 A 
ATOM      8  C   UNL     1       2.517   7.158  18.626  0.00  0.00    +0.000 A 
ATOM      9  C   UNL     1       3.208   6.162  17.719  0.00  0.00    +0.000 C 
ATOM     10  N   UNL     1       4.488   6.632  17.164  0.00  0.00    +0.000 NA
ATOM     11  C   UNL     1       5.557   6.232  18.077  0.00  0.00    +0.000 C 
ATOM     12  C   UNL     1       4.973   5.186  19.010  0.00  0.00    +0.000 C 
ATOM     13  C   UNL     1       3.605   4.857  18.418  0.00  0.00    +0.000 C 
ATOM     14  H   UNL     1       1.574   5.211  21.089  0.00  0.00    +0.000 HD
ATOM     15  H   UNL     1       4.499   7.638  17.026  0.00  0.00    +0.000 HD
ENDROOT
BRANCH   1  17
ATOM     16  C   UNL     1       1.888   1.910  19.476  0.00  0.00    +0.000 C 
ATOM     17  C   UNL     1       2.759   3.015  20.133  0.00  0.00    +0.000 C 
ATOM     18  C   UNL     1       2.388   3.048  21.629  0.00  0.00    +0.000 C 
BRANCH  17  19
ATOM     19  C   UNL     1       4.245   2.597  19.973  0.00  0.00    +0.000 C 
BRANCH  19  20
ATOM     20  O   UNL     1       4.402   1.486  19.096  0.00  0.00    +0.000 OA
ATOM     21  H   UNL     1       5.315   1.159  19.192  0.00  0.00    +0.000 HD
ENDBRANCH  19  20
ENDBRANCH  17  19
ENDBRANCH   1  17
BRANCH   6  22
ATOM     22  N   UNL     1       1.469  10.786  18.597  0.00  0.00    +0.000 N 
ATOM     23  O   UNL     1       0.418  11.358  18.924  0.00  0.00    +0.000 OA
ATOM     24  O   UNL     1       2.372  11.308  17.927  0.00  0.00    +0.000 OA
ENDBRANCH   6  22
TORSDOF 4
ENDMDL
MODEL 6
REMARK VINA RESULT:      -6.5      0.698      1.346
REMARK  Name = 
REMARK  6 active torsions:
REMARK  status: ('A' for Active; 'I' for Inactive)
REMARK    1  A    between atoms: C_1  and  C_2
REMARK    2  A    between atoms: C_2  and  C_3
REMARK    3  A    between atoms: C_2  and  C_4
REMARK    4  A    between atoms: C_2  and  C_6
REMARK    5  A    between atoms: C_4  and  O_5
REMARK    6  A    between atoms: C_11  and  N_12
REMARK                            x       y       z     vdW  Elec       q    Type
REMARK                         _______ _______ _______ _____ _____    ______ ____
ROOT
ATOM      1  C   UNL     1       4.648   3.951  18.562  0.00  0.00    +0.000 C 
ATOM      2  N   UNL     1       4.502   3.428  17.194  0.00  0.00    +0.000 N 
ATOM      3  C   UNL     1       5.391   3.906  16.223  0.00  0.00    +0.000 A 
ATOM      4  C   UNL     1       5.538   3.178  15.032  0.00  0.00    +0.000 A 
ATOM      5  C   UNL     1       6.359   3.634  13.999  0.00  0.00    +0.000 A 
ATOM      6  C   UNL     1       7.035   4.847  14.152  0.00  0.00    +0.000 A 
ATOM      7  C   UNL     1       6.884   5.600  15.323  0.00  0.00    +0.000 A 
ATOM      8  C   UNL     1       6.027   5.155  16.348  0.00  0.00    +0.000 A 
ATOM      9  C   UNL     1       5.852   5.970  17.612  0.00  0.00    +0.000 C 
ATOM     10  N   UNL     1       5.506   7.382  17.380  0.00  0.00    +0.000 NA
ATOM     11  C   UNL     1       4.050   7.498  17.349  0.00  0.00    +0.000 C 
ATOM     12  C   UNL     1       3.493   6.213  17.937  0.00  0.00    +0.000 C 
ATOM     13  C   UNL     1       4.708   5.488  18.509  0.00  0.00    +0.000 C 
ATOM     14  H   UNL     1       4.407   2.417  17.144  0.00  0.00    +0.000 HD
ATOM     15  H   UNL     1       5.908   7.739  16.517  0.00  0.00    +0.000 HD
ENDROOT
BRANCH   1  17
ATOM     16  C   UNL     1       2.967   4.419  20.433  0.00  0.00    +0.000 C 
ATOM     17  C   UNL     1       3.554   3.316  19.511  0.00  0.00    +0.000 C 
ATOM     18  C   UNL     1       4.110   2.212  20.433  0.00  0.00    +0.000 C 
BRANCH  17  19
ATOM     19  C   UNL     1       2.389   2.748  18.659  0.00  0.00    +0.000 C 
BRANCH  19  20
ATOM     20  O   UNL     1       2.620   1.402  18.258  0.00  0.00    +0.000 OA
ATOM     21  H   UNL     1       3.236   1.002  18.897  0.00  0.00    +0.000 HD
ENDBRANCH  19  20
ENDBRANCH  17  19
ENDBRANCH   1  17
BRANCH   6  22
ATOM     22  N   UNL     1       7.895   5.343  13.071  0.00  0.00    +0.000 N 
ATOM     23  O   UNL     1       8.865   6.050  13.384  0.00  0.00    +0.000 OA
ATOM     24  O   UNL     1       7.605   5.023  11.909  0.00  0.00    +0.000 OA
ENDBRANCH   6  22
TORSDOF 4
ENDMDL
MODEL 7
REMARK VINA RESULT:      -6.5      4.138      6.895
REMARK  Name = 
REMARK  6 active torsions:
REMARK  status: ('A' for Active; 'I' for Inactive)
REMARK    1  A    between atoms: C_1  and  C_2
REMARK    2  A    between atoms: C_2  and  C_3
REMARK    3  A    between atoms: C_2  and  C_4
REMARK    4  A    between atoms: C_2  and  C_6
REMARK    5  A    between atoms: C_4  and  O_5
REMARK    6  A    between atoms: C_11  and  N_12
REMARK                            x       y       z     vdW  Elec       q    Type
REMARK                         _______ _______ _______ _____ _____    ______ ____
ROOT
ATOM      1  C   UNL     1       4.324   5.734  18.235  0.00  0.00    +0.000 C 
ATOM      2  N   UNL     1       3.527   6.785  17.582  0.00  0.00    +0.000 N 
ATOM      3  C   UNL     1       2.746   7.608  18.404  0.00  0.00    +0.000 A 
ATOM      4  C   UNL     1       2.283   8.827  17.888  0.00  0.00    +0.000 A 
ATOM      5  C   UNL     1       1.449   9.662  18.633  0.00  0.00    +0.000 A 
ATOM      6  C   UNL     1       1.058   9.265  19.914  0.00  0.00    +0.000 A 
ATOM      7  C   UNL     1       1.490   8.041  20.439  0.00  0.00    +0.000 A 
ATOM      8  C   UNL     1       2.302   7.184  19.670  0.00  0.00    +0.000 A 
ATOM      9  C   UNL     1       2.763   5.856  20.230  0.00  0.00    +0.000 C 
ATOM     10  N   UNL     1       1.680   5.013  20.765  0.00  0.00    +0.000 NA
ATOM     11  C   UNL     1       1.191   4.157  19.687  0.00  0.00    +0.000 C 
ATOM     12  C   UNL     1       2.228   4.206  18.578  0.00  0.00    +0.000 C 
ATOM     13  C   UNL     1       3.419   4.938  19.193  0.00  0.00    +0.000 C 
ATOM     14  H   UNL     1       4.041   7.329  16.895  0.00  0.00    +0.000 HD
ATOM     15  H   UNL     1       0.920   5.566  21.150  0.00  0.00    +0.000 HD
ENDROOT
BRANCH   1  17
ATOM     16  C   UNL     1       4.393   3.550  16.904  0.00  0.00    +0.000 C 
ATOM     17  C   UNL     1       5.121   4.899  17.155  0.00  0.00    +0.000 C 
ATOM     18  C   UNL     1       6.561   4.557  17.586  0.00  0.00    +0.000 C 
BRANCH  17  19
ATOM     19  C   UNL     1       5.148   5.674  15.811  0.00  0.00    +0.000 C 
BRANCH  19  20
ATOM     20  O   UNL     1       5.993   6.819  15.865  0.00  0.00    +0.000 OA
ATOM     21  H   UNL     1       6.342   6.974  14.969  0.00  0.00    +0.000 HD
ENDBRANCH  19  20
ENDBRANCH  17  19
ENDBRANCH   1  17
BRANCH   6  22
ATOM     22  N   UNL     1       0.175  10.128  20.706  0.00  0.00    +0.000 N 
ATOM     23  O   UNL     1      -0.873  10.526  20.174  0.00  0.00    +0.000 OA
ATOM     24  O   UNL     1       0.525  10.406  21.863  0.00  0.00    +0.000 OA
ENDBRANCH   6  22
TORSDOF 4
ENDMDL
MODEL 8
REMARK VINA RESULT:      -6.4      1.006      1.212
REMARK  Name = 
REMARK  6 active torsions:
REMARK  status: ('A' for Active; 'I' for Inactive)
REMARK    1  A    between atoms: C_1  and  C_2
REMARK    2  A    between atoms: C_2  and  C_3
REMARK    3  A    between atoms: C_2  and  C_4
REMARK    4  A    between atoms: C_2  and  C_6
REMARK    5  A    between atoms: C_4  and  O_5
REMARK    6  A    between atoms: C_11  and  N_12
REMARK                            x       y       z     vdW  Elec       q    Type
REMARK                         _______ _______ _______ _____ _____    ______ ____
ROOT
ATOM      1  C   UNL     1       3.778   4.282  19.028  0.00  0.00    +0.000 C 
ATOM      2  N   UNL     1       3.703   3.625  17.713  0.00  0.00    +0.000 N 
ATOM      3  C   UNL     1       4.664   3.982  16.758  0.00  0.00    +0.000 A 
ATOM      4  C   UNL     1       4.864   3.133  15.659  0.00  0.00    +0.000 A 
ATOM      5  C   UNL     1       5.761   3.463  14.641  0.00  0.00    +0.000 A 
ATOM      6  C   UNL     1       6.460   4.670  14.715  0.00  0.00    +0.000 A 
ATOM      7  C   UNL     1       6.258   5.542  15.792  0.00  0.00    +0.000 A 
ATOM      8  C   UNL     1       5.325   5.222  16.799  0.00  0.00    +0.000 A 
ATOM      9  C   UNL     1       5.096   6.166  17.960  0.00  0.00    +0.000 C 
ATOM     10  N   UNL     1       4.805   7.555  17.565  0.00  0.00    +0.000 NA
ATOM     11  C   UNL     1       3.358   7.698  17.428  0.00  0.00    +0.000 C 
ATOM     12  C   UNL     1       2.728   6.493  18.104  0.00  0.00    +0.000 C 
ATOM     13  C   UNL     1       3.884   5.804  18.825  0.00  0.00    +0.000 C 
ATOM     14  H   UNL     1       3.582   2.617  17.759  0.00  0.00    +0.000 HD
ATOM     15  H   UNL     1       5.270   7.812  16.699  0.00  0.00    +0.000 HD
ENDROOT
BRANCH   1  17
ATOM     16  C   UNL     1       1.424   3.281  19.088  0.00  0.00    +0.000 C 
ATOM     17  C   UNL     1       2.608   3.772  19.963  0.00  0.00    +0.000 C 
ATOM     18  C   UNL     1       2.052   4.865  20.898  0.00  0.00    +0.000 C 
BRANCH  17  19
ATOM     19  C   UNL     1       3.101   2.566  20.805  0.00  0.00    +0.000 C 
BRANCH  19  20
ATOM     20  O   UNL     1       2.595   2.593  22.136  0.00  0.00    +0.000 OA
ATOM     21  H   UNL     1       2.421   3.522  22.370  0.00  0.00    +0.000 HD
ENDBRANCH  19  20
ENDBRANCH  17  19
ENDBRANCH   1  17
BRANCH   6  22
ATOM     22  N   UNL     1       7.400   5.034  13.648  0.00  0.00    +0.000 N 
ATOM     23  O   UNL     1       8.360   5.759  13.948  0.00  0.00    +0.000 OA
ATOM     24  O   UNL     1       7.182   4.591  12.511  0.00  0.00    +0.000 OA
ENDBRANCH   6  22
TORSDOF 4
ENDMDL
MODEL 9
REMARK VINA RESULT:      -6.4      3.851      5.693
REMARK  Name = 
REMARK  6 active torsions:
REMARK  status: ('A' for Active; 'I' for Inactive)
REMARK    1  A    between atoms: C_1  and  C_2
REMARK    2  A    between atoms: C_2  and  C_3
REMARK    3  A    between atoms: C_2  and  C_4
REMARK    4  A    between atoms: C_2  and  C_6
REMARK    5  A    between atoms: C_4  and  O_5
REMARK    6  A    between atoms: C_11  and  N_12
REMARK                            x       y       z     vdW  Elec       q    Type
REMARK                         _______ _______ _______ _____ _____    ______ ____
ROOT
ATOM      1  C   UNL     1       2.588   4.053  18.882  0.00  0.00    +0.000 C 
ATOM      2  N   UNL     1       2.283   4.979  19.984  0.00  0.00    +0.000 N 
ATOM      3  C   UNL     1       2.092   6.329  19.660  0.00  0.00    +0.000 A 
ATOM      4  C   UNL     1       1.442   7.156  20.587  0.00  0.00    +0.000 A 
ATOM      5  C   UNL     1       1.277   8.522  20.352  0.00  0.00    +0.000 A 
ATOM      6  C   UNL     1       1.785   9.076  19.174  0.00  0.00    +0.000 A 
ATOM      7  C   UNL     1       2.458   8.271  18.245  0.00  0.00    +0.000 A 
ATOM      8  C   UNL     1       2.653   6.900  18.503  0.00  0.00    +0.000 A 
ATOM      9  C   UNL     1       3.389   6.029  17.508  0.00  0.00    +0.000 C 
ATOM     10  N   UNL     1       4.701   6.553  17.094  0.00  0.00    +0.000 NA
ATOM     11  C   UNL     1       5.714   6.019  18.000  0.00  0.00    +0.000 C 
ATOM     12  C   UNL     1       5.073   4.863  18.747  0.00  0.00    +0.000 C 
ATOM     13  C   UNL     1       3.739   4.636  18.041  0.00  0.00    +0.000 C 
ATOM     14  H   UNL     1       1.562   4.646  20.619  0.00  0.00    +0.000 HD
ATOM     15  H   UNL     1       4.725   7.569  17.096  0.00  0.00    +0.000 HD
ENDROOT
BRANCH   1  17
ATOM     16  C   UNL     1       3.594   1.749  18.407  0.00  0.00    +0.000 C 
ATOM     17  C   UNL     1       2.789   2.586  19.437  0.00  0.00    +0.000 C 
ATOM     18  C   UNL     1       1.462   1.839  19.682  0.00  0.00    +0.000 C 
BRANCH  17  19
ATOM     19  C   UNL     1       3.613   2.633  20.751  0.00  0.00    +0.000 C 
BRANCH  19  20
ATOM     20  O   UNL     1       2.786   2.590  21.909  0.00  0.00    +0.000 OA
ATOM     21  H   UNL     1       1.871   2.430  21.616  0.00  0.00    +0.000 HD
ENDBRANCH  19  20
ENDBRANCH  17  19
ENDBRANCH   1  17
BRANCH   6  22
ATOM     22  N   UNL     1       1.627  10.511  18.916  0.00  0.00    +0.000 N 
ATOM     23  O   UNL     1       0.890  11.156  19.677  0.00  0.00    +0.000 OA
ATOM     24  O   UNL     1       2.243  10.997  17.956  0.00  0.00    +0.000 OA
ENDBRANCH   6  22
TORSDOF 4
ENDMDL
