MODEL 1
REMARK VINA RESULT:      -7.3      0.000      0.000
REMARK  Name = 
REMARK  7 active torsions:
REMARK  status: ('A' for Active; 'I' for Inactive)
REMARK    1  A    between atoms: C_1  and  O_2
REMARK    2  A    between atoms: O_2  and  C_3
REMARK    3  A    between atoms: C_3  and  C_4
REMARK    4  A    between atoms: C_4  and  N_5
REMARK    5  A    between atoms: C_8  and  C_9
REMARK    6  A    between atoms: N_21  and  C_22
REMARK    7  A    between atoms: N_21  and  C_23
REMARK                            x       y       z     vdW  Elec       q    Type
REMARK                         _______ _______ _______ _____ _____    ______ ____
ROOT
ATOM      1  N   UNL     1       6.492   5.386  17.558  0.00  0.00    +0.000 N 
ATOM      2  C   UNL     1       5.615   5.091  18.595  0.00  0.00    +0.000 A 
ATOM      3  O   UNL     1       5.747   5.501  19.742  0.00  0.00    +0.000 OA
ATOM      4  C   UNL     1       4.430   4.170  18.256  0.00  0.00    +0.000 A 
ATOM      5  N   UNL     1       4.207   3.760  17.038  0.00  0.00    +0.000 NA
ATOM      6  C   UNL     1       5.119   4.140  16.038  0.00  0.00    +0.000 A 
ATOM      7  C   UNL     1       4.954   3.729  14.738  0.00  0.00    +0.000 A 
ATOM      8  N   UNL     1       5.798   4.035  13.731  0.00  0.00    +0.000 NA
ATOM      9  C   UNL     1       6.877   4.776  14.019  0.00  0.00    +0.000 A 
ATOM     10  N   UNL     1       7.766   5.073  13.012  0.00  0.00    +0.000 N 
ATOM     11  C   UNL     1       8.910   5.927  13.251  0.00  0.00    +0.000 C 
ATOM     12  C   UNL     1       7.469   4.719  11.637  0.00  0.00    +0.000 C 
ATOM     13  N   UNL     1       7.129   5.210  15.266  0.00  0.00    +0.000 NA
ATOM     14  C   UNL     1       6.250   4.907  16.248  0.00  0.00    +0.000 A 
ENDROOT
BRANCH   4  15
ATOM     15  C   UNL     1       3.493   3.736  19.342  0.00  0.00    +0.000 A 
ATOM     16  C   UNL     1       2.245   4.373  19.452  0.00  0.00    +0.000 A 
ATOM     17  C   UNL     1       1.357   4.013  20.465  0.00  0.00    +0.000 A 
ATOM     18  C   UNL     1       1.706   3.008  21.363  0.00  0.00    +0.000 A 
ATOM     19  F   UNL     1       0.861   2.673  22.346  0.00  0.00    +0.000 F 
ATOM     20  C   UNL     1       2.921   2.344  21.250  0.00  0.00    +0.000 A 
ATOM     21  C   UNL     1       3.809   2.698  20.230  0.00  0.00    +0.000 A 
ENDBRANCH   4  15
BRANCH   1  22
ATOM     22  C   UNL     1       7.700   6.155  17.843  0.00  0.00    +0.000 C 
BRANCH  22  23
ATOM     23  C   UNL     1       7.598   7.674  17.659  0.00  0.00    +0.000 C 
BRANCH  23  25
ATOM     24  C   UNL     1       8.548   9.752  18.191  0.00  0.00    +0.000 C 
ATOM     25  O   UNL     1       8.489   8.371  18.532  0.00  0.00    +0.000 OA
ENDBRANCH  23  25
ENDBRANCH  22  23
ENDBRANCH   1  22
TORSDOF 4
ENDMDL
MODEL 2
REMARK VINA RESULT:      -7.1      4.506      7.948
REMARK  Name = 
REMARK  7 active torsions:
REMARK  status: ('A' for Active; 'I' for Inactive)
REMARK    1  A    between atoms: C_1  and  O_2
REMARK    2  A    between atoms: O_2  and  C_3
REMARK    3  A    between atoms: C_3  and  C_4
REMARK    4  A    between atoms: C_4  and  N_5
REMARK    5  A    between atoms: C_8  and  C_9
REMARK    6  A    between atoms: N_21  and  C_22
REMARK    7  A    between atoms: N_21  and  C_23
REMARK                            x       y       z     vdW  Elec       q    Type
REMARK                         _______ _______ _______ _____ _____    ______ ____
ROOT
ATOM      1  N   UNL     1       2.633   5.909  19.638  0.00  0.00    +0.000 N 
ATOM      2  C   UNL     1       3.502   5.329  18.721  0.00  0.00    +0.000 A 
ATOM      3  O   UNL     1       3.899   4.172  18.791  0.00  0.00    +0.000 OA
ATOM      4  C   UNL     1       3.995   6.229  17.575  0.00  0.00    +0.000 A 
ATOM      5  N   UNL     1       3.552   7.445  17.418  0.00  0.00    +0.000 NA
ATOM      6  C   UNL     1       2.641   7.941  18.366  0.00  0.00    +0.000 A 
ATOM      7  C   UNL     1       2.148   9.219  18.271  0.00  0.00    +0.000 A 
ATOM      8  N   UNL     1       1.289   9.771  19.153  0.00  0.00    +0.000 NA
ATOM      9  C   UNL     1       0.902   9.029  20.200  0.00  0.00    +0.000 A 
ATOM     10  N   UNL     1       0.051   9.584  21.128  0.00  0.00    +0.000 N 
ATOM     11  C   UNL     1      -0.454   8.807  22.240  0.00  0.00    +0.000 C 
ATOM     12  C   UNL     1      -0.535  10.891  20.903  0.00  0.00    +0.000 C 
ATOM     13  N   UNL     1       1.345   7.774  20.385  0.00  0.00    +0.000 NA
ATOM     14  C   UNL     1       2.185   7.242  19.468  0.00  0.00    +0.000 A 
ENDROOT
BRANCH   4  15
ATOM     15  C   UNL     1       5.003   5.700  16.599  0.00  0.00    +0.000 A 
ATOM     16  C   UNL     1       6.340   6.119  16.715  0.00  0.00    +0.000 A 
ATOM     17  C   UNL     1       7.300   5.668  15.811  0.00  0.00    +0.000 A 
ATOM     18  C   UNL     1       6.933   4.789  14.797  0.00  0.00    +0.000 A 
ATOM     19  F   UNL     1       7.852   4.367  13.918  0.00  0.00    +0.000 F 
ATOM     20  C   UNL     1       5.624   4.338  14.685  0.00  0.00    +0.000 A 
ATOM     21  C   UNL     1       4.661   4.783  15.596  0.00  0.00    +0.000 A 
ENDBRANCH   4  15
BRANCH   1  22
ATOM     22  C   UNL     1       2.223   5.145  20.813  0.00  0.00    +0.000 C 
BRANCH  22  23
ATOM     23  C   UNL     1       1.057   4.171  20.619  0.00  0.00    +0.000 C 
BRANCH  23  25
ATOM     24  C   UNL     1       2.562   2.654  21.589  0.00  0.00    +0.000 C 
ATOM     25  O   UNL     1       1.192   3.015  21.448  0.00  0.00    +0.000 OA
ENDBRANCH  23  25
ENDBRANCH  22  23
ENDBRANCH   1  22
TORSDOF 4
ENDMDL
MODEL 3
REMARK VINA RESULT:      -6.5      6.509      8.675
REMARK  Name = 
REMARK  7 active torsions:
REMARK  status: ('A' for Active; 'I' for Inactive)
REMARK    1  A    between atoms: C_1  and  O_2
REMARK    2  A    between atoms: O_2  and  C_3
REMARK    3  A    between atoms: C_3  and  C_4
REMARK    4  A    between atoms: C_4  and  N_5
REMARK    5  A    between atoms: C_8  and  C_9
REMARK    6  A    between atoms: N_21  and  C_22
REMARK    7  A    between atoms: N_21  and  C_23
REMARK                            x       y       z     vdW  Elec       q    Type
REMARK                         _______ _______ _______ _____ _____    ______ ____
ROOT
ATOM      1  N   UNL     1       1.238   9.725  19.326  0.00  0.00    +0.000 N 
ATOM      2  C   UNL     1       1.787   8.463  19.128  0.00  0.00    +0.000 A 
ATOM      3  O   UNL     1       2.307   8.099  18.081  0.00  0.00    +0.000 OA
ATOM      4  C   UNL     1       1.696   7.479  20.308  0.00  0.00    +0.000 A 
ATOM      5  N   UNL     1       1.211   7.838  21.464  0.00  0.00    +0.000 NA
ATOM      6  C   UNL     1       0.717   9.147  21.594  0.00  0.00    +0.000 A 
ATOM      7  C   UNL     1       0.177   9.584  22.778  0.00  0.00    +0.000 A 
ATOM      8  N   UNL     1      -0.337  10.817  22.970  0.00  0.00    +0.000 NA
ATOM      9  C   UNL     1      -0.335  11.666  21.934  0.00  0.00    +0.000 A 
ATOM     10  N   UNL     1      -0.883  12.918  22.101  0.00  0.00    +0.000 N 
ATOM     11  C   UNL     1      -0.845  13.899  21.038  0.00  0.00    +0.000 C 
ATOM     12  C   UNL     1      -1.319  13.364  23.410  0.00  0.00    +0.000 C 
ATOM     13  N   UNL     1       0.158  11.321  20.732  0.00  0.00    +0.000 NA
ATOM     14  C   UNL     1       0.688  10.087  20.580  0.00  0.00    +0.000 A 
ENDROOT
BRANCH   4  15
ATOM     15  C   UNL     1       2.186   6.073  20.139  0.00  0.00    +0.000 A 
ATOM     16  C   UNL     1       1.346   5.014  20.524  0.00  0.00    +0.000 A 
ATOM     17  C   UNL     1       1.777   3.693  20.405  0.00  0.00    +0.000 A 
ATOM     18  C   UNL     1       3.041   3.425  19.891  0.00  0.00    +0.000 A 
ATOM     19  F   UNL     1       3.463   2.157  19.791  0.00  0.00    +0.000 F 
ATOM     20  C   UNL     1       3.874   4.456  19.474  0.00  0.00    +0.000 A 
ATOM     21  C   UNL     1       3.440   5.781  19.585  0.00  0.00    +0.000 A 
ENDBRANCH   4  15
BRANCH   1  22
ATOM     22  C   UNL     1       1.185  10.662  18.207  0.00  0.00    +0.000 C 
BRANCH  22  23
ATOM     23  C   UNL     1       2.347  11.654  18.096  0.00  0.00    +0.000 C 
BRANCH  23  25
ATOM     24  C   UNL     1       2.901  13.813  18.832  0.00  0.00    +0.000 C 
ATOM     25  O   UNL     1       1.900  13.005  18.218  0.00  0.00    +0.000 OA
ENDBRANCH  23  25
ENDBRANCH  22  23
ENDBRANCH   1  22
TORSDOF 4
ENDMDL
MODEL 4
REMARK VINA RESULT:      -6.5      4.047      5.697
REMARK  Name = 
REMARK  7 active torsions:
REMARK  status: ('A' for Active; 'I' for Inactive)
REMARK    1  A    between atoms: C_1  and  O_2
REMARK    2  A    between atoms: O_2  and  C_3
REMARK    3  A    between atoms: C_3  and  C_4
REMARK    4  A    between atoms: C_4  and  N_5
REMARK    5  A    between atoms: C_8  and  C_9
REMARK    6  A    between atoms: N_21  and  C_22
REMARK    7  A    between atoms: N_21  and  C_23
REMARK                            x       y       z     vdW  Elec       q    Type
REMARK                         _______ _______ _______ _____ _____    ______ ____
ROOT
ATOM      1  N   UNL     1       2.867   5.282  19.035  0.00  0.00    +0.000 N 
ATOM      2  C   UNL     1       2.127   6.130  19.851  0.00  0.00    +0.000 A 
ATOM      3  O   UNL     1       1.463   5.751  20.809  0.00  0.00    +0.000 OA
ATOM      4  C   UNL     1       2.143   7.625  19.489  0.00  0.00    +0.000 A 
ATOM      5  N   UNL     1       2.885   8.088  18.521  0.00  0.00    +0.000 NA
ATOM      6  C   UNL     1       3.638   7.169  17.771  0.00  0.00    +0.000 A 
ATOM      7  C   UNL     1       4.427   7.586  16.727  0.00  0.00    +0.000 A 
ATOM      8  N   UNL     1       5.159   6.761  15.950  0.00  0.00    +0.000 NA
ATOM      9  C   UNL     1       5.102   5.446  16.202  0.00  0.00    +0.000 A 
ATOM     10  N   UNL     1       5.817   4.586  15.401  0.00  0.00    +0.000 N 
ATOM     11  C   UNL     1       5.848   3.164  15.670  0.00  0.00    +0.000 C 
ATOM     12  C   UNL     1       6.731   5.098  14.398  0.00  0.00    +0.000 C 
ATOM     13  N   UNL     1       4.345   4.944  17.192  0.00  0.00    +0.000 NA
ATOM     14  C   UNL     1       3.643   5.800  17.969  0.00  0.00    +0.000 A 
ENDROOT
BRANCH   4  15
ATOM     15  C   UNL     1       1.299   8.586  20.269  0.00  0.00    +0.000 A 
ATOM     16  C   UNL     1       0.496   9.503  19.568  0.00  0.00    +0.000 A 
ATOM     17  C   UNL     1      -0.285  10.428  20.260  0.00  0.00    +0.000 A 
ATOM     18  C   UNL     1      -0.276  10.434  21.651  0.00  0.00    +0.000 A 
ATOM     19  F   UNL     1      -1.013  11.333  22.316  0.00  0.00    +0.000 F 
ATOM     20  C   UNL     1       0.485   9.515  22.362  0.00  0.00    +0.000 A 
ATOM     21  C   UNL     1       1.262   8.581  21.670  0.00  0.00    +0.000 A 
ENDBRANCH   4  15
BRANCH   1  22
ATOM     22  C   UNL     1       2.796   3.840  19.253  0.00  0.00    +0.000 C 
BRANCH  22  23
ATOM     23  C   UNL     1       1.700   3.090  18.489  0.00  0.00    +0.000 C 
BRANCH  23  25
ATOM     24  C   UNL     1       3.511   1.607  18.324  0.00  0.00    +0.000 C 
ATOM     25  O   UNL     1       2.216   1.933  17.829  0.00  0.00    +0.000 OA
ENDBRANCH  23  25
ENDBRANCH  22  23
ENDBRANCH   1  22
TORSDOF 4
ENDMDL
MODEL 5
REMARK VINA RESULT:      -6.4      6.269      8.442
REMARK  Name = 
REMARK  7 active torsions:
REMARK  status: ('A' for Active; 'I' for Inactive)
REMARK    1  A    between atoms: C_1  and  O_2
REMARK    2  A    between atoms: O_2  and  C_3
REMARK    3  A    between atoms: C_3  and  C_4
REMARK    4  A    between atoms: C_4  and  N_5
REMARK    5  A    between atoms: C_8  and  C_9
REMARK    6  A    between atoms: N_21  and  C_22
REMARK    7  A    between atoms: N_21  and  C_23
REMARK                            x       y       z     vdW  Elec       q    Type
REMARK                         _______ _______ _______ _____ _____    ______ ____
ROOT
ATOM      1  N   UNL     1       1.514   9.724  18.799  0.00  0.00    +0.000 N 
ATOM      2  C   UNL     1       2.162   8.556  18.413  0.00  0.00    +0.000 A 
ATOM      3  O   UNL     1       2.757   8.422  17.351  0.00  0.00    +0.000 OA
ATOM      4  C   UNL     1       2.086   7.370  19.390  0.00  0.00    +0.000 A 
ATOM      5  N   UNL     1       1.521   7.481  20.561  0.00  0.00    +0.000 NA
ATOM      6  C   UNL     1       0.928   8.710  20.892  0.00  0.00    +0.000 A 
ATOM      7  C   UNL     1       0.301   8.890  22.101  0.00  0.00    +0.000 A 
ATOM      8  N   UNL     1      -0.309  10.033  22.478  0.00  0.00    +0.000 NA
ATOM      9  C   UNL     1      -0.319  11.055  21.613  0.00  0.00    +0.000 A 
ATOM     10  N   UNL     1      -0.962  12.219  21.967  0.00  0.00    +0.000 N 
ATOM     11  C   UNL     1      -0.944  13.378  21.101  0.00  0.00    +0.000 C 
ATOM     12  C   UNL     1      -1.492  12.391  23.306  0.00  0.00    +0.000 C 
ATOM     13  N   UNL     1       0.255  10.967  20.401  0.00  0.00    +0.000 NA
ATOM     14  C   UNL     1       0.880   9.816  20.063  0.00  0.00    +0.000 A 
ENDROOT
BRANCH   4  15
ATOM     15  C   UNL     1       2.683   6.051  19.003  0.00  0.00    +0.000 A 
ATOM     16  C   UNL     1       1.980   5.228  18.107  0.00  0.00    +0.000 A 
ATOM     17  C   UNL     1       2.493   3.984  17.742  0.00  0.00    +0.000 A 
ATOM     18  C   UNL     1       3.713   3.562  18.261  0.00  0.00    +0.000 A 
ATOM     19  F   UNL     1       4.199   2.361  17.924  0.00  0.00    +0.000 F 
ATOM     20  C   UNL     1       4.439   4.376  19.122  0.00  0.00    +0.000 A 
ATOM     21  C   UNL     1       3.930   5.627  19.482  0.00  0.00    +0.000 A 
ENDBRANCH   4  15
BRANCH   1  22
ATOM     22  C   UNL     1       1.448  10.844  17.865  0.00  0.00    +0.000 C 
BRANCH  22  23
ATOM     23  C   UNL     1       2.569  11.884  17.969  0.00  0.00    +0.000 C 
BRANCH  23  25
ATOM     24  C   UNL     1       2.505  13.623  19.543  0.00  0.00    +0.000 C 
ATOM     25  O   UNL     1       2.056  13.184  18.265  0.00  0.00    +0.000 OA
ENDBRANCH  23  25
ENDBRANCH  22  23
ENDBRANCH   1  22
TORSDOF 4
ENDMDL
MODEL 6
REMARK VINA RESULT:      -6.4      4.068      5.885
REMARK  Name = 
REMARK  7 active torsions:
REMARK  status: ('A' for Active; 'I' for Inactive)
REMARK    1  A    between atoms: C_1  and  O_2
REMARK    2  A    between atoms: O_2  and  C_3
REMARK    3  A    between atoms: C_3  and  C_4
REMARK    4  A    between atoms: C_4  and  N_5
REMARK    5  A    between atoms: C_8  and  C_9
REMARK    6  A    between atoms: N_21  and  C_22
REMARK    7  A    between atoms: N_21  and  C_23
REMARK                            x       y       z     vdW  Elec       q    Type
REMARK                         _______ _______ _______ _____ _____    ______ ____
ROOT
ATOM      1  N   UNL     1       2.882   5.354  19.095  0.00  0.00    +0.000 N 
ATOM      2  C   UNL     1       2.134   6.219  19.885  0.00  0.00    +0.000 A 
ATOM      3  O   UNL     1       1.490   5.868  20.866  0.00  0.00    +0.000 OA
ATOM      4  C   UNL     1       2.112   7.697  19.458  0.00  0.00    +0.000 A 
ATOM      5  N   UNL     1       2.831   8.134  18.461  0.00  0.00    +0.000 NA
ATOM      6  C   UNL     1       3.596   7.200  17.742  0.00  0.00    +0.000 A 
ATOM      7  C   UNL     1       4.362   7.589  16.671  0.00  0.00    +0.000 A 
ATOM      8  N   UNL     1       5.102   6.748  15.920  0.00  0.00    +0.000 NA
ATOM      9  C   UNL     1       5.078   5.444  16.229  0.00  0.00    +0.000 A 
ATOM     10  N   UNL     1       5.802   4.565  15.456  0.00  0.00    +0.000 N 
ATOM     11  C   UNL     1       5.868   3.157  15.785  0.00  0.00    +0.000 C 
ATOM     12  C   UNL     1       6.692   5.053  14.420  0.00  0.00    +0.000 C 
ATOM     13  N   UNL     1       4.345   4.968  17.250  0.00  0.00    +0.000 NA
ATOM     14  C   UNL     1       3.634   5.842  17.998  0.00  0.00    +0.000 A 
ENDROOT
BRANCH   4  15
ATOM     15  C   UNL     1       1.256   8.673  20.208  0.00  0.00    +0.000 A 
ATOM     16  C   UNL     1       1.272   8.644  21.613  0.00  0.00    +0.000 A 
ATOM     17  C   UNL     1       0.470   9.520  22.344  0.00  0.00    +0.000 A 
ATOM     18  C   UNL     1      -0.339  10.434  21.677  0.00  0.00    +0.000 A 
ATOM     19  F   UNL     1      -1.122  11.265  22.378  0.00  0.00    +0.000 F 
ATOM     20  C   UNL     1      -0.344  10.500  20.289  0.00  0.00    +0.000 A 
ATOM     21  C   UNL     1       0.465   9.628  19.554  0.00  0.00    +0.000 A 
ENDBRANCH   4  15
BRANCH   1  22
ATOM     22  C   UNL     1       2.846   3.922  19.377  0.00  0.00    +0.000 C 
BRANCH  22  23
ATOM     23  C   UNL     1       1.622   3.158  18.861  0.00  0.00    +0.000 C 
BRANCH  23  25
ATOM     24  C   UNL     1       1.569   2.558  21.129  0.00  0.00    +0.000 C 
ATOM     25  O   UNL     1       0.805   2.686  19.933  0.00  0.00    +0.000 OA
ENDBRANCH  23  25
ENDBRANCH  22  23
ENDBRANCH   1  22
TORSDOF 4
ENDMDL
MODEL 7
REMARK VINA RESULT:      -6.4      6.797      9.247
REMARK  Name = 
REMARK  7 active torsions:
REMARK  status: ('A' for Active; 'I' for Inactive)
REMARK    1  A    between atoms: C_1  and  O_2
REMARK    2  A    between atoms: O_2  and  C_3
REMARK    3  A    between atoms: C_3  and  C_4
REMARK    4  A    between atoms: C_4  and  N_5
REMARK    5  A    between atoms: C_8  and  C_9
REMARK    6  A    between atoms: N_21  and  C_22
REMARK    7  A    between atoms: N_21  and  C_23
REMARK                            x       y       z     vdW  Elec       q    Type
REMARK                         _______ _______ _______ _____ _____    ______ ____
ROOT
ATOM      1  N   UNL     1       0.727   9.645  19.274  0.00  0.00    +0.000 N 
ATOM      2  C   UNL     1       1.420   8.463  19.037  0.00  0.00    +0.000 A 
ATOM      3  O   UNL     1       1.802   8.102  17.931  0.00  0.00    +0.000 OA
ATOM      4  C   UNL     1       1.684   7.563  20.257  0.00  0.00    +0.000 A 
ATOM      5  N   UNL     1       1.356   7.930  21.465  0.00  0.00    +0.000 NA
ATOM      6  C   UNL     1       0.698   9.161  21.622  0.00  0.00    +0.000 A 
ATOM      7  C   UNL     1       0.309   9.601  22.864  0.00  0.00    +0.000 A 
ATOM      8  N   UNL     1      -0.346  10.759  23.090  0.00  0.00    +0.000 NA
ATOM      9  C   UNL     1      -0.651  11.524  22.033  0.00  0.00    +0.000 A 
ATOM     10  N   UNL     1      -1.346  12.694  22.240  0.00  0.00    +0.000 N 
ATOM     11  C   UNL     1      -1.641  13.593  21.145  0.00  0.00    +0.000 C 
ATOM     12  C   UNL     1      -1.614  13.166  23.585  0.00  0.00    +0.000 C 
ATOM     13  N   UNL     1      -0.326  11.168  20.779  0.00  0.00    +0.000 NA
ATOM     14  C   UNL     1       0.353  10.013  20.589  0.00  0.00    +0.000 A 
ENDROOT
BRANCH   4  15
ATOM     15  C   UNL     1       2.346   6.232  20.066  0.00  0.00    +0.000 A 
ATOM     16  C   UNL     1       1.684   5.077  20.518  0.00  0.00    +0.000 A 
ATOM     17  C   UNL     1       2.280   3.824  20.380  0.00  0.00    +0.000 A 
ATOM     18  C   UNL     1       3.531   3.718  19.780  0.00  0.00    +0.000 A 
ATOM     19  F   UNL     1       4.111   2.516  19.662  0.00  0.00    +0.000 F 
ATOM     20  C   UNL     1       4.186   4.843  19.297  0.00  0.00    +0.000 A 
ATOM     21  C   UNL     1       3.587   6.100  19.428  0.00  0.00    +0.000 A 
ENDBRANCH   4  15
BRANCH   1  22
ATOM     22  C   UNL     1       0.340  10.483  18.142  0.00  0.00    +0.000 C 
BRANCH  22  23
ATOM     23  C   UNL     1      -1.104  10.337  17.650  0.00  0.00    +0.000 C 
BRANCH  23  25
ATOM     24  C   UNL     1      -3.057  11.508  18.215  0.00  0.00    +0.000 C 
ATOM     25  O   UNL     1      -1.774  11.597  17.603  0.00  0.00    +0.000 OA
ENDBRANCH  23  25
ENDBRANCH  22  23
ENDBRANCH   1  22
TORSDOF 4
ENDMDL
MODEL 8
REMARK VINA RESULT:      -6.3      3.756      7.283
REMARK  Name = 
REMARK  7 active torsions:
REMARK  status: ('A' for Active; 'I' for Inactive)
REMARK    1  A    between atoms: C_1  and  O_2
REMARK    2  A    between atoms: O_2  and  C_3
REMARK    3  A    between atoms: C_3  and  C_4
REMARK    4  A    between atoms: C_4  and  N_5
REMARK    5  A    between atoms: C_8  and  C_9
REMARK    6  A    between atoms: N_21  and  C_22
REMARK    7  A    between atoms: N_21  and  C_23
REMARK                            x       y       z     vdW  Elec       q    Type
REMARK                         _______ _______ _______ _____ _____    ______ ____
ROOT
ATOM      1  N   UNL     1       4.224   5.956  17.350  0.00  0.00    +0.000 N 
ATOM      2  C   UNL     1       4.958   5.898  16.171  0.00  0.00    +0.000 A 
ATOM      3  O   UNL     1       5.365   6.884  15.569  0.00  0.00    +0.000 OA
ATOM      4  C   UNL     1       5.236   4.497  15.600  0.00  0.00    +0.000 A 
ATOM      5  N   UNL     1       4.882   3.415  16.235  0.00  0.00    +0.000 NA
ATOM      6  C   UNL     1       4.182   3.560  17.445  0.00  0.00    +0.000 A 
ATOM      7  C   UNL     1       3.763   2.463  18.156  0.00  0.00    +0.000 A 
ATOM      8  N   UNL     1       3.069   2.524  19.311  0.00  0.00    +0.000 NA
ATOM      9  C   UNL     1       2.752   3.735  19.789  0.00  0.00    +0.000 A 
ATOM     10  N   UNL     1       2.016   3.819  20.950  0.00  0.00    +0.000 N 
ATOM     11  C   UNL     1       1.706   5.100  21.548  0.00  0.00    +0.000 C 
ATOM     12  C   UNL     1       1.717   2.628  21.721  0.00  0.00    +0.000 C 
ATOM     13  N   UNL     1       3.104   4.866  19.153  0.00  0.00    +0.000 NA
ATOM     14  C   UNL     1       3.822   4.769  18.011  0.00  0.00    +0.000 A 
ENDROOT
BRANCH   4  15
ATOM     15  C   UNL     1       5.944   4.359  14.286  0.00  0.00    +0.000 A 
ATOM     16  C   UNL     1       5.356   3.569  13.283  0.00  0.00    +0.000 A 
ATOM     17  C   UNL     1       5.997   3.398  12.056  0.00  0.00    +0.000 A 
ATOM     18  C   UNL     1       7.217   4.024  11.822  0.00  0.00    +0.000 A 
ATOM     19  F   UNL     1       7.841   3.847  10.650  0.00  0.00    +0.000 F 
ATOM     20  C   UNL     1       7.798   4.835  12.789  0.00  0.00    +0.000 A 
ATOM     21  C   UNL     1       7.153   5.014  14.017  0.00  0.00    +0.000 A 
ENDBRANCH   4  15
BRANCH   1  22
ATOM     22  C   UNL     1       3.825   7.257  17.878  0.00  0.00    +0.000 C 
BRANCH  22  23
ATOM     23  C   UNL     1       2.367   7.669  17.642  0.00  0.00    +0.000 C 
BRANCH  23  25
ATOM     24  C   UNL     1       1.288   9.686  18.165  0.00  0.00    +0.000 C 
ATOM     25  O   UNL     1       2.256   9.058  17.330  0.00  0.00    +0.000 OA
ENDBRANCH  23  25
ENDBRANCH  22  23
ENDBRANCH   1  22
TORSDOF 4
ENDMDL
MODEL 9
REMARK VINA RESULT:      -6.3      6.120      8.172
REMARK  Name = 
REMARK  7 active torsions:
REMARK  status: ('A' for Active; 'I' for Inactive)
REMARK    1  A    between atoms: C_1  and  O_2
REMARK    2  A    between atoms: O_2  and  C_3
REMARK    3  A    between atoms: C_3  and  C_4
REMARK    4  A    between atoms: C_4  and  N_5
REMARK    5  A    between atoms: C_8  and  C_9
REMARK    6  A    between atoms: N_21  and  C_22
REMARK    7  A    between atoms: N_21  and  C_23
REMARK                            x       y       z     vdW  Elec       q    Type
REMARK                         _______ _______ _______ _____ _____    ______ ____
ROOT
ATOM      1  N   UNL     1       1.391   8.697  20.849  0.00  0.00    +0.000 N 
ATOM      2  C   UNL     1       1.731   7.412  20.442  0.00  0.00    +0.000 A 
ATOM      3  O   UNL     1       1.657   6.423  21.162  0.00  0.00    +0.000 OA
ATOM      4  C   UNL     1       2.252   7.259  19.002  0.00  0.00    +0.000 A 
ATOM      5  N   UNL     1       2.288   8.267  18.176  0.00  0.00    +0.000 NA
ATOM      6  C   UNL     1       1.884   9.526  18.654  0.00  0.00    +0.000 A 
ATOM      7  C   UNL     1       1.914  10.633  17.842  0.00  0.00    +0.000 A 
ATOM      8  N   UNL     1       1.564  11.875  18.237  0.00  0.00    +0.000 NA
ATOM      9  C   UNL     1       1.176  12.044  19.508  0.00  0.00    +0.000 A 
ATOM     10  N   UNL     1       0.845  13.308  19.938  0.00  0.00    +0.000 N 
ATOM     11  C   UNL     1       0.353  13.537  21.280  0.00  0.00    +0.000 C 
ATOM     12  C   UNL     1       0.772  14.412  19.001  0.00  0.00    +0.000 C 
ATOM     13  N   UNL     1       1.131  11.022  20.380  0.00  0.00    +0.000 NA
ATOM     14  C   UNL     1       1.465   9.785  19.945  0.00  0.00    +0.000 A 
ENDROOT
BRANCH   4  15
ATOM     15  C   UNL     1       2.721   5.920  18.522  0.00  0.00    +0.000 A 
ATOM     16  C   UNL     1       1.778   5.025  17.987  0.00  0.00    +0.000 A 
ATOM     17  C   UNL     1       2.174   3.761  17.552  0.00  0.00    +0.000 A 
ATOM     18  C   UNL     1       3.512   3.390  17.638  0.00  0.00    +0.000 A 
ATOM     19  F   UNL     1       3.891   2.170  17.236  0.00  0.00    +0.000 F 
ATOM     20  C   UNL     1       4.464   4.272  18.133  0.00  0.00    +0.000 A 
ATOM     21  C   UNL     1       4.071   5.543  18.562  0.00  0.00    +0.000 A 
ENDBRANCH   4  15
BRANCH   1  22
ATOM     22  C   UNL     1       1.004   8.925  22.238  0.00  0.00    +0.000 C 
BRANCH  22  23
ATOM     23  C   UNL     1      -0.464   9.289  22.485  0.00  0.00    +0.000 C 
BRANCH  23  25
ATOM     24  C   UNL     1      -1.638  11.212  23.141  0.00  0.00    +0.000 C 
ATOM     25  O   UNL     1      -0.595  10.304  23.481  0.00  0.00    +0.000 OA
ENDBRANCH  23  25
ENDBRANCH  22  23
ENDBRANCH   1  22
TORSDOF 4
ENDMDL
