MODEL 1
REMARK VINA RESULT:      -8.6      0.000      0.000
REMARK  Name = 
REMARK  5 active torsions:
REMARK  status: ('A' for Active; 'I' for Inactive)
REMARK    1  A    between atoms: C_2  and  C_3
REMARK    2  A    between atoms: N_5  and  C_6
REMARK    3  A    between atoms: N_14  and  C_15
REMARK    4  A    between atoms: C_19  and  C_20
REMARK    5  A    between atoms: C_20  and  C_21
REMARK                            x       y       z     vdW  Elec       q    Type
REMARK                         _______ _______ _______ _____ _____    ______ ____
ROOT
ATOM      1  C   UNL     1       4.284   3.718  17.085  0.00  0.00    +0.000 A 
ATOM      2  C   UNL     1       3.823   2.424  17.306  0.00  0.00    +0.000 A 
ATOM      3  C   UNL     1       2.959   2.151  18.370  0.00  0.00    +0.000 A 
ATOM      4  C   UNL     1       2.509   3.142  19.223  0.00  0.00    +0.000 A 
ATOM      5  N   UNL     1       1.639   2.802  20.171  0.00  0.00    +0.000 NA
ATOM      6  C   UNL     1       1.164   3.791  20.932  0.00  0.00    +0.000 A 
ATOM      7  N   UNL     1       1.487   5.080  20.834  0.00  0.00    +0.000 NA
ATOM      8  C   UNL     1       2.388   5.409  19.888  0.00  0.00    +0.000 A 
ATOM      9  N   UNL     1       2.760   6.770  19.774  0.00  0.00    +0.000 N 
ATOM     10  C   UNL     1       2.974   4.450  19.032  0.00  0.00    +0.000 A 
ATOM     11  C   UNL     1       3.902   4.722  17.982  0.00  0.00    +0.000 A 
ATOM     12  H   UNL     1       3.697   6.896  20.137  0.00  0.00    +0.000 HD
ENDROOT
BRANCH   9  13
ATOM     13  C   UNL     1       1.919   7.886  19.995  0.00  0.00    +0.000 A 
ATOM     14  C   UNL     1       1.564   8.716  18.925  0.00  0.00    +0.000 A 
ATOM     15  C   UNL     1       0.612   9.727  19.087  0.00  0.00    +0.000 A 
ATOM     16  C   UNL     1      -0.022   9.902  20.315  0.00  0.00    +0.000 A 
ATOM     17  C   UNL     1       0.316   9.093  21.404  0.00  0.00    +0.000 A 
ATOM     18  C   UNL     1       1.298   8.102  21.236  0.00  0.00    +0.000 A 
BRANCH  17  19
ATOM     19  C   UNL     1      -0.417   9.232  22.716  0.00  0.00    +0.000 C 
ATOM     20  C   UNL     1      -0.897  10.660  22.938  0.00  0.00    +0.000 C 
ENDBRANCH  17  19
ENDBRANCH   9  13
BRANCH   1  23
ATOM     21  C   UNL     1       6.446   4.345  16.037  0.00  0.00    +0.000 C 
ATOM     22  O   UNL     1       7.155   4.330  17.036  0.00  0.00    +0.000 OA
ATOM     23  N   UNL     1       5.092   4.063  15.976  0.00  0.00    +0.000 N 
ATOM     24  H   UNL     1       4.675   3.955  15.062  0.00  0.00    +0.000 HD
BRANCH  21  26
ATOM     25  C   UNL     1       6.441   4.170  13.592  0.00  0.00    +0.000 C 
ATOM     26  C   UNL     1       7.037   4.636  14.698  0.00  0.00    +0.000 C 
ENDBRANCH  21  26
ENDBRANCH   1  23
TORSDOF 4
ENDMDL
MODEL 2
REMARK VINA RESULT:      -8.1      0.679      1.746
REMARK  Name = 
REMARK  5 active torsions:
REMARK  status: ('A' for Active; 'I' for Inactive)
REMARK    1  A    between atoms: C_2  and  C_3
REMARK    2  A    between atoms: N_5  and  C_6
REMARK    3  A    between atoms: N_14  and  C_15
REMARK    4  A    between atoms: C_19  and  C_20
REMARK    5  A    between atoms: C_20  and  C_21
REMARK                            x       y       z     vdW  Elec       q    Type
REMARK                         _______ _______ _______ _____ _____    ______ ____
ROOT
ATOM      1  C   UNL     1       4.313   3.665  17.157  0.00  0.00    +0.000 A 
ATOM      2  C   UNL     1       3.953   2.346  17.416  0.00  0.00    +0.000 A 
ATOM      3  C   UNL     1       3.179   2.028  18.535  0.00  0.00    +0.000 A 
ATOM      4  C   UNL     1       2.718   2.997  19.408  0.00  0.00    +0.000 A 
ATOM      5  N   UNL     1       1.933   2.610  20.411  0.00  0.00    +0.000 NA
ATOM      6  C   UNL     1       1.442   3.574  21.194  0.00  0.00    +0.000 A 
ATOM      7  N   UNL     1       1.671   4.880  21.066  0.00  0.00    +0.000 NA
ATOM      8  C   UNL     1       2.486   5.257  20.063  0.00  0.00    +0.000 A 
ATOM      9  N   UNL     1       2.759   6.639  19.916  0.00  0.00    +0.000 N 
ATOM     10  C   UNL     1       3.080   4.330  19.178  0.00  0.00    +0.000 A 
ATOM     11  C   UNL     1       3.921   4.651  18.070  0.00  0.00    +0.000 A 
ATOM     12  H   UNL     1       3.706   6.831  20.218  0.00  0.00    +0.000 HD
ENDROOT
BRANCH   9  13
ATOM     13  C   UNL     1       1.860   7.699  20.182  0.00  0.00    +0.000 A 
ATOM     14  C   UNL     1       1.579   8.062  21.504  0.00  0.00    +0.000 A 
ATOM     15  C   UNL     1       0.821   9.201  21.789  0.00  0.00    +0.000 A 
ATOM     16  C   UNL     1       0.359  10.013  20.755  0.00  0.00    +0.000 A 
ATOM     17  C   UNL     1       0.618   9.672  19.424  0.00  0.00    +0.000 A 
ATOM     18  C   UNL     1       1.353   8.506  19.150  0.00  0.00    +0.000 A 
BRANCH  17  19
ATOM     19  C   UNL     1       0.181  10.583  18.303  0.00  0.00    +0.000 C 
ATOM     20  C   UNL     1      -1.219  10.235  17.814  0.00  0.00    +0.000 C 
ENDBRANCH  17  19
ENDBRANCH   9  13
BRANCH   1  23
ATOM     21  C   UNL     1       6.379   4.335  15.954  0.00  0.00    +0.000 C 
ATOM     22  O   UNL     1       7.168   4.288  16.889  0.00  0.00    +0.000 OA
ATOM     23  N   UNL     1       5.025   4.050  15.997  0.00  0.00    +0.000 N 
ATOM     24  H   UNL     1       4.532   3.972  15.118  0.00  0.00    +0.000 HD
BRANCH  21  26
ATOM     25  C   UNL     1       6.358   4.017  13.523  0.00  0.00    +0.000 C 
ATOM     26  C   UNL     1       6.855   4.674  14.581  0.00  0.00    +0.000 C 
ENDBRANCH  21  26
ENDBRANCH   1  23
TORSDOF 4
ENDMDL
MODEL 3
REMARK VINA RESULT:      -7.7      2.986      5.219
REMARK  Name = 
REMARK  5 active torsions:
REMARK  status: ('A' for Active; 'I' for Inactive)
REMARK    1  A    between atoms: C_2  and  C_3
REMARK    2  A    between atoms: N_5  and  C_6
REMARK    3  A    between atoms: N_14  and  C_15
REMARK    4  A    between atoms: C_19  and  C_20
REMARK    5  A    between atoms: C_20  and  C_21
REMARK                            x       y       z     vdW  Elec       q    Type
REMARK                         _______ _______ _______ _____ _____    ______ ____
ROOT
ATOM      1  C   UNL     1       5.318   4.313  13.496  0.00  0.00    +0.000 A 
ATOM      2  C   UNL     1       6.659   3.948  13.446  0.00  0.00    +0.000 A 
ATOM      3  C   UNL     1       7.488   4.136  14.555  0.00  0.00    +0.000 A 
ATOM      4  C   UNL     1       7.015   4.661  15.744  0.00  0.00    +0.000 A 
ATOM      5  N   UNL     1       7.861   4.746  16.769  0.00  0.00    +0.000 NA
ATOM      6  C   UNL     1       7.359   5.185  17.925  0.00  0.00    +0.000 A 
ATOM      7  N   UNL     1       6.097   5.551  18.143  0.00  0.00    +0.000 NA
ATOM      8  C   UNL     1       5.257   5.485  17.093  0.00  0.00    +0.000 A 
ATOM      9  N   UNL     1       3.913   5.884  17.295  0.00  0.00    +0.000 N 
ATOM     10  C   UNL     1       5.672   5.052  15.814  0.00  0.00    +0.000 A 
ATOM     11  C   UNL     1       4.837   4.916  14.665  0.00  0.00    +0.000 A 
ATOM     12  H   UNL     1       3.755   6.779  16.848  0.00  0.00    +0.000 HD
ENDROOT
BRANCH   9  13
ATOM     13  C   UNL     1       3.160   5.708  18.479  0.00  0.00    +0.000 A 
ATOM     14  C   UNL     1       2.756   6.823  19.223  0.00  0.00    +0.000 A 
ATOM     15  C   UNL     1       1.881   6.685  20.305  0.00  0.00    +0.000 A 
ATOM     16  C   UNL     1       1.374   5.432  20.640  0.00  0.00    +0.000 A 
ATOM     17  C   UNL     1       1.765   4.298  19.921  0.00  0.00    +0.000 A 
ATOM     18  C   UNL     1       2.669   4.447  18.856  0.00  0.00    +0.000 A 
BRANCH  17  19
ATOM     19  C   UNL     1       1.165   2.950  20.235  0.00  0.00    +0.000 C 
ATOM     20  C   UNL     1       1.520   2.495  21.644  0.00  0.00    +0.000 C 
ENDBRANCH  17  19
ENDBRANCH   9  13
BRANCH   1  23
ATOM     21  C   UNL     1       4.525   3.030  11.524  0.00  0.00    +0.000 C 
ATOM     22  O   UNL     1       5.390   2.163  11.500  0.00  0.00    +0.000 OA
ATOM     23  N   UNL     1       4.418   4.069  12.433  0.00  0.00    +0.000 N 
ATOM     24  H   UNL     1       3.564   4.609  12.429  0.00  0.00    +0.000 HD
BRANCH  21  26
ATOM     25  C   UNL     1       3.099   4.113   9.850  0.00  0.00    +0.000 C 
ATOM     26  C   UNL     1       3.405   3.005  10.539  0.00  0.00    +0.000 C 
ENDBRANCH  21  26
ENDBRANCH   1  23
TORSDOF 4
ENDMDL
MODEL 4
REMARK VINA RESULT:      -7.5      2.334      7.691
REMARK  Name = 
REMARK  5 active torsions:
REMARK  status: ('A' for Active; 'I' for Inactive)
REMARK    1  A    between atoms: C_2  and  C_3
REMARK    2  A    between atoms: N_5  and  C_6
REMARK    3  A    between atoms: N_14  and  C_15
REMARK    4  A    between atoms: C_19  and  C_20
REMARK    5  A    between atoms: C_20  and  C_21
REMARK                            x       y       z     vdW  Elec       q    Type
REMARK                         _______ _______ _______ _____ _____    ______ ____
ROOT
ATOM      1  C   UNL     1       2.063   6.350  20.279  0.00  0.00    +0.000 A 
ATOM      2  C   UNL     1       1.748   5.340  21.183  0.00  0.00    +0.000 A 
ATOM      3  C   UNL     1       1.989   4.001  20.864  0.00  0.00    +0.000 A 
ATOM      4  C   UNL     1       2.567   3.626  19.664  0.00  0.00    +0.000 A 
ATOM      5  N   UNL     1       2.817   2.333  19.471  0.00  0.00    +0.000 NA
ATOM      6  C   UNL     1       3.443   2.006  18.338  0.00  0.00    +0.000 A 
ATOM      7  N   UNL     1       3.831   2.853  17.384  0.00  0.00    +0.000 NA
ATOM      8  C   UNL     1       3.549   4.155  17.580  0.00  0.00    +0.000 A 
ATOM      9  N   UNL     1       3.936   5.074  16.574  0.00  0.00    +0.000 N 
ATOM     10  C   UNL     1       2.877   4.623  18.731  0.00  0.00    +0.000 A 
ATOM     11  C   UNL     1       2.578   5.986  19.030  0.00  0.00    +0.000 A 
ATOM     12  H   UNL     1       3.116   5.389  16.069  0.00  0.00    +0.000 HD
ENDROOT
BRANCH   9  13
ATOM     13  C   UNL     1       5.093   4.985  15.764  0.00  0.00    +0.000 A 
ATOM     14  C   UNL     1       6.345   5.321  16.293  0.00  0.00    +0.000 A 
ATOM     15  C   UNL     1       7.515   5.091  15.566  0.00  0.00    +0.000 A 
ATOM     16  C   UNL     1       7.455   4.494  14.309  0.00  0.00    +0.000 A 
ATOM     17  C   UNL     1       6.219   4.154  13.750  0.00  0.00    +0.000 A 
ATOM     18  C   UNL     1       5.047   4.419  14.479  0.00  0.00    +0.000 A 
BRANCH  17  19
ATOM     19  C   UNL     1       6.150   3.443  12.421  0.00  0.00    +0.000 C 
ATOM     20  C   UNL     1       4.719   3.350  11.911  0.00  0.00    +0.000 C 
ENDBRANCH  17  19
ENDBRANCH   9  13
BRANCH   1  23
ATOM     21  C   UNL     1       0.778   8.301  21.122  0.00  0.00    +0.000 C 
ATOM     22  O   UNL     1      -0.261   7.728  21.428  0.00  0.00    +0.000 OA
ATOM     23  N   UNL     1       1.916   7.724  20.585  0.00  0.00    +0.000 N 
ATOM     24  H   UNL     1       2.752   8.289  20.537  0.00  0.00    +0.000 HD
BRANCH  21  26
ATOM     25  C   UNL     1       0.846  10.627  20.353  0.00  0.00    +0.000 C 
ATOM     26  C   UNL     1       0.935   9.763  21.373  0.00  0.00    +0.000 C 
ENDBRANCH  21  26
ENDBRANCH   1  23
TORSDOF 4
ENDMDL
MODEL 5
REMARK VINA RESULT:      -7.5      1.346      1.630
REMARK  Name = 
REMARK  5 active torsions:
REMARK  status: ('A' for Active; 'I' for Inactive)
REMARK    1  A    between atoms: C_2  and  C_3
REMARK    2  A    between atoms: N_5  and  C_6
REMARK    3  A    between atoms: N_14  and  C_15
REMARK    4  A    between atoms: C_19  and  C_20
REMARK    5  A    between atoms: C_20  and  C_21
REMARK                            x       y       z     vdW  Elec       q    Type
REMARK                         _______ _______ _______ _____ _____    ______ ____
ROOT
ATOM      1  C   UNL     1       4.515   4.654  16.867  0.00  0.00    +0.000 A 
ATOM      2  C   UNL     1       4.334   3.443  17.527  0.00  0.00    +0.000 A 
ATOM      3  C   UNL     1       3.615   3.387  18.724  0.00  0.00    +0.000 A 
ATOM      4  C   UNL     1       3.035   4.511  19.284  0.00  0.00    +0.000 A 
ATOM      5  N   UNL     1       2.314   4.354  20.393  0.00  0.00    +0.000 NA
ATOM      6  C   UNL     1       1.705   5.442  20.870  0.00  0.00    +0.000 A 
ATOM      7  N   UNL     1       1.759   6.665  20.345  0.00  0.00    +0.000 NA
ATOM      8  C   UNL     1       2.512   6.817  19.238  0.00  0.00    +0.000 A 
ATOM      9  N   UNL     1       2.599   8.111  18.669  0.00  0.00    +0.000 N 
ATOM     10  C   UNL     1       3.218   5.745  18.647  0.00  0.00    +0.000 A 
ATOM     11  C   UNL     1       4.002   5.815  17.457  0.00  0.00    +0.000 A 
ATOM     12  H   UNL     1       3.514   8.502  18.856  0.00  0.00    +0.000 HD
ENDROOT
BRANCH   9  13
ATOM     13  C   UNL     1       1.569   9.081  18.644  0.00  0.00    +0.000 A 
ATOM     14  C   UNL     1       0.568   9.013  17.668  0.00  0.00    +0.000 A 
ATOM     15  C   UNL     1      -0.541   9.863  17.719  0.00  0.00    +0.000 A 
ATOM     16  C   UNL     1      -0.680  10.773  18.764  0.00  0.00    +0.000 A 
ATOM     17  C   UNL     1       0.307  10.870  19.749  0.00  0.00    +0.000 A 
ATOM     18  C   UNL     1       1.433  10.032  19.669  0.00  0.00    +0.000 A 
BRANCH  17  19
ATOM     19  C   UNL     1       0.129  11.804  20.921  0.00  0.00    +0.000 C 
ATOM     20  C   UNL     1      -1.057  11.395  21.785  0.00  0.00    +0.000 C 
ENDBRANCH  17  19
ENDBRANCH   9  13
BRANCH   1  23
ATOM     21  C   UNL     1       6.534   4.716  15.422  0.00  0.00    +0.000 C 
ATOM     22  O   UNL     1       7.391   4.580  16.286  0.00  0.00    +0.000 OA
ATOM     23  N   UNL     1       5.163   4.753  15.613  0.00  0.00    +0.000 N 
ATOM     24  H   UNL     1       4.573   4.704  14.794  0.00  0.00    +0.000 HD
BRANCH  21  26
ATOM     25  C   UNL     1       6.440   3.906  13.110  0.00  0.00    +0.000 C 
ATOM     26  C   UNL     1       6.920   4.802  13.984  0.00  0.00    +0.000 C 
ENDBRANCH  21  26
ENDBRANCH   1  23
TORSDOF 4
ENDMDL
MODEL 6
REMARK VINA RESULT:      -7.4      1.020      1.921
REMARK  Name = 
REMARK  5 active torsions:
REMARK  status: ('A' for Active; 'I' for Inactive)
REMARK    1  A    between atoms: C_2  and  C_3
REMARK    2  A    between atoms: N_5  and  C_6
REMARK    3  A    between atoms: N_14  and  C_15
REMARK    4  A    between atoms: C_19  and  C_20
REMARK    5  A    between atoms: C_20  and  C_21
REMARK                            x       y       z     vdW  Elec       q    Type
REMARK                         _______ _______ _______ _____ _____    ______ ____
ROOT
ATOM      1  C   UNL     1       4.647   3.425  17.508  0.00  0.00    +0.000 A 
ATOM      2  C   UNL     1       4.060   2.164  17.502  0.00  0.00    +0.000 A 
ATOM      3  C   UNL     1       2.946   1.896  18.302  0.00  0.00    +0.000 A 
ATOM      4  C   UNL     1       2.369   2.864  19.104  0.00  0.00    +0.000 A 
ATOM      5  N   UNL     1       1.272   2.537  19.784  0.00  0.00    +0.000 NA
ATOM      6  C   UNL     1       0.693   3.511  20.491  0.00  0.00    +0.000 A 
ATOM      7  N   UNL     1       1.116   4.771  20.582  0.00  0.00    +0.000 NA
ATOM      8  C   UNL     1       2.240   5.083  19.910  0.00  0.00    +0.000 A 
ATOM      9  N   UNL     1       2.720   6.413  20.004  0.00  0.00    +0.000 N 
ATOM     10  C   UNL     1       2.952   4.137  19.140  0.00  0.00    +0.000 A 
ATOM     11  C   UNL     1       4.125   4.397  18.369  0.00  0.00    +0.000 A 
ATOM     12  H   UNL     1       3.546   6.434  20.589  0.00  0.00    +0.000 HD
ENDROOT
BRANCH   9  13
ATOM     13  C   UNL     1       1.926   7.579  20.111  0.00  0.00    +0.000 A 
ATOM     14  C   UNL     1       1.290   7.883  21.320  0.00  0.00    +0.000 A 
ATOM     15  C   UNL     1       0.634   9.104  21.497  0.00  0.00    +0.000 A 
ATOM     16  C   UNL     1       0.630  10.053  20.478  0.00  0.00    +0.000 A 
ATOM     17  C   UNL     1       1.251   9.776  19.256  0.00  0.00    +0.000 A 
ATOM     18  C   UNL     1       1.879   8.531  19.079  0.00  0.00    +0.000 A 
BRANCH  17  19
ATOM     19  C   UNL     1       1.311  10.825  18.174  0.00  0.00    +0.000 C 
ATOM     20  C   UNL     1       1.023  12.215  18.727  0.00  0.00    +0.000 C 
ENDBRANCH  17  19
ENDBRANCH   9  13
BRANCH   1  23
ATOM     21  C   UNL     1       5.773   4.903  15.859  0.00  0.00    +0.000 C 
ATOM     22  O   UNL     1       4.918   5.776  15.771  0.00  0.00    +0.000 OA
ATOM     23  N   UNL     1       5.723   3.773  16.657  0.00  0.00    +0.000 N 
ATOM     24  H   UNL     1       6.569   3.227  16.751  0.00  0.00    +0.000 HD
BRANCH  21  26
ATOM     25  C   UNL     1       7.073   4.774  13.786  0.00  0.00    +0.000 C 
ATOM     26  C   UNL     1       7.052   5.022  15.103  0.00  0.00    +0.000 C 
ENDBRANCH  21  26
ENDBRANCH   1  23
TORSDOF 4
ENDMDL
MODEL 7
REMARK VINA RESULT:      -7.3      1.905      2.873
REMARK  Name = 
REMARK  5 active torsions:
REMARK  status: ('A' for Active; 'I' for Inactive)
REMARK    1  A    between atoms: C_2  and  C_3
REMARK    2  A    between atoms: N_5  and  C_6
REMARK    3  A    between atoms: N_14  and  C_15
REMARK    4  A    between atoms: C_19  and  C_20
REMARK    5  A    between atoms: C_20  and  C_21
REMARK                            x       y       z     vdW  Elec       q    Type
REMARK                         _______ _______ _______ _____ _____    ______ ____
ROOT
ATOM      1  C   UNL     1       4.368   5.179  17.177  0.00  0.00    +0.000 A 
ATOM      2  C   UNL     1       4.266   4.037  17.965  0.00  0.00    +0.000 A 
ATOM      3  C   UNL     1       3.565   4.069  19.174  0.00  0.00    +0.000 A 
ATOM      4  C   UNL     1       2.929   5.212  19.623  0.00  0.00    +0.000 A 
ATOM      5  N   UNL     1       2.232   5.134  20.754  0.00  0.00    +0.000 NA
ATOM      6  C   UNL     1       1.567   6.231  21.125  0.00  0.00    +0.000 A 
ATOM      7  N   UNL     1       1.544   7.392  20.472  0.00  0.00    +0.000 NA
ATOM      8  C   UNL     1       2.273   7.467  19.343  0.00  0.00    +0.000 A 
ATOM      9  N   UNL     1       2.278   8.695  18.638  0.00  0.00    +0.000 N 
ATOM     10  C   UNL     1       3.032   6.379  18.855  0.00  0.00    +0.000 A 
ATOM     11  C   UNL     1       3.796   6.365  17.650  0.00  0.00    +0.000 A 
ATOM     12  H   UNL     1       3.172   9.154  18.765  0.00  0.00    +0.000 HD
ENDROOT
BRANCH   9  13
ATOM     13  C   UNL     1       1.194   9.598  18.530  0.00  0.00    +0.000 A 
ATOM     14  C   UNL     1       1.358  10.936  18.907  0.00  0.00    +0.000 A 
ATOM     15  C   UNL     1       0.356  11.878  18.662  0.00  0.00    +0.000 A 
ATOM     16  C   UNL     1      -0.815  11.503  18.007  0.00  0.00    +0.000 A 
ATOM     17  C   UNL     1      -1.011  10.172  17.625  0.00  0.00    +0.000 A 
ATOM     18  C   UNL     1      -0.009   9.228  17.906  0.00  0.00    +0.000 A 
BRANCH  17  19
ATOM     19  C   UNL     1      -2.245   9.773  16.853  0.00  0.00    +0.000 C 
ATOM     20  C   UNL     1      -2.648  10.846  15.850  0.00  0.00    +0.000 C 
ENDBRANCH  17  19
ENDBRANCH   9  13
BRANCH   1  23
ATOM     21  C   UNL     1       6.344   4.971  15.687  0.00  0.00    +0.000 C 
ATOM     22  O   UNL     1       7.199   4.744  16.535  0.00  0.00    +0.000 OA
ATOM     23  N   UNL     1       4.993   5.179  15.908  0.00  0.00    +0.000 N 
ATOM     24  H   UNL     1       4.382   5.192  15.102  0.00  0.00    +0.000 HD
BRANCH  21  26
ATOM     25  C   UNL     1       6.329   3.974  13.448  0.00  0.00    +0.000 C 
ATOM     26  C   UNL     1       6.704   4.989  14.240  0.00  0.00    +0.000 C 
ENDBRANCH  21  26
ENDBRANCH   1  23
TORSDOF 4
ENDMDL
MODEL 8
REMARK VINA RESULT:      -7.3      2.028      2.745
REMARK  Name = 
REMARK  5 active torsions:
REMARK  status: ('A' for Active; 'I' for Inactive)
REMARK    1  A    between atoms: C_2  and  C_3
REMARK    2  A    between atoms: N_5  and  C_6
REMARK    3  A    between atoms: N_14  and  C_15
REMARK    4  A    between atoms: C_19  and  C_20
REMARK    5  A    between atoms: C_20  and  C_21
REMARK                            x       y       z     vdW  Elec       q    Type
REMARK                         _______ _______ _______ _____ _____    ______ ____
ROOT
ATOM      1  C   UNL     1       5.341   5.248  18.695  0.00  0.00    +0.000 A 
ATOM      2  C   UNL     1       5.086   3.950  18.264  0.00  0.00    +0.000 A 
ATOM      3  C   UNL     1       3.877   3.323  18.576  0.00  0.00    +0.000 A 
ATOM      4  C   UNL     1       2.883   3.963  19.294  0.00  0.00    +0.000 A 
ATOM      5  N   UNL     1       1.738   3.312  19.491  0.00  0.00    +0.000 NA
ATOM      6  C   UNL     1       0.769   3.980  20.120  0.00  0.00    +0.000 A 
ATOM      7  N   UNL     1       0.846   5.231  20.574  0.00  0.00    +0.000 NA
ATOM      8  C   UNL     1       2.017   5.870  20.391  0.00  0.00    +0.000 A 
ATOM      9  N   UNL     1       2.130   7.195  20.878  0.00  0.00    +0.000 N 
ATOM     10  C   UNL     1       3.122   5.264  19.753  0.00  0.00    +0.000 A 
ATOM     11  C   UNL     1       4.379   5.885  19.486  0.00  0.00    +0.000 A 
ATOM     12  H   UNL     1       2.717   7.204  21.703  0.00  0.00    +0.000 HD
ENDROOT
BRANCH   9  13
ATOM     13  C   UNL     1       1.096   8.161  20.916  0.00  0.00    +0.000 A 
ATOM     14  C   UNL     1       0.476   8.474  22.132  0.00  0.00    +0.000 A 
ATOM     15  C   UNL     1      -0.433   9.531  22.221  0.00  0.00    +0.000 A 
ATOM     16  C   UNL     1      -0.713  10.312  21.101  0.00  0.00    +0.000 A 
ATOM     17  C   UNL     1      -0.115  10.019  19.872  0.00  0.00    +0.000 A 
ATOM     18  C   UNL     1       0.772   8.933  19.788  0.00  0.00    +0.000 A 
BRANCH  17  19
ATOM     19  C   UNL     1      -0.360  10.903  18.673  0.00  0.00    +0.000 C 
ATOM     20  C   UNL     1      -1.840  11.220  18.507  0.00  0.00    +0.000 C 
ENDBRANCH  17  19
ENDBRANCH   9  13
BRANCH   1  23
ATOM     21  C   UNL     1       6.609   6.850  17.284  0.00  0.00    +0.000 C 
ATOM     22  O   UNL     1       5.714   7.176  16.513  0.00  0.00    +0.000 OA
ATOM     23  N   UNL     1       6.512   5.957  18.337  0.00  0.00    +0.000 N 
ATOM     24  H   UNL     1       7.285   5.910  18.986  0.00  0.00    +0.000 HD
BRANCH  21  26
ATOM     25  C   UNL     1       8.240   8.580  17.881  0.00  0.00    +0.000 C 
ATOM     26  C   UNL     1       7.960   7.474  17.177  0.00  0.00    +0.000 C 
ENDBRANCH  21  26
ENDBRANCH   1  23
TORSDOF 4
ENDMDL
MODEL 9
REMARK VINA RESULT:      -7.3      2.834      7.796
REMARK  Name = 
REMARK  5 active torsions:
REMARK  status: ('A' for Active; 'I' for Inactive)
REMARK    1  A    between atoms: C_2  and  C_3
REMARK    2  A    between atoms: N_5  and  C_6
REMARK    3  A    between atoms: N_14  and  C_15
REMARK    4  A    between atoms: C_19  and  C_20
REMARK    5  A    between atoms: C_20  and  C_21
REMARK                            x       y       z     vdW  Elec       q    Type
REMARK                         _______ _______ _______ _____ _____    ______ ____
ROOT
ATOM      1  C   UNL     1       1.418   9.079  19.679  0.00  0.00    +0.000 A 
ATOM      2  C   UNL     1       0.873   8.587  20.861  0.00  0.00    +0.000 A 
ATOM      3  C   UNL     1       1.059   7.252  21.228  0.00  0.00    +0.000 A 
ATOM      4  C   UNL     1       1.804   6.377  20.458  0.00  0.00    +0.000 A 
ATOM      5  N   UNL     1       1.982   5.139  20.915  0.00  0.00    +0.000 NA
ATOM      6  C   UNL     1       2.766   4.339  20.189  0.00  0.00    +0.000 A 
ATOM      7  N   UNL     1       3.378   4.663  19.051  0.00  0.00    +0.000 NA
ATOM      8  C   UNL     1       3.171   5.909  18.585  0.00  0.00    +0.000 A 
ATOM      9  N   UNL     1       3.797   6.273  17.368  0.00  0.00    +0.000 N 
ATOM     10  C   UNL     1       2.349   6.843  19.254  0.00  0.00    +0.000 A 
ATOM     11  C   UNL     1       2.111   8.190  18.848  0.00  0.00    +0.000 A 
ATOM     12  H   UNL     1       3.104   6.317  16.631  0.00  0.00    +0.000 HD
ENDROOT
BRANCH   9  13
ATOM     13  C   UNL     1       5.065   5.836  16.920  0.00  0.00    +0.000 A 
ATOM     14  C   UNL     1       6.106   5.653  17.838  0.00  0.00    +0.000 A 
ATOM     15  C   UNL     1       7.315   5.073  17.444  0.00  0.00    +0.000 A 
ATOM     16  C   UNL     1       7.491   4.639  16.132  0.00  0.00    +0.000 A 
ATOM     17  C   UNL     1       6.472   4.815  15.190  0.00  0.00    +0.000 A 
ATOM     18  C   UNL     1       5.273   5.428  15.591  0.00  0.00    +0.000 A 
BRANCH  17  19
ATOM     19  C   UNL     1       6.629   4.284  13.786  0.00  0.00    +0.000 C 
ATOM     20  C   UNL     1       5.314   3.740  13.245  0.00  0.00    +0.000 C 
ENDBRANCH  17  19
ENDBRANCH   9  13
BRANCH   1  23
ATOM     21  C   UNL     1       0.157  11.099  18.977  0.00  0.00    +0.000 C 
ATOM     22  O   UNL     1      -0.973  10.627  18.972  0.00  0.00    +0.000 OA
ATOM     23  N   UNL     1       1.329  10.440  19.303  0.00  0.00    +0.000 N 
ATOM     24  H   UNL     1       2.164  10.997  19.422  0.00  0.00    +0.000 HD
BRANCH  21  26
ATOM     25  C   UNL     1      -0.661  13.299  18.271  0.00  0.00    +0.000 C 
ATOM     26  C   UNL     1       0.373  12.541  18.661  0.00  0.00    +0.000 C 
ENDBRANCH  21  26
ENDBRANCH   1  23
TORSDOF 4
ENDMDL
