MODEL 1
REMARK VINA RESULT:      -7.9      0.000      0.000
REMARK  Name = 
REMARK  17 active torsions:
REMARK  status: ('A' for Active; 'I' for Inactive)
REMARK    1  A    between atoms: C_1  and  C_2
REMARK    2  A    between atoms: C_2  and  N_3
REMARK    3  A    between atoms: N_3  and  C_4
REMARK    4  A    between atoms: N_3  and  S_6
REMARK    5  A    between atoms: C_4  and  C_5
REMARK    6  A    between atoms: S_6  and  C_9
REMARK    7  A    between atoms: C_12  and  N_13
REMARK    8  A    between atoms: C_14  and  C_16
REMARK    9  A    between atoms: C_16  and  N_17
REMARK   10  A    between atoms: C_16  and  C_30
REMARK   11  A    between atoms: C_18  and  C_20
REMARK   12  A    between atoms: C_22  and  O_23
REMARK   13  A    between atoms: O_23  and  C_24
REMARK   14  A    between atoms: C_26  and  O_27
REMARK   15  A    between atoms: O_27  and  C_28
REMARK   16  A    between atoms: C_30  and  C_31
REMARK   17  A    between atoms: C_30  and  C_32
REMARK                            x       y       z     vdW  Elec       q    Type
REMARK                         _______ _______ _______ _____ _____    ______ ____
ROOT
ATOM      1  N   UNL     1       2.549   6.134  19.258  0.00  0.00    +0.000 N 
ATOM      2  C   UNL     1       1.920   5.007  19.772  0.00  0.00    +0.000 C 
ATOM      3  O   UNL     1       0.917   5.018  20.485  0.00  0.00    +0.000 OA
ATOM      4  H   UNL     1       3.380   5.986  18.693  0.00  0.00    +0.000 HD
ENDROOT
BRANCH   1   8
ATOM      5  C   UNL     1       1.227  10.131  19.659  0.00  0.00    +0.000 A 
ATOM      6  C   UNL     1       1.176   9.282  20.761  0.00  0.00    +0.000 A 
ATOM      7  C   UNL     1       1.610   7.961  20.633  0.00  0.00    +0.000 A 
ATOM      8  C   UNL     1       2.092   7.467  19.416  0.00  0.00    +0.000 A 
ATOM      9  C   UNL     1       2.128   8.327  18.311  0.00  0.00    +0.000 A 
ATOM     10  C   UNL     1       1.678   9.653  18.423  0.00  0.00    +0.000 A 
BRANCH   5  11
ATOM     11  S   UNL     1       0.708  11.816  19.860  0.00  0.00    +0.000 S 
ATOM     12  O   UNL     1       0.767  12.447  18.562  0.00  0.00    +0.000 OA
ATOM     13  O   UNL     1       1.421  12.369  20.999  0.00  0.00    +0.000 OA
BRANCH  11  14
ATOM     14  N   UNL     1      -0.950  11.665  20.324  0.00  0.00    +0.000 NA
BRANCH  14  16
ATOM     15  C   UNL     1      -1.380  11.353  22.790  0.00  0.00    +0.000 C 
ATOM     16  C   UNL     1      -1.276  12.324  21.623  0.00  0.00    +0.000 C 
ENDBRANCH  14  16
BRANCH  14  17
ATOM     17  C   UNL     1      -1.915  11.914  19.213  0.00  0.00    +0.000 C 
ATOM     18  C   UNL     1      -2.166  10.695  18.341  0.00  0.00    +0.000 C 
ENDBRANCH  14  17
ENDBRANCH  11  14
ENDBRANCH   5  11
ENDBRANCH   1   8
BRANCH   2  19
ATOM     19  C   UNL     1       2.620   3.662  19.452  0.00  0.00    +0.000 C 
BRANCH  19  20
ATOM     20  N   UNL     1       3.724   3.987  18.547  0.00  0.00    +0.000 N 
ATOM     21  C   UNL     1       3.661   3.720  17.198  0.00  0.00    +0.000 C 
ATOM     22  O   UNL     1       2.708   3.153  16.674  0.00  0.00    +0.000 OA
ATOM     23  H   UNL     1       4.348   4.724  18.854  0.00  0.00    +0.000 HD
BRANCH  21  24
ATOM     24  C   UNL     1       4.799   4.232  16.382  0.00  0.00    +0.000 A 
ATOM     25  C   UNL     1       5.062   3.736  15.097  0.00  0.00    +0.000 A 
ATOM     26  C   UNL     1       6.174   4.182  14.382  0.00  0.00    +0.000 A 
ATOM     27  C   UNL     1       7.007   5.148  14.946  0.00  0.00    +0.000 A 
ATOM     28  C   UNL     1       6.741   5.666  16.219  0.00  0.00    +0.000 A 
ATOM     29  C   UNL     1       5.628   5.216  16.931  0.00  0.00    +0.000 A 
BRANCH  26  30
ATOM     30  O   UNL     1       6.345   3.586  13.162  0.00  0.00    +0.000 OA
ATOM     31  C   UNL     1       5.185   3.428  12.351  0.00  0.00    +0.000 C 
ENDBRANCH  26  30
BRANCH  28  32
ATOM     32  O   UNL     1       7.657   6.585  16.655  0.00  0.00    +0.000 OA
ATOM     33  C   UNL     1       7.175   7.632  17.487  0.00  0.00    +0.000 C 
ENDBRANCH  28  32
ENDBRANCH  21  24
ENDBRANCH  19  20
BRANCH  19  34
ATOM     34  C   UNL     1       3.166   3.039  20.765  0.00  0.00    +0.000 C 
ATOM     35  C   UNL     1       2.069   2.276  21.519  0.00  0.00    +0.000 C 
ATOM     36  C   UNL     1       4.354   2.103  20.526  0.00  0.00    +0.000 C 
ENDBRANCH  19  34
ENDBRANCH   2  19
TORSDOF 11
ENDMDL
MODEL 2
REMARK VINA RESULT:      -7.9      1.141      1.811
REMARK  Name = 
REMARK  17 active torsions:
REMARK  status: ('A' for Active; 'I' for Inactive)
REMARK    1  A    between atoms: C_1  and  C_2
REMARK    2  A    between atoms: C_2  and  N_3
REMARK    3  A    between atoms: N_3  and  C_4
REMARK    4  A    between atoms: N_3  and  S_6
REMARK    5  A    between atoms: C_4  and  C_5
REMARK    6  A    between atoms: S_6  and  C_9
REMARK    7  A    between atoms: C_12  and  N_13
REMARK    8  A    between atoms: C_14  and  C_16
REMARK    9  A    between atoms: C_16  and  N_17
REMARK   10  A    between atoms: C_16  and  C_30
REMARK   11  A    between atoms: C_18  and  C_20
REMARK   12  A    between atoms: C_22  and  O_23
REMARK   13  A    between atoms: O_23  and  C_24
REMARK   14  A    between atoms: C_26  and  O_27
REMARK   15  A    between atoms: O_27  and  C_28
REMARK   16  A    between atoms: C_30  and  C_31
REMARK   17  A    between atoms: C_30  and  C_32
REMARK                            x       y       z     vdW  Elec       q    Type
REMARK                         _______ _______ _______ _____ _____    ______ ____
ROOT
ATOM      1  N   UNL     1       2.732   5.825  19.668  0.00  0.00    +0.000 N 
ATOM      2  C   UNL     1       2.009   4.653  19.494  0.00  0.00    +0.000 C 
ATOM      3  O   UNL     1       0.782   4.565  19.526  0.00  0.00    +0.000 OA
ATOM      4  H   UNL     1       3.745   5.757  19.633  0.00  0.00    +0.000 HD
ENDROOT
BRANCH   1   8
ATOM      5  C   UNL     1       1.010   9.645  20.247  0.00  0.00    +0.000 A 
ATOM      6  C   UNL     1       1.517   9.307  18.995  0.00  0.00    +0.000 A 
ATOM      7  C   UNL     1       2.087   8.048  18.799  0.00  0.00    +0.000 A 
ATOM      8  C   UNL     1       2.167   7.115  19.839  0.00  0.00    +0.000 A 
ATOM      9  C   UNL     1       1.665   7.470  21.098  0.00  0.00    +0.000 A 
ATOM     10  C   UNL     1       1.104   8.740  21.311  0.00  0.00    +0.000 A 
BRANCH   5  11
ATOM     11  S   UNL     1       0.254  11.235  20.457  0.00  0.00    +0.000 S 
ATOM     12  O   UNL     1       1.231  12.106  21.067  0.00  0.00    +0.000 OA
ATOM     13  O   UNL     1      -1.053  11.032  21.060  0.00  0.00    +0.000 OA
BRANCH  11  14
ATOM     14  N   UNL     1      -0.014  11.762  18.832  0.00  0.00    +0.000 NA
BRANCH  14  16
ATOM     15  C   UNL     1      -1.736  10.375  17.620  0.00  0.00    +0.000 C 
ATOM     16  C   UNL     1      -1.435  11.652  18.388  0.00  0.00    +0.000 C 
ENDBRANCH  14  16
BRANCH  14  17
ATOM     17  C   UNL     1       0.674  13.042  18.490  0.00  0.00    +0.000 C 
ATOM     18  C   UNL     1      -0.215  14.267  18.635  0.00  0.00    +0.000 C 
ENDBRANCH  14  17
ENDBRANCH  11  14
ENDBRANCH   5  11
ENDBRANCH   1   8
BRANCH   2  19
ATOM     19  C   UNL     1       2.865   3.373  19.323  0.00  0.00    +0.000 C 
BRANCH  19  20
ATOM     20  N   UNL     1       3.934   3.725  18.385  0.00  0.00    +0.000 N 
ATOM     21  C   UNL     1       3.761   3.643  17.022  0.00  0.00    +0.000 C 
ATOM     22  O   UNL     1       2.731   3.228  16.504  0.00  0.00    +0.000 OA
ATOM     23  H   UNL     1       4.639   4.364  18.736  0.00  0.00    +0.000 HD
BRANCH  21  24
ATOM     24  C   UNL     1       4.886   4.166  16.194  0.00  0.00    +0.000 A 
ATOM     25  C   UNL     1       5.151   3.660  14.914  0.00  0.00    +0.000 A 
ATOM     26  C   UNL     1       6.251   4.117  14.188  0.00  0.00    +0.000 A 
ATOM     27  C   UNL     1       7.069   5.104  14.737  0.00  0.00    +0.000 A 
ATOM     28  C   UNL     1       6.801   5.633  16.004  0.00  0.00    +0.000 A 
ATOM     29  C   UNL     1       5.700   5.172  16.728  0.00  0.00    +0.000 A 
BRANCH  26  30
ATOM     30  O   UNL     1       6.427   3.510  12.974  0.00  0.00    +0.000 OA
ATOM     31  C   UNL     1       5.265   3.317  12.174  0.00  0.00    +0.000 C 
ENDBRANCH  26  30
BRANCH  28  32
ATOM     32  O   UNL     1       7.702   6.573  16.425  0.00  0.00    +0.000 OA
ATOM     33  C   UNL     1       7.417   7.240  17.647  0.00  0.00    +0.000 C 
ENDBRANCH  28  32
ENDBRANCH  21  24
ENDBRANCH  19  20
BRANCH  19  34
ATOM     34  C   UNL     1       3.466   2.966  20.695  0.00  0.00    +0.000 C 
ATOM     35  C   UNL     1       2.376   2.489  21.663  0.00  0.00    +0.000 C 
ATOM     36  C   UNL     1       4.538   1.879  20.573  0.00  0.00    +0.000 C 
ENDBRANCH  19  34
ENDBRANCH   2  19
TORSDOF 11
ENDMDL
MODEL 3
REMARK VINA RESULT:      -7.7      1.140      2.844
REMARK  Name = 
REMARK  17 active torsions:
REMARK  status: ('A' for Active; 'I' for Inactive)
REMARK    1  A    between atoms: C_1  and  C_2
REMARK    2  A    between atoms: C_2  and  N_3
REMARK    3  A    between atoms: N_3  and  C_4
REMARK    4  A    between atoms: N_3  and  S_6
REMARK    5  A    between atoms: C_4  and  C_5
REMARK    6  A    between atoms: S_6  and  C_9
REMARK    7  A    between atoms: C_12  and  N_13
REMARK    8  A    between atoms: C_14  and  C_16
REMARK    9  A    between atoms: C_16  and  N_17
REMARK   10  A    between atoms: C_16  and  C_30
REMARK   11  A    between atoms: C_18  and  C_20
REMARK   12  A    between atoms: C_22  and  O_23
REMARK   13  A    between atoms: O_23  and  C_24
REMARK   14  A    between atoms: C_26  and  O_27
REMARK   15  A    between atoms: O_27  and  C_28
REMARK   16  A    between atoms: C_30  and  C_31
REMARK   17  A    between atoms: C_30  and  C_32
REMARK                            x       y       z     vdW  Elec       q    Type
REMARK                         _______ _______ _______ _____ _____    ______ ____
ROOT
ATOM      1  N   UNL     1       2.608   5.936  19.829  0.00  0.00    +0.000 N 
ATOM      2  C   UNL     1       1.861   4.766  19.814  0.00  0.00    +0.000 C 
ATOM      3  O   UNL     1       0.644   4.699  19.983  0.00  0.00    +0.000 OA
ATOM      4  H   UNL     1       3.610   5.851  19.691  0.00  0.00    +0.000 HD
ENDROOT
BRANCH   1   8
ATOM      5  C   UNL     1       0.981   9.809  20.323  0.00  0.00    +0.000 A 
ATOM      6  C   UNL     1       1.447   9.420  19.070  0.00  0.00    +0.000 A 
ATOM      7  C   UNL     1       1.986   8.142  18.903  0.00  0.00    +0.000 A 
ATOM      8  C   UNL     1       2.074   7.243  19.971  0.00  0.00    +0.000 A 
ATOM      9  C   UNL     1       1.614   7.650  21.230  0.00  0.00    +0.000 A 
ATOM     10  C   UNL     1       1.086   8.939  21.414  0.00  0.00    +0.000 A 
BRANCH   5  11
ATOM     11  S   UNL     1       0.264  11.422  20.499  0.00  0.00    +0.000 S 
ATOM     12  O   UNL     1       1.271  12.288  21.065  0.00  0.00    +0.000 OA
ATOM     13  O   UNL     1      -1.035  11.266  21.131  0.00  0.00    +0.000 OA
BRANCH  11  14
ATOM     14  N   UNL     1      -0.022  11.907  18.864  0.00  0.00    +0.000 NA
BRANCH  14  16
ATOM     15  C   UNL     1      -1.736  10.514  17.645  0.00  0.00    +0.000 C 
ATOM     16  C   UNL     1      -1.446  11.780  18.437  0.00  0.00    +0.000 C 
ENDBRANCH  14  16
BRANCH  14  17
ATOM     17  C   UNL     1       0.657  13.179  18.482  0.00  0.00    +0.000 C 
ATOM     18  C   UNL     1      -0.180  14.419  18.751  0.00  0.00    +0.000 C 
ENDBRANCH  14  17
ENDBRANCH  11  14
ENDBRANCH   5  11
ENDBRANCH   1   8
BRANCH   2  19
ATOM     19  C   UNL     1       2.684   3.465  19.640  0.00  0.00    +0.000 C 
BRANCH  19  20
ATOM     20  N   UNL     1       3.852   3.831  18.837  0.00  0.00    +0.000 N 
ATOM     21  C   UNL     1       3.865   3.694  17.467  0.00  0.00    +0.000 C 
ATOM     22  O   UNL     1       2.929   3.216  16.836  0.00  0.00    +0.000 OA
ATOM     23  H   UNL     1       4.480   4.512  19.250  0.00  0.00    +0.000 HD
BRANCH  21  24
ATOM     24  C   UNL     1       5.068   4.238  16.773  0.00  0.00    +0.000 A 
ATOM     25  C   UNL     1       5.969   5.090  17.426  0.00  0.00    +0.000 A 
ATOM     26  C   UNL     1       7.048   5.640  16.734  0.00  0.00    +0.000 A 
ATOM     27  C   UNL     1       7.238   5.311  15.392  0.00  0.00    +0.000 A 
ATOM     28  C   UNL     1       6.357   4.444  14.736  0.00  0.00    +0.000 A 
ATOM     29  C   UNL     1       5.279   3.897  15.432  0.00  0.00    +0.000 A 
BRANCH  26  30
ATOM     30  O   UNL     1       7.825   6.493  17.471  0.00  0.00    +0.000 OA
ATOM     31  C   UNL     1       7.463   7.870  17.460  0.00  0.00    +0.000 C 
ENDBRANCH  26  30
BRANCH  28  32
ATOM     32  O   UNL     1       6.652   4.234  13.416  0.00  0.00    +0.000 OA
ATOM     33  C   UNL     1       5.733   3.451  12.666  0.00  0.00    +0.000 C 
ENDBRANCH  28  32
ENDBRANCH  21  24
ENDBRANCH  19  20
BRANCH  19  34
ATOM     34  C   UNL     1       3.131   2.946  21.034  0.00  0.00    +0.000 C 
ATOM     35  C   UNL     1       1.962   2.301  21.790  0.00  0.00    +0.000 C 
ATOM     36  C   UNL     1       4.286   1.944  20.950  0.00  0.00    +0.000 C 
ENDBRANCH  19  34
ENDBRANCH   2  19
TORSDOF 11
ENDMDL
MODEL 4
REMARK VINA RESULT:      -7.6      3.215      9.473
REMARK  Name = 
REMARK  17 active torsions:
REMARK  status: ('A' for Active; 'I' for Inactive)
REMARK    1  A    between atoms: C_1  and  C_2
REMARK    2  A    between atoms: C_2  and  N_3
REMARK    3  A    between atoms: N_3  and  C_4
REMARK    4  A    between atoms: N_3  and  S_6
REMARK    5  A    between atoms: C_4  and  C_5
REMARK    6  A    between atoms: S_6  and  C_9
REMARK    7  A    between atoms: C_12  and  N_13
REMARK    8  A    between atoms: C_14  and  C_16
REMARK    9  A    between atoms: C_16  and  N_17
REMARK   10  A    between atoms: C_16  and  C_30
REMARK   11  A    between atoms: C_18  and  C_20
REMARK   12  A    between atoms: C_22  and  O_23
REMARK   13  A    between atoms: O_23  and  C_24
REMARK   14  A    between atoms: C_26  and  O_27
REMARK   15  A    between atoms: O_27  and  C_28
REMARK   16  A    between atoms: C_30  and  C_31
REMARK   17  A    between atoms: C_30  and  C_32
REMARK                            x       y       z     vdW  Elec       q    Type
REMARK                         _______ _______ _______ _____ _____    ______ ____
ROOT
ATOM      1  N   UNL     1       0.357   9.775  20.219  0.00  0.00    +0.000 N 
ATOM      2  C   UNL     1       0.698  10.808  21.081  0.00  0.00    +0.000 C 
ATOM      3  O   UNL     1       1.765  10.903  21.686  0.00  0.00    +0.000 OA
ATOM      4  H   UNL     1      -0.565   9.809  19.793  0.00  0.00    +0.000 HD
ENDROOT
BRANCH   1   8
ATOM      5  C   UNL     1       2.896   6.608  19.030  0.00  0.00    +0.000 A 
ATOM      6  C   UNL     1       2.334   6.590  20.304  0.00  0.00    +0.000 A 
ATOM      7  C   UNL     1       1.496   7.634  20.701  0.00  0.00    +0.000 A 
ATOM      8  C   UNL     1       1.211   8.706  19.848  0.00  0.00    +0.000 A 
ATOM      9  C   UNL     1       1.792   8.719  18.572  0.00  0.00    +0.000 A 
ATOM     10  C   UNL     1       2.650   7.683  18.168  0.00  0.00    +0.000 A 
BRANCH   5  11
ATOM     11  S   UNL     1       3.923   5.249  18.536  0.00  0.00    +0.000 S 
ATOM     12  O   UNL     1       5.189   5.389  19.218  0.00  0.00    +0.000 OA
ATOM     13  O   UNL     1       3.857   5.143  17.088  0.00  0.00    +0.000 OA
BRANCH  11  14
ATOM     14  N   UNL     1       3.098   3.875  19.184  0.00  0.00    +0.000 NA
BRANCH  14  16
ATOM     15  C   UNL     1       0.698   3.278  19.679  0.00  0.00    +0.000 C 
ATOM     16  C   UNL     1       1.726   3.679  18.632  0.00  0.00    +0.000 C 
ENDBRANCH  14  16
BRANCH  14  17
ATOM     17  C   UNL     1       3.942   2.647  19.271  0.00  0.00    +0.000 C 
ATOM     18  C   UNL     1       3.591   1.595  18.232  0.00  0.00    +0.000 C 
ENDBRANCH  14  17
ENDBRANCH  11  14
ENDBRANCH   5  11
ENDBRANCH   1   8
BRANCH   2  19
ATOM     19  C   UNL     1      -0.415  11.859  21.319  0.00  0.00    +0.000 C 
BRANCH  19  20
ATOM     20  N   UNL     1      -1.461  11.570  20.336  0.00  0.00    +0.000 N 
ATOM     21  C   UNL     1      -1.592  12.302  19.177  0.00  0.00    +0.000 C 
ATOM     22  O   UNL     1      -0.883  13.267  18.914  0.00  0.00    +0.000 OA
ATOM     23  H   UNL     1      -1.827  10.624  20.341  0.00  0.00    +0.000 HD
BRANCH  21  24
ATOM     24  C   UNL     1      -2.610  11.804  18.208  0.00  0.00    +0.000 A 
ATOM     25  C   UNL     1      -2.278  11.529  16.873  0.00  0.00    +0.000 A 
ATOM     26  C   UNL     1      -3.264  11.131  15.969  0.00  0.00    +0.000 A 
ATOM     27  C   UNL     1      -4.578  10.982  16.413  0.00  0.00    +0.000 A 
ATOM     28  C   UNL     1      -4.915  11.231  17.748  0.00  0.00    +0.000 A 
ATOM     29  C   UNL     1      -3.927  11.630  18.648  0.00  0.00    +0.000 A 
BRANCH  26  30
ATOM     30  O   UNL     1      -2.821  10.941  14.688  0.00  0.00    +0.000 OA
ATOM     31  C   UNL     1      -3.158   9.706  14.065  0.00  0.00    +0.000 C 
ENDBRANCH  26  30
BRANCH  28  32
ATOM     32  O   UNL     1      -6.244  11.070  18.032  0.00  0.00    +0.000 OA
ATOM     33  C   UNL     1      -6.731  11.687  19.216  0.00  0.00    +0.000 C 
ENDBRANCH  28  32
ENDBRANCH  21  24
ENDBRANCH  19  20
BRANCH  19  34
ATOM     34  C   UNL     1      -0.974  11.702  22.759  0.00  0.00    +0.000 C 
ATOM     35  C   UNL     1      -2.390  12.281  22.876  0.00  0.00    +0.000 C 
ATOM     36  C   UNL     1      -0.987  10.246  23.233  0.00  0.00    +0.000 C 
ENDBRANCH  19  34
ENDBRANCH   2  19
TORSDOF 11
ENDMDL
MODEL 5
REMARK VINA RESULT:      -7.6      0.571      1.086
REMARK  Name = 
REMARK  17 active torsions:
REMARK  status: ('A' for Active; 'I' for Inactive)
REMARK    1  A    between atoms: C_1  and  C_2
REMARK    2  A    between atoms: C_2  and  N_3
REMARK    3  A    between atoms: N_3  and  C_4
REMARK    4  A    between atoms: N_3  and  S_6
REMARK    5  A    between atoms: C_4  and  C_5
REMARK    6  A    between atoms: S_6  and  C_9
REMARK    7  A    between atoms: C_12  and  N_13
REMARK    8  A    between atoms: C_14  and  C_16
REMARK    9  A    between atoms: C_16  and  N_17
REMARK   10  A    between atoms: C_16  and  C_30
REMARK   11  A    between atoms: C_18  and  C_20
REMARK   12  A    between atoms: C_22  and  O_23
REMARK   13  A    between atoms: O_23  and  C_24
REMARK   14  A    between atoms: C_26  and  O_27
REMARK   15  A    between atoms: O_27  and  C_28
REMARK   16  A    between atoms: C_30  and  C_31
REMARK   17  A    between atoms: C_30  and  C_32
REMARK                            x       y       z     vdW  Elec       q    Type
REMARK                         _______ _______ _______ _____ _____    ______ ____
ROOT
ATOM      1  N   UNL     1       2.448   6.293  19.186  0.00  0.00    +0.000 N 
ATOM      2  C   UNL     1       1.885   5.178  19.792  0.00  0.00    +0.000 C 
ATOM      3  O   UNL     1       0.959   5.204  20.603  0.00  0.00    +0.000 OA
ATOM      4  H   UNL     1       3.219   6.134  18.544  0.00  0.00    +0.000 HD
ENDROOT
BRANCH   1   8
ATOM      5  C   UNL     1       1.069  10.251  19.755  0.00  0.00    +0.000 A 
ATOM      6  C   UNL     1       1.504   9.855  18.492  0.00  0.00    +0.000 A 
ATOM      7  C   UNL     1       1.962   8.549  18.301  0.00  0.00    +0.000 A 
ATOM      8  C   UNL     1       1.998   7.628  19.353  0.00  0.00    +0.000 A 
ATOM      9  C   UNL     1       1.570   8.041  20.621  0.00  0.00    +0.000 A 
ATOM     10  C   UNL     1       1.124   9.357  20.830  0.00  0.00    +0.000 A 
BRANCH   5  11
ATOM     11  S   UNL     1       0.455  11.902  19.962  0.00  0.00    +0.000 S 
ATOM     12  O   UNL     1       0.325  12.486  18.647  0.00  0.00    +0.000 OA
ATOM     13  O   UNL     1       1.246  12.547  20.996  0.00  0.00    +0.000 OA
BRANCH  11  14
ATOM     14  N   UNL     1      -1.127  11.655  20.613  0.00  0.00    +0.000 NA
BRANCH  14  16
ATOM     15  C   UNL     1      -1.200  10.981  23.043  0.00  0.00    +0.000 C 
ATOM     16  C   UNL     1      -1.276  12.111  22.027  0.00  0.00    +0.000 C 
ENDBRANCH  14  16
BRANCH  14  17
ATOM     17  C   UNL     1      -2.231  12.048  19.688  0.00  0.00    +0.000 C 
ATOM     18  C   UNL     1      -3.365  12.790  20.376  0.00  0.00    +0.000 C 
ENDBRANCH  14  17
ENDBRANCH  11  14
ENDBRANCH   5  11
ENDBRANCH   1   8
BRANCH   2  19
ATOM     19  C   UNL     1       2.560   3.829  19.441  0.00  0.00    +0.000 C 
BRANCH  19  20
ATOM     20  N   UNL     1       3.657   4.152  18.527  0.00  0.00    +0.000 N 
ATOM     21  C   UNL     1       3.711   3.647  17.248  0.00  0.00    +0.000 C 
ATOM     22  O   UNL     1       2.881   2.860  16.805  0.00  0.00    +0.000 OA
ATOM     23  H   UNL     1       4.151   5.018  18.715  0.00  0.00    +0.000 HD
BRANCH  21  24
ATOM     24  C   UNL     1       4.810   4.174  16.388  0.00  0.00    +0.000 A 
ATOM     25  C   UNL     1       5.056   3.652  15.110  0.00  0.00    +0.000 A 
ATOM     26  C   UNL     1       6.134   4.115  14.354  0.00  0.00    +0.000 A 
ATOM     27  C   UNL     1       6.948   5.122  14.871  0.00  0.00    +0.000 A 
ATOM     28  C   UNL     1       6.698   5.666  16.136  0.00  0.00    +0.000 A 
ATOM     29  C   UNL     1       5.620   5.199  16.890  0.00  0.00    +0.000 A 
BRANCH  26  30
ATOM     30  O   UNL     1       6.293   3.492  13.146  0.00  0.00    +0.000 OA
ATOM     31  C   UNL     1       7.071   4.172  12.166  0.00  0.00    +0.000 C 
ENDBRANCH  26  30
BRANCH  28  32
ATOM     32  O   UNL     1       7.594   6.625  16.524  0.00  0.00    +0.000 OA
ATOM     33  C   UNL     1       7.581   7.005  17.894  0.00  0.00    +0.000 C 
ENDBRANCH  28  32
ENDBRANCH  21  24
ENDBRANCH  19  20
BRANCH  19  34
ATOM     34  C   UNL     1       3.113   3.175  20.736  0.00  0.00    +0.000 C 
ATOM     35  C   UNL     1       2.010   2.435  21.503  0.00  0.00    +0.000 C 
ATOM     36  C   UNL     1       4.269   2.208  20.463  0.00  0.00    +0.000 C 
ENDBRANCH  19  34
ENDBRANCH   2  19
TORSDOF 11
ENDMDL
MODEL 6
REMARK VINA RESULT:      -7.6      3.102      9.565
REMARK  Name = 
REMARK  17 active torsions:
REMARK  status: ('A' for Active; 'I' for Inactive)
REMARK    1  A    between atoms: C_1  and  C_2
REMARK    2  A    between atoms: C_2  and  N_3
REMARK    3  A    between atoms: N_3  and  C_4
REMARK    4  A    between atoms: N_3  and  S_6
REMARK    5  A    between atoms: C_4  and  C_5
REMARK    6  A    between atoms: S_6  and  C_9
REMARK    7  A    between atoms: C_12  and  N_13
REMARK    8  A    between atoms: C_14  and  C_16
REMARK    9  A    between atoms: C_16  and  N_17
REMARK   10  A    between atoms: C_16  and  C_30
REMARK   11  A    between atoms: C_18  and  C_20
REMARK   12  A    between atoms: C_22  and  O_23
REMARK   13  A    between atoms: O_23  and  C_24
REMARK   14  A    between atoms: C_26  and  O_27
REMARK   15  A    between atoms: O_27  and  C_28
REMARK   16  A    between atoms: C_30  and  C_31
REMARK   17  A    between atoms: C_30  and  C_32
REMARK                            x       y       z     vdW  Elec       q    Type
REMARK                         _______ _______ _______ _____ _____    ______ ____
ROOT
ATOM      1  N   UNL     1       0.643   9.688  19.951  0.00  0.00    +0.000 N 
ATOM      2  C   UNL     1       0.848  10.470  21.079  0.00  0.00    +0.000 C 
ATOM      3  O   UNL     1       1.788  10.350  21.863  0.00  0.00    +0.000 OA
ATOM      4  H   UNL     1      -0.184   9.882  19.393  0.00  0.00    +0.000 HD
ENDROOT
BRANCH   1   8
ATOM      5  C   UNL     1       3.276   6.644  18.650  0.00  0.00    +0.000 A 
ATOM      6  C   UNL     1       2.998   7.714  17.803  0.00  0.00    +0.000 A 
ATOM      7  C   UNL     1       2.128   8.720  18.228  0.00  0.00    +0.000 A 
ATOM      8  C   UNL     1       1.522   8.676  19.488  0.00  0.00    +0.000 A 
ATOM      9  C   UNL     1       1.800   7.588  20.327  0.00  0.00    +0.000 A 
ATOM     10  C   UNL     1       2.660   6.561  19.904  0.00  0.00    +0.000 A 
BRANCH   5  11
ATOM     11  S   UNL     1       4.416   5.400  18.102  0.00  0.00    +0.000 S 
ATOM     12  O   UNL     1       5.535   5.402  19.014  0.00  0.00    +0.000 OA
ATOM     13  O   UNL     1       4.611   5.573  16.672  0.00  0.00    +0.000 OA
BRANCH  11  14
ATOM     14  N   UNL     1       3.531   3.931  18.319  0.00  0.00    +0.000 NA
BRANCH  14  16
ATOM     15  C   UNL     1       4.372   2.169  19.916  0.00  0.00    +0.000 C 
ATOM     16  C   UNL     1       3.537   3.425  19.723  0.00  0.00    +0.000 C 
ENDBRANCH  14  16
BRANCH  14  17
ATOM     17  C   UNL     1       2.207   3.913  17.631  0.00  0.00    +0.000 C 
ATOM     18  C   UNL     1       1.067   3.441  18.518  0.00  0.00    +0.000 C 
ENDBRANCH  14  17
ENDBRANCH  11  14
ENDBRANCH   5  11
ENDBRANCH   1   8
BRANCH   2  19
ATOM     19  C   UNL     1      -0.262  11.512  21.366  0.00  0.00    +0.000 C 
BRANCH  19  20
ATOM     20  N   UNL     1      -1.291  11.297  20.346  0.00  0.00    +0.000 N 
ATOM     21  C   UNL     1      -1.699  12.303  19.501  0.00  0.00    +0.000 C 
ATOM     22  O   UNL     1      -1.271  13.450  19.574  0.00  0.00    +0.000 OA
ATOM     23  H   UNL     1      -1.416  10.339  20.036  0.00  0.00    +0.000 HD
BRANCH  21  24
ATOM     24  C   UNL     1      -2.650  11.900  18.425  0.00  0.00    +0.000 A 
ATOM     25  C   UNL     1      -4.036  11.894  18.636  0.00  0.00    +0.000 A 
ATOM     26  C   UNL     1      -4.900  11.446  17.635  0.00  0.00    +0.000 A 
ATOM     27  C   UNL     1      -4.373  11.031  16.413  0.00  0.00    +0.000 A 
ATOM     28  C   UNL     1      -2.993  11.054  16.184  0.00  0.00    +0.000 A 
ATOM     29  C   UNL     1      -2.132  11.502  17.187  0.00  0.00    +0.000 A 
BRANCH  26  30
ATOM     30  O   UNL     1      -6.224  11.445  17.983  0.00  0.00    +0.000 OA
ATOM     31  C   UNL     1      -6.988  12.590  17.619  0.00  0.00    +0.000 C 
ENDBRANCH  26  30
BRANCH  28  32
ATOM     32  O   UNL     1      -2.619  10.593  14.951  0.00  0.00    +0.000 OA
ATOM     33  C   UNL     1      -3.625   9.970  14.163  0.00  0.00    +0.000 C 
ENDBRANCH  28  32
ENDBRANCH  21  24
ENDBRANCH  19  20
BRANCH  19  34
ATOM     34  C   UNL     1      -0.849  11.265  22.782  0.00  0.00    +0.000 C 
ATOM     35  C   UNL     1      -2.251  11.872  22.919  0.00  0.00    +0.000 C 
ATOM     36  C   UNL     1      -0.907   9.779  23.148  0.00  0.00    +0.000 C 
ENDBRANCH  19  34
ENDBRANCH   2  19
TORSDOF 11
ENDMDL
MODEL 7
REMARK VINA RESULT:      -7.5      2.866      9.595
REMARK  Name = 
REMARK  17 active torsions:
REMARK  status: ('A' for Active; 'I' for Inactive)
REMARK    1  A    between atoms: C_1  and  C_2
REMARK    2  A    between atoms: C_2  and  N_3
REMARK    3  A    between atoms: N_3  and  C_4
REMARK    4  A    between atoms: N_3  and  S_6
REMARK    5  A    between atoms: C_4  and  C_5
REMARK    6  A    between atoms: S_6  and  C_9
REMARK    7  A    between atoms: C_12  and  N_13
REMARK    8  A    between atoms: C_14  and  C_16
REMARK    9  A    between atoms: C_16  and  N_17
REMARK   10  A    between atoms: C_16  and  C_30
REMARK   11  A    between atoms: C_18  and  C_20
REMARK   12  A    between atoms: C_22  and  O_23
REMARK   13  A    between atoms: O_23  and  C_24
REMARK   14  A    between atoms: C_26  and  O_27
REMARK   15  A    between atoms: O_27  and  C_28
REMARK   16  A    between atoms: C_30  and  C_31
REMARK   17  A    between atoms: C_30  and  C_32
REMARK                            x       y       z     vdW  Elec       q    Type
REMARK                         _______ _______ _______ _____ _____    ______ ____
ROOT
ATOM      1  N   UNL     1       0.995   9.349  19.824  0.00  0.00    +0.000 N 
ATOM      2  C   UNL     1       1.081   9.990  21.053  0.00  0.00    +0.000 C 
ATOM      3  O   UNL     1       1.832   9.664  21.971  0.00  0.00    +0.000 OA
ATOM      4  H   UNL     1       0.321   9.712  19.156  0.00  0.00    +0.000 HD
ENDROOT
BRANCH   1   8
ATOM      5  C   UNL     1       3.420   6.082  18.670  0.00  0.00    +0.000 A 
ATOM      6  C   UNL     1       3.330   7.194  17.835  0.00  0.00    +0.000 A 
ATOM      7  C   UNL     1       2.529   8.274  18.212  0.00  0.00    +0.000 A 
ATOM      8  C   UNL     1       1.808   8.264  19.411  0.00  0.00    +0.000 A 
ATOM      9  C   UNL     1       1.896   7.135  20.236  0.00  0.00    +0.000 A 
ATOM     10  C   UNL     1       2.685   6.035  19.860  0.00  0.00    +0.000 A 
BRANCH   5  11
ATOM     11  S   UNL     1       4.476   4.741  18.187  0.00  0.00    +0.000 S 
ATOM     12  O   UNL     1       3.639   3.711  17.617  0.00  0.00    +0.000 OA
ATOM     13  O   UNL     1       5.370   4.456  19.296  0.00  0.00    +0.000 OA
BRANCH  11  14
ATOM     14  N   UNL     1       5.436   5.430  16.925  0.00  0.00    +0.000 NA
BRANCH  14  16
ATOM     15  C   UNL     1       7.168   7.168  17.512  0.00  0.00    +0.000 C 
ATOM     16  C   UNL     1       6.852   5.693  17.319  0.00  0.00    +0.000 C 
ENDBRANCH  14  16
BRANCH  14  17
ATOM     17  C   UNL     1       5.245   4.782  15.595  0.00  0.00    +0.000 C 
ATOM     18  C   UNL     1       6.446   4.920  14.673  0.00  0.00    +0.000 C 
ENDBRANCH  14  17
ENDBRANCH  11  14
ENDBRANCH   5  11
ENDBRANCH   1   8
BRANCH   2  19
ATOM     19  C   UNL     1       0.081  11.155  21.257  0.00  0.00    +0.000 C 
BRANCH  19  20
ATOM     20  N   UNL     1      -0.973  10.963  20.259  0.00  0.00    +0.000 N 
ATOM     21  C   UNL     1      -1.435  11.999  19.480  0.00  0.00    +0.000 C 
ATOM     22  O   UNL     1      -1.037  13.153  19.600  0.00  0.00    +0.000 OA
ATOM     23  H   UNL     1      -1.080  10.019  19.903  0.00  0.00    +0.000 HD
BRANCH  21  24
ATOM     24  C   UNL     1      -2.407  11.624  18.412  0.00  0.00    +0.000 A 
ATOM     25  C   UNL     1      -3.789  11.615  18.650  0.00  0.00    +0.000 A 
ATOM     26  C   UNL     1      -4.673  11.193  17.656  0.00  0.00    +0.000 A 
ATOM     27  C   UNL     1      -4.170  10.809  16.413  0.00  0.00    +0.000 A 
ATOM     28  C   UNL     1      -2.794  10.836  16.159  0.00  0.00    +0.000 A 
ATOM     29  C   UNL     1      -1.914  11.257  17.156  0.00  0.00    +0.000 A 
BRANCH  26  30
ATOM     30  O   UNL     1      -5.989  11.185  18.029  0.00  0.00    +0.000 OA
ATOM     31  C   UNL     1      -6.286  11.592  19.361  0.00  0.00    +0.000 C 
ENDBRANCH  26  30
BRANCH  28  32
ATOM     32  O   UNL     1      -2.445  10.406  14.907  0.00  0.00    +0.000 OA
ATOM     33  C   UNL     1      -3.505  10.069  14.021  0.00  0.00    +0.000 C 
ENDBRANCH  28  32
ENDBRANCH  21  24
ENDBRANCH  19  20
BRANCH  19  34
ATOM     34  C   UNL     1      -0.515  11.079  22.689  0.00  0.00    +0.000 C 
ATOM     35  C   UNL     1      -1.771  11.950  22.818  0.00  0.00    +0.000 C 
ATOM     36  C   UNL     1      -0.852   9.647  23.115  0.00  0.00    +0.000 C 
ENDBRANCH  19  34
ENDBRANCH   2  19
TORSDOF 11
ENDMDL
MODEL 8
REMARK VINA RESULT:      -7.5      0.988      1.400
REMARK  Name = 
REMARK  17 active torsions:
REMARK  status: ('A' for Active; 'I' for Inactive)
REMARK    1  A    between atoms: C_1  and  C_2
REMARK    2  A    between atoms: C_2  and  N_3
REMARK    3  A    between atoms: N_3  and  C_4
REMARK    4  A    between atoms: N_3  and  S_6
REMARK    5  A    between atoms: C_4  and  C_5
REMARK    6  A    between atoms: S_6  and  C_9
REMARK    7  A    between atoms: C_12  and  N_13
REMARK    8  A    between atoms: C_14  and  C_16
REMARK    9  A    between atoms: C_16  and  N_17
REMARK   10  A    between atoms: C_16  and  C_30
REMARK   11  A    between atoms: C_18  and  C_20
REMARK   12  A    between atoms: C_22  and  O_23
REMARK   13  A    between atoms: O_23  and  C_24
REMARK   14  A    between atoms: C_26  and  O_27
REMARK   15  A    between atoms: O_27  and  C_28
REMARK   16  A    between atoms: C_30  and  C_31
REMARK   17  A    between atoms: C_30  and  C_32
REMARK                            x       y       z     vdW  Elec       q    Type
REMARK                         _______ _______ _______ _____ _____    ______ ____
ROOT
ATOM      1  N   UNL     1       2.672   5.837  19.611  0.00  0.00    +0.000 N 
ATOM      2  C   UNL     1       1.920   4.670  19.614  0.00  0.00    +0.000 C 
ATOM      3  O   UNL     1       0.706   4.609  19.807  0.00  0.00    +0.000 OA
ATOM      4  H   UNL     1       3.671   5.747  19.453  0.00  0.00    +0.000 HD
ENDROOT
BRANCH   1   8
ATOM      5  C   UNL     1       1.149   9.766  19.985  0.00  0.00    +0.000 A 
ATOM      6  C   UNL     1       1.109   8.911  21.084  0.00  0.00    +0.000 A 
ATOM      7  C   UNL     1       1.610   7.613  20.965  0.00  0.00    +0.000 A 
ATOM      8  C   UNL     1       2.148   7.147  19.760  0.00  0.00    +0.000 A 
ATOM      9  C   UNL     1       2.171   8.012  18.658  0.00  0.00    +0.000 A 
ATOM     10  C   UNL     1       1.655   9.314  18.761  0.00  0.00    +0.000 A 
BRANCH   5  11
ATOM     11  S   UNL     1       0.544  11.422  20.176  0.00  0.00    +0.000 S 
ATOM     12  O   UNL     1       1.609  12.321  19.797  0.00  0.00    +0.000 OA
ATOM     13  O   UNL     1      -0.093  11.518  21.478  0.00  0.00    +0.000 OA
BRANCH  11  14
ATOM     14  N   UNL     1      -0.709  11.523  18.989  0.00  0.00    +0.000 NA
BRANCH  14  16
ATOM     15  C   UNL     1      -1.846   9.952  17.376  0.00  0.00    +0.000 C 
ATOM     16  C   UNL     1      -1.485  10.259  18.822  0.00  0.00    +0.000 C 
ENDBRANCH  14  16
BRANCH  14  17
ATOM     17  C   UNL     1      -1.520  12.774  19.070  0.00  0.00    +0.000 C 
ATOM     18  C   UNL     1      -2.797  12.619  19.879  0.00  0.00    +0.000 C 
ENDBRANCH  14  17
ENDBRANCH  11  14
ENDBRANCH   5  11
ENDBRANCH   1   8
BRANCH   2  19
ATOM     19  C   UNL     1       2.734   3.365  19.427  0.00  0.00    +0.000 C 
BRANCH  19  20
ATOM     20  N   UNL     1       3.818   3.695  18.499  0.00  0.00    +0.000 N 
ATOM     21  C   UNL     1       3.637   3.682  17.135  0.00  0.00    +0.000 C 
ATOM     22  O   UNL     1       2.583   3.350  16.605  0.00  0.00    +0.000 OA
ATOM     23  H   UNL     1       4.561   4.277  18.872  0.00  0.00    +0.000 HD
BRANCH  21  24
ATOM     24  C   UNL     1       4.788   4.175  16.324  0.00  0.00    +0.000 A 
ATOM     25  C   UNL     1       5.098   3.615  15.076  0.00  0.00    +0.000 A 
ATOM     26  C   UNL     1       6.222   4.047  14.369  0.00  0.00    +0.000 A 
ATOM     27  C   UNL     1       7.016   5.060  14.902  0.00  0.00    +0.000 A 
ATOM     28  C   UNL     1       6.703   5.641  16.136  0.00  0.00    +0.000 A 
ATOM     29  C   UNL     1       5.580   5.206  16.841  0.00  0.00    +0.000 A 
BRANCH  26  30
ATOM     30  O   UNL     1       6.441   3.389  13.189  0.00  0.00    +0.000 OA
ATOM     31  C   UNL     1       7.044   4.134  12.136  0.00  0.00    +0.000 C 
ENDBRANCH  26  30
BRANCH  28  32
ATOM     32  O   UNL     1       7.586   6.603  16.546  0.00  0.00    +0.000 OA
ATOM     33  C   UNL     1       7.645   6.874  17.941  0.00  0.00    +0.000 C 
ENDBRANCH  28  32
ENDBRANCH  21  24
ENDBRANCH  19  20
BRANCH  19  34
ATOM     34  C   UNL     1       3.314   2.918  20.795  0.00  0.00    +0.000 C 
ATOM     35  C   UNL     1       2.234   2.280  21.678  0.00  0.00    +0.000 C 
ATOM     36  C   UNL     1       4.484   1.940  20.651  0.00  0.00    +0.000 C 
ENDBRANCH  19  34
ENDBRANCH   2  19
TORSDOF 11
ENDMDL
MODEL 9
REMARK VINA RESULT:      -7.5      0.512      2.245
REMARK  Name = 
REMARK  17 active torsions:
REMARK  status: ('A' for Active; 'I' for Inactive)
REMARK    1  A    between atoms: C_1  and  C_2
REMARK    2  A    between atoms: C_2  and  N_3
REMARK    3  A    between atoms: N_3  and  C_4
REMARK    4  A    between atoms: N_3  and  S_6
REMARK    5  A    between atoms: C_4  and  C_5
REMARK    6  A    between atoms: S_6  and  C_9
REMARK    7  A    between atoms: C_12  and  N_13
REMARK    8  A    between atoms: C_14  and  C_16
REMARK    9  A    between atoms: C_16  and  N_17
REMARK   10  A    between atoms: C_16  and  C_30
REMARK   11  A    between atoms: C_18  and  C_20
REMARK   12  A    between atoms: C_22  and  O_23
REMARK   13  A    between atoms: O_23  and  C_24
REMARK   14  A    between atoms: C_26  and  O_27
REMARK   15  A    between atoms: O_27  and  C_28
REMARK   16  A    between atoms: C_30  and  C_31
REMARK   17  A    between atoms: C_30  and  C_32
REMARK                            x       y       z     vdW  Elec       q    Type
REMARK                         _______ _______ _______ _____ _____    ______ ____
ROOT
ATOM      1  N   UNL     1       2.277   6.466  19.170  0.00  0.00    +0.000 N 
ATOM      2  C   UNL     1       1.930   5.402  19.993  0.00  0.00    +0.000 C 
ATOM      3  O   UNL     1       1.287   5.495  21.038  0.00  0.00    +0.000 OA
ATOM      4  H   UNL     1       2.823   6.254  18.341  0.00  0.00    +0.000 HD
ENDROOT
BRANCH   1   8
ATOM      5  C   UNL     1       1.147  10.508  19.694  0.00  0.00    +0.000 A 
ATOM      6  C   UNL     1       1.067   9.632  20.774  0.00  0.00    +0.000 A 
ATOM      7  C   UNL     1       1.438   8.296  20.605  0.00  0.00    +0.000 A 
ATOM      8  C   UNL     1       1.884   7.814  19.370  0.00  0.00    +0.000 A 
ATOM      9  C   UNL     1       1.949   8.702  18.288  0.00  0.00    +0.000 A 
ATOM     10  C   UNL     1       1.562  10.044  18.441  0.00  0.00    +0.000 A 
BRANCH   5  11
ATOM     11  S   UNL     1       0.709  12.208  19.947  0.00  0.00    +0.000 S 
ATOM     12  O   UNL     1       0.761  12.867  18.663  0.00  0.00    +0.000 OA
ATOM     13  O   UNL     1       1.475  12.703  21.078  0.00  0.00    +0.000 OA
BRANCH  11  14
ATOM     14  N   UNL     1      -0.942  12.119  20.452  0.00  0.00    +0.000 NA
BRANCH  14  16
ATOM     15  C   UNL     1      -1.366  11.668  22.898  0.00  0.00    +0.000 C 
ATOM     16  C   UNL     1      -1.193  12.707  21.801  0.00  0.00    +0.000 C 
ENDBRANCH  14  16
BRANCH  14  17
ATOM     17  C   UNL     1      -1.922  12.495  19.391  0.00  0.00    +0.000 C 
ATOM     18  C   UNL     1      -2.389  11.317  18.551  0.00  0.00    +0.000 C 
ENDBRANCH  14  17
ENDBRANCH  11  14
ENDBRANCH   5  11
ENDBRANCH   1   8
BRANCH   2  19
ATOM     19  C   UNL     1       2.483   4.024  19.551  0.00  0.00    +0.000 C 
BRANCH  19  20
ATOM     20  N   UNL     1       3.695   4.304  18.779  0.00  0.00    +0.000 N 
ATOM     21  C   UNL     1       3.816   3.940  17.457  0.00  0.00    +0.000 C 
ATOM     22  O   UNL     1       2.947   3.319  16.854  0.00  0.00    +0.000 OA
ATOM     23  H   UNL     1       4.266   5.073  19.112  0.00  0.00    +0.000 HD
BRANCH  21  24
ATOM     24  C   UNL     1       5.049   4.414  16.764  0.00  0.00    +0.000 A 
ATOM     25  C   UNL     1       5.993   5.219  17.418  0.00  0.00    +0.000 A 
ATOM     26  C   UNL     1       7.103   5.707  16.726  0.00  0.00    +0.000 A 
ATOM     27  C   UNL     1       7.279   5.362  15.386  0.00  0.00    +0.000 A 
ATOM     28  C   UNL     1       6.354   4.541  14.732  0.00  0.00    +0.000 A 
ATOM     29  C   UNL     1       5.245   4.056  15.426  0.00  0.00    +0.000 A 
BRANCH  26  30
ATOM     30  O   UNL     1       7.922   6.519  17.462  0.00  0.00    +0.000 OA
ATOM     31  C   UNL     1       7.579   7.900  17.522  0.00  0.00    +0.000 C 
ENDBRANCH  26  30
BRANCH  28  32
ATOM     32  O   UNL     1       6.641   4.310  13.413  0.00  0.00    +0.000 OA
ATOM     33  C   UNL     1       5.791   3.410  12.716  0.00  0.00    +0.000 C 
ENDBRANCH  28  32
ENDBRANCH  21  24
ENDBRANCH  19  20
BRANCH  19  34
ATOM     34  C   UNL     1       2.827   3.179  20.807  0.00  0.00    +0.000 C 
ATOM     35  C   UNL     1       1.640   2.309  21.238  0.00  0.00    +0.000 C 
ATOM     36  C   UNL     1       4.054   2.286  20.601  0.00  0.00    +0.000 C 
ENDBRANCH  19  34
ENDBRANCH   2  19
TORSDOF 11
ENDMDL
