MODEL 1
REMARK VINA RESULT:      -7.6      0.000      0.000
REMARK  Name = 
REMARK  6 active torsions:
REMARK  status: ('A' for Active; 'I' for Inactive)
REMARK    1  A    between atoms: C_1  and  C_2
REMARK    2  A    between atoms: C_5  and  O_6
REMARK    3  A    between atoms: O_6  and  C_7
REMARK    4  A    between atoms: C_9  and  C_10
REMARK    5  A    between atoms: C_13  and  C_14
REMARK    6  A    between atoms: N_16  and  O_17
REMARK                            x       y       z     vdW  Elec       q    Type
REMARK                         _______ _______ _______ _____ _____    ______ ____
ROOT
ATOM      1  C   UNL     1       3.902   4.974  19.754  0.00  0.00    +0.000 A 
ATOM      2  N   UNL     1       3.238   6.113  20.100  0.00  0.00    +0.000 NA
ATOM      3  C   UNL     1       1.923   6.029  20.386  0.00  0.00    +0.000 A 
ATOM      4  C   UNL     1       1.217   7.305  20.726  0.00  0.00    +0.000 C 
ATOM      5  C   UNL     1       1.235   4.826  20.350  0.00  0.00    +0.000 A 
ATOM      6  C   UNL     1       1.935   3.663  20.039  0.00  0.00    +0.000 A 
ATOM      7  C   UNL     1       3.307   3.715  19.747  0.00  0.00    +0.000 A 
ENDROOT
BRANCH   7   8
ATOM      8  C   UNL     1       4.023   2.425  19.455  0.00  0.00    +0.000 C 
ATOM      9  N   UNL     1       5.113   2.033  20.191  0.00  0.00    +0.000 N 
ATOM     10  N   UNL     1       3.569   1.678  18.484  0.00  0.00    +0.000 NA
ATOM     11  H   UNL     1       5.711   2.761  20.567  0.00  0.00    +0.000 HD
ATOM     12  H   UNL     1       5.614   1.277  19.731  0.00  0.00    +0.000 HD
BRANCH  10  13
ATOM     13  O   UNL     1       4.334   0.512  18.332  0.00  0.00    +0.000 OA
ATOM     14  H   UNL     1       3.656  -0.146  18.086  0.00  0.00    +0.000 HD
ENDBRANCH  10  13
ENDBRANCH   7   8
BRANCH   1  15
ATOM     15  O   UNL     1       5.242   5.104  19.418  0.00  0.00    +0.000 OA
BRANCH  15  20
ATOM     16  C   UNL     1       6.783   4.750  13.953  0.00  0.00    +0.000 C 
ATOM     17  C   UNL     1       6.391   4.899  15.394  0.00  0.00    +0.000 A 
ATOM     18  C   UNL     1       7.239   4.475  16.424  0.00  0.00    +0.000 A 
ATOM     19  C   UNL     1       6.839   4.581  17.761  0.00  0.00    +0.000 A 
ATOM     20  C   UNL     1       5.591   5.117  18.083  0.00  0.00    +0.000 A 
ATOM     21  C   UNL     1       4.739   5.536  17.056  0.00  0.00    +0.000 A 
ATOM     22  C   UNL     1       5.144   5.442  15.722  0.00  0.00    +0.000 A 
ENDBRANCH  15  20
ENDBRANCH   1  15
TORSDOF 4
ENDMDL
MODEL 2
REMARK VINA RESULT:      -7.5      1.021      1.275
REMARK  Name = 
REMARK  6 active torsions:
REMARK  status: ('A' for Active; 'I' for Inactive)
REMARK    1  A    between atoms: C_1  and  C_2
REMARK    2  A    between atoms: C_5  and  O_6
REMARK    3  A    between atoms: O_6  and  C_7
REMARK    4  A    between atoms: C_9  and  C_10
REMARK    5  A    between atoms: C_13  and  C_14
REMARK    6  A    between atoms: N_16  and  O_17
REMARK                            x       y       z     vdW  Elec       q    Type
REMARK                         _______ _______ _______ _____ _____    ______ ____
ROOT
ATOM      1  C   UNL     1       4.363   4.720  19.289  0.00  0.00    +0.000 A 
ATOM      2  N   UNL     1       3.823   5.965  19.412  0.00  0.00    +0.000 NA
ATOM      3  C   UNL     1       2.564   6.076  19.882  0.00  0.00    +0.000 A 
ATOM      4  C   UNL     1       1.990   7.456  19.970  0.00  0.00    +0.000 C 
ATOM      5  C   UNL     1       1.813   4.970  20.251  0.00  0.00    +0.000 A 
ATOM      6  C   UNL     1       2.393   3.707  20.162  0.00  0.00    +0.000 A 
ATOM      7  C   UNL     1       3.706   3.558  19.687  0.00  0.00    +0.000 A 
ENDROOT
BRANCH   7   8
ATOM      8  C   UNL     1       4.297   2.177  19.648  0.00  0.00    +0.000 C 
ATOM      9  N   UNL     1       4.019   1.311  18.619  0.00  0.00    +0.000 N 
ATOM     10  N   UNL     1       5.097   1.824  20.619  0.00  0.00    +0.000 NA
ATOM     11  H   UNL     1       3.107   1.383  18.181  0.00  0.00    +0.000 HD
ATOM     12  H   UNL     1       4.296   0.362  18.853  0.00  0.00    +0.000 HD
BRANCH  10  13
ATOM     13  O   UNL     1       5.569   0.514  20.446  0.00  0.00    +0.000 OA
ATOM     14  H   UNL     1       5.173   0.266  19.589  0.00  0.00    +0.000 HD
ENDBRANCH  10  13
ENDBRANCH   7   8
BRANCH   1  15
ATOM     15  O   UNL     1       5.642   4.638  18.756  0.00  0.00    +0.000 OA
BRANCH  15  20
ATOM     16  C   UNL     1       6.573   4.167  13.164  0.00  0.00    +0.000 C 
ATOM     17  C   UNL     1       6.304   4.343  14.629  0.00  0.00    +0.000 A 
ATOM     18  C   UNL     1       7.318   4.732  15.511  0.00  0.00    +0.000 A 
ATOM     19  C   UNL     1       7.061   4.848  16.882  0.00  0.00    +0.000 A 
ATOM     20  C   UNL     1       5.786   4.584  17.385  0.00  0.00    +0.000 A 
ATOM     21  C   UNL     1       4.771   4.189  16.507  0.00  0.00    +0.000 A 
ATOM     22  C   UNL     1       5.026   4.085  15.137  0.00  0.00    +0.000 A 
ENDBRANCH  15  20
ENDBRANCH   1  15
TORSDOF 4
ENDMDL
MODEL 3
REMARK VINA RESULT:      -7.4      2.315      5.830
REMARK  Name = 
REMARK  6 active torsions:
REMARK  status: ('A' for Active; 'I' for Inactive)
REMARK    1  A    between atoms: C_1  and  C_2
REMARK    2  A    between atoms: C_5  and  O_6
REMARK    3  A    between atoms: O_6  and  C_7
REMARK    4  A    between atoms: C_9  and  C_10
REMARK    5  A    between atoms: C_13  and  C_14
REMARK    6  A    between atoms: N_16  and  O_17
REMARK                            x       y       z     vdW  Elec       q    Type
REMARK                         _______ _______ _______ _____ _____    ______ ____
ROOT
ATOM      1  C   UNL     1       5.516   5.512  17.380  0.00  0.00    +0.000 A 
ATOM      2  N   UNL     1       4.917   5.076  16.236  0.00  0.00    +0.000 NA
ATOM      3  C   UNL     1       5.693   4.568  15.257  0.00  0.00    +0.000 A 
ATOM      4  C   UNL     1       5.005   4.133  14.001  0.00  0.00    +0.000 C 
ATOM      5  C   UNL     1       7.070   4.466  15.383  0.00  0.00    +0.000 A 
ATOM      6  C   UNL     1       7.664   4.874  16.575  0.00  0.00    +0.000 A 
ATOM      7  C   UNL     1       6.884   5.397  17.618  0.00  0.00    +0.000 A 
ENDROOT
BRANCH   7   8
ATOM      8  C   UNL     1       7.572   5.786  18.897  0.00  0.00    +0.000 C 
ATOM      9  N   UNL     1       8.298   6.947  18.991  0.00  0.00    +0.000 N 
ATOM     10  N   UNL     1       7.449   4.990  19.926  0.00  0.00    +0.000 NA
ATOM     11  H   UNL     1       8.767   7.275  18.153  0.00  0.00    +0.000 HD
ATOM     12  H   UNL     1       8.881   6.949  19.824  0.00  0.00    +0.000 HD
BRANCH  10  13
ATOM     13  O   UNL     1       8.141   5.483  21.042  0.00  0.00    +0.000 OA
ATOM     14  H   UNL     1       9.069   5.446  20.738  0.00  0.00    +0.000 HD
ENDBRANCH  10  13
ENDBRANCH   7   8
BRANCH   1  15
ATOM     15  O   UNL     1       4.695   6.074  18.347  0.00  0.00    +0.000 OA
BRANCH  15  20
ATOM     16  C   UNL     1       1.327   2.751  21.506  0.00  0.00    +0.000 C 
ATOM     17  C   UNL     1       2.253   3.630  20.717  0.00  0.00    +0.000 A 
ATOM     18  C   UNL     1       2.007   5.001  20.577  0.00  0.00    +0.000 A 
ATOM     19  C   UNL     1       2.856   5.798  19.801  0.00  0.00    +0.000 A 
ATOM     20  C   UNL     1       3.963   5.235  19.162  0.00  0.00    +0.000 A 
ATOM     21  C   UNL     1       4.207   3.864  19.295  0.00  0.00    +0.000 A 
ATOM     22  C   UNL     1       3.367   3.072  20.080  0.00  0.00    +0.000 A 
ENDBRANCH  15  20
ENDBRANCH   1  15
TORSDOF 4
ENDMDL
MODEL 4
REMARK VINA RESULT:      -7.3      1.615      2.013
REMARK  Name = 
REMARK  6 active torsions:
REMARK  status: ('A' for Active; 'I' for Inactive)
REMARK    1  A    between atoms: C_1  and  C_2
REMARK    2  A    between atoms: C_5  and  O_6
REMARK    3  A    between atoms: O_6  and  C_7
REMARK    4  A    between atoms: C_9  and  C_10
REMARK    5  A    between atoms: C_13  and  C_14
REMARK    6  A    between atoms: N_16  and  O_17
REMARK                            x       y       z     vdW  Elec       q    Type
REMARK                         _______ _______ _______ _____ _____    ______ ____
ROOT
ATOM      1  C   UNL     1       4.514   5.262  17.917  0.00  0.00    +0.000 A 
ATOM      2  N   UNL     1       4.136   6.564  17.776  0.00  0.00    +0.000 NA
ATOM      3  C   UNL     1       2.892   6.918  18.156  0.00  0.00    +0.000 A 
ATOM      4  C   UNL     1       2.499   8.348  17.953  0.00  0.00    +0.000 C 
ATOM      5  C   UNL     1       1.996   6.006  18.692  0.00  0.00    +0.000 A 
ATOM      6  C   UNL     1       2.410   4.688  18.872  0.00  0.00    +0.000 A 
ATOM      7  C   UNL     1       3.703   4.289  18.497  0.00  0.00    +0.000 A 
ENDROOT
BRANCH   7   8
ATOM      8  C   UNL     1       4.110   2.865  18.749  0.00  0.00    +0.000 C 
ATOM      9  N   UNL     1       5.087   2.554  19.663  0.00  0.00    +0.000 N 
ATOM     10  N   UNL     1       3.498   1.924  18.080  0.00  0.00    +0.000 NA
ATOM     11  H   UNL     1       5.833   3.227  19.797  0.00  0.00    +0.000 HD
ATOM     12  H   UNL     1       5.404   1.595  19.549  0.00  0.00    +0.000 HD
BRANCH  10  13
ATOM     13  O   UNL     1       3.982   0.652  18.421  0.00  0.00    +0.000 OA
ATOM     14  H   UNL     1       3.388   0.065  17.914  0.00  0.00    +0.000 HD
ENDBRANCH  10  13
ENDBRANCH   7   8
BRANCH   1  15
ATOM     15  O   UNL     1       5.783   4.921  17.471  0.00  0.00    +0.000 OA
BRANCH  15  20
ATOM     16  C   UNL     1       6.968   3.943  11.994  0.00  0.00    +0.000 C 
ATOM     17  C   UNL     1       6.623   4.246  13.422  0.00  0.00    +0.000 A 
ATOM     18  C   UNL     1       7.521   4.922  14.257  0.00  0.00    +0.000 A 
ATOM     19  C   UNL     1       7.201   5.157  15.599  0.00  0.00    +0.000 A 
ATOM     20  C   UNL     1       5.979   4.726  16.120  0.00  0.00    +0.000 A 
ATOM     21  C   UNL     1       5.083   4.045  15.289  0.00  0.00    +0.000 A 
ATOM     22  C   UNL     1       5.397   3.822  13.946  0.00  0.00    +0.000 A 
ENDBRANCH  15  20
ENDBRANCH   1  15
TORSDOF 4
ENDMDL
MODEL 5
REMARK VINA RESULT:      -7.3      2.310      5.727
REMARK  Name = 
REMARK  6 active torsions:
REMARK  status: ('A' for Active; 'I' for Inactive)
REMARK    1  A    between atoms: C_1  and  C_2
REMARK    2  A    between atoms: C_5  and  O_6
REMARK    3  A    between atoms: O_6  and  C_7
REMARK    4  A    between atoms: C_9  and  C_10
REMARK    5  A    between atoms: C_13  and  C_14
REMARK    6  A    between atoms: N_16  and  O_17
REMARK                            x       y       z     vdW  Elec       q    Type
REMARK                         _______ _______ _______ _____ _____    ______ ____
ROOT
ATOM      1  C   UNL     1       5.524   5.540  17.420  0.00  0.00    +0.000 A 
ATOM      2  N   UNL     1       4.911   5.106  16.282  0.00  0.00    +0.000 NA
ATOM      3  C   UNL     1       5.671   4.566  15.308  0.00  0.00    +0.000 A 
ATOM      4  C   UNL     1       4.969   4.134  14.058  0.00  0.00    +0.000 C 
ATOM      5  C   UNL     1       7.045   4.430  15.433  0.00  0.00    +0.000 A 
ATOM      6  C   UNL     1       7.652   4.837  16.618  0.00  0.00    +0.000 A 
ATOM      7  C   UNL     1       6.888   5.393  17.657  0.00  0.00    +0.000 A 
ENDROOT
BRANCH   7   8
ATOM      8  C   UNL     1       7.589   5.778  18.929  0.00  0.00    +0.000 C 
ATOM      9  N   UNL     1       8.330   6.931  19.013  0.00  0.00    +0.000 N 
ATOM     10  N   UNL     1       7.462   4.989  19.963  0.00  0.00    +0.000 NA
ATOM     11  H   UNL     1       8.798   7.249  18.172  0.00  0.00    +0.000 HD
ATOM     12  H   UNL     1       8.918   6.929  19.843  0.00  0.00    +0.000 HD
BRANCH  10  13
ATOM     13  O   UNL     1       8.168   5.477  21.072  0.00  0.00    +0.000 OA
ATOM     14  H   UNL     1       8.332   6.406  20.817  0.00  0.00    +0.000 HD
ENDBRANCH  10  13
ENDBRANCH   7   8
BRANCH   1  15
ATOM     15  O   UNL     1       4.720   6.134  18.382  0.00  0.00    +0.000 OA
BRANCH  15  20
ATOM     16  C   UNL     1       1.362   2.754  21.490  0.00  0.00    +0.000 C 
ATOM     17  C   UNL     1       2.211   3.638  20.625  0.00  0.00    +0.000 A 
ATOM     18  C   UNL     1       3.388   3.161  20.035  0.00  0.00    +0.000 A 
ATOM     19  C   UNL     1       4.192   4.011  19.268  0.00  0.00    +0.000 A 
ATOM     20  C   UNL     1       3.826   5.345  19.077  0.00  0.00    +0.000 A 
ATOM     21  C   UNL     1       2.655   5.826  19.671  0.00  0.00    +0.000 A 
ATOM     22  C   UNL     1       1.846   4.973  20.426  0.00  0.00    +0.000 A 
ENDBRANCH  15  20
ENDBRANCH   1  15
TORSDOF 4
ENDMDL
MODEL 6
REMARK VINA RESULT:      -7.2      0.083      1.109
REMARK  Name = 
REMARK  6 active torsions:
REMARK  status: ('A' for Active; 'I' for Inactive)
REMARK    1  A    between atoms: C_1  and  C_2
REMARK    2  A    between atoms: C_5  and  O_6
REMARK    3  A    between atoms: O_6  and  C_7
REMARK    4  A    between atoms: C_9  and  C_10
REMARK    5  A    between atoms: C_13  and  C_14
REMARK    6  A    between atoms: N_16  and  O_17
REMARK                            x       y       z     vdW  Elec       q    Type
REMARK                         _______ _______ _______ _____ _____    ______ ____
ROOT
ATOM      1  C   UNL     1       3.879   5.026  19.754  0.00  0.00    +0.000 A 
ATOM      2  N   UNL     1       3.205   6.158  20.104  0.00  0.00    +0.000 NA
ATOM      3  C   UNL     1       1.888   6.065  20.373  0.00  0.00    +0.000 A 
ATOM      4  C   UNL     1       1.173   7.335  20.718  0.00  0.00    +0.000 C 
ATOM      5  C   UNL     1       1.205   4.860  20.314  0.00  0.00    +0.000 A 
ATOM      6  C   UNL     1       1.914   3.704  19.999  0.00  0.00    +0.000 A 
ATOM      7  C   UNL     1       3.289   3.764  19.725  0.00  0.00    +0.000 A 
ENDROOT
BRANCH   7   8
ATOM      8  C   UNL     1       4.014   2.481  19.428  0.00  0.00    +0.000 C 
ATOM      9  N   UNL     1       5.106   2.093  20.164  0.00  0.00    +0.000 N 
ATOM     10  N   UNL     1       3.565   1.735  18.454  0.00  0.00    +0.000 NA
ATOM     11  H   UNL     1       5.699   2.823  20.543  0.00  0.00    +0.000 HD
ATOM     12  H   UNL     1       5.612   1.342  19.701  0.00  0.00    +0.000 HD
BRANCH  10  13
ATOM     13  O   UNL     1       4.339   0.575  18.297  0.00  0.00    +0.000 OA
ATOM     14  H   UNL     1       4.071   0.045  19.072  0.00  0.00    +0.000 HD
ENDBRANCH  10  13
ENDBRANCH   7   8
BRANCH   1  15
ATOM     15  O   UNL     1       5.222   5.164  19.437  0.00  0.00    +0.000 OA
BRANCH  15  20
ATOM     16  C   UNL     1       6.761   4.871  13.968  0.00  0.00    +0.000 C 
ATOM     17  C   UNL     1       6.339   4.893  15.407  0.00  0.00    +0.000 A 
ATOM     18  C   UNL     1       5.117   5.454  15.796  0.00  0.00    +0.000 A 
ATOM     19  C   UNL     1       4.759   5.506  17.148  0.00  0.00    +0.000 A 
ATOM     20  C   UNL     1       5.613   4.992  18.125  0.00  0.00    +0.000 A 
ATOM     21  C   UNL     1       6.838   4.436  17.739  0.00  0.00    +0.000 A 
ATOM     22  C   UNL     1       7.189   4.373  16.389  0.00  0.00    +0.000 A 
ENDBRANCH  15  20
ENDBRANCH   1  15
TORSDOF 4
ENDMDL
MODEL 7
REMARK VINA RESULT:      -7.2      1.624      2.136
REMARK  Name = 
REMARK  6 active torsions:
REMARK  status: ('A' for Active; 'I' for Inactive)
REMARK    1  A    between atoms: C_1  and  C_2
REMARK    2  A    between atoms: C_5  and  O_6
REMARK    3  A    between atoms: O_6  and  C_7
REMARK    4  A    between atoms: C_9  and  C_10
REMARK    5  A    between atoms: C_13  and  C_14
REMARK    6  A    between atoms: N_16  and  O_17
REMARK                            x       y       z     vdW  Elec       q    Type
REMARK                         _______ _______ _______ _____ _____    ______ ____
ROOT
ATOM      1  C   UNL     1       4.567   5.219  17.986  0.00  0.00    +0.000 A 
ATOM      2  N   UNL     1       4.203   6.520  17.804  0.00  0.00    +0.000 NA
ATOM      3  C   UNL     1       2.927   6.872  18.061  0.00  0.00    +0.000 A 
ATOM      4  C   UNL     1       2.553   8.301  17.815  0.00  0.00    +0.000 C 
ATOM      5  C   UNL     1       1.985   5.960  18.511  0.00  0.00    +0.000 A 
ATOM      6  C   UNL     1       2.382   4.644  18.736  0.00  0.00    +0.000 A 
ATOM      7  C   UNL     1       3.706   4.247  18.489  0.00  0.00    +0.000 A 
ENDROOT
BRANCH   7   8
ATOM      8  C   UNL     1       4.091   2.825  18.785  0.00  0.00    +0.000 C 
ATOM      9  N   UNL     1       5.018   2.523  19.751  0.00  0.00    +0.000 N 
ATOM     10  N   UNL     1       3.506   1.877  18.102  0.00  0.00    +0.000 NA
ATOM     11  H   UNL     1       5.762   3.194  19.911  0.00  0.00    +0.000 HD
ATOM     12  H   UNL     1       5.334   1.561  19.669  0.00  0.00    +0.000 HD
BRANCH  10  13
ATOM     13  O   UNL     1       3.964   0.608  18.488  0.00  0.00    +0.000 OA
ATOM     14  H   UNL     1       3.138   0.171  18.774  0.00  0.00    +0.000 HD
ENDBRANCH  10  13
ENDBRANCH   7   8
BRANCH   1  15
ATOM     15  O   UNL     1       5.874   4.881  17.666  0.00  0.00    +0.000 OA
BRANCH  15  20
ATOM     16  C   UNL     1       6.799   4.068  12.112  0.00  0.00    +0.000 C 
ATOM     17  C   UNL     1       6.594   4.241  13.588  0.00  0.00    +0.000 A 
ATOM     18  C   UNL     1       5.498   3.666  14.241  0.00  0.00    +0.000 A 
ATOM     19  C   UNL     1       5.298   3.875  15.610  0.00  0.00    +0.000 A 
ATOM     20  C   UNL     1       6.195   4.654  16.343  0.00  0.00    +0.000 A 
ATOM     21  C   UNL     1       7.288   5.236  15.692  0.00  0.00    +0.000 A 
ATOM     22  C   UNL     1       7.494   5.016  14.328  0.00  0.00    +0.000 A 
ENDBRANCH  15  20
ENDBRANCH   1  15
TORSDOF 4
ENDMDL
MODEL 8
REMARK VINA RESULT:      -7.2      1.025      1.600
REMARK  Name = 
REMARK  6 active torsions:
REMARK  status: ('A' for Active; 'I' for Inactive)
REMARK    1  A    between atoms: C_1  and  C_2
REMARK    2  A    between atoms: C_5  and  O_6
REMARK    3  A    between atoms: O_6  and  C_7
REMARK    4  A    between atoms: C_9  and  C_10
REMARK    5  A    between atoms: C_13  and  C_14
REMARK    6  A    between atoms: N_16  and  O_17
REMARK                            x       y       z     vdW  Elec       q    Type
REMARK                         _______ _______ _______ _____ _____    ______ ____
ROOT
ATOM      1  C   UNL     1       4.467   4.638  19.384  0.00  0.00    +0.000 A 
ATOM      2  N   UNL     1       3.924   5.885  19.472  0.00  0.00    +0.000 NA
ATOM      3  C   UNL     1       2.626   5.998  19.820  0.00  0.00    +0.000 A 
ATOM      4  C   UNL     1       2.054   7.380  19.872  0.00  0.00    +0.000 C 
ATOM      5  C   UNL     1       1.837   4.893  20.099  0.00  0.00    +0.000 A 
ATOM      6  C   UNL     1       2.416   3.627  20.048  0.00  0.00    +0.000 A 
ATOM      7  C   UNL     1       3.768   3.475  19.700  0.00  0.00    +0.000 A 
ENDROOT
BRANCH   7   8
ATOM      8  C   UNL     1       4.352   2.090  19.698  0.00  0.00    +0.000 C 
ATOM      9  N   UNL     1       4.065   1.197  18.696  0.00  0.00    +0.000 N 
ATOM     10  N   UNL     1       5.155   1.762  20.676  0.00  0.00    +0.000 NA
ATOM     11  H   UNL     1       3.152   1.260  18.260  0.00  0.00    +0.000 HD
ATOM     12  H   UNL     1       4.340   0.254  18.956  0.00  0.00    +0.000 HD
BRANCH  10  13
ATOM     13  O   UNL     1       5.620   0.446  20.539  0.00  0.00    +0.000 OA
ATOM     14  H   UNL     1       6.570   0.583  20.358  0.00  0.00    +0.000 HD
ENDBRANCH  10  13
ENDBRANCH   7   8
BRANCH   1  15
ATOM     15  O   UNL     1       5.791   4.554  18.976  0.00  0.00    +0.000 OA
BRANCH  15  20
ATOM     16  C   UNL     1       6.582   4.461  13.344  0.00  0.00    +0.000 C 
ATOM     17  C   UNL     1       6.397   4.433  14.832  0.00  0.00    +0.000 A 
ATOM     18  C   UNL     1       5.153   4.138  15.403  0.00  0.00    +0.000 A 
ATOM     19  C   UNL     1       4.987   4.159  16.792  0.00  0.00    +0.000 A 
ATOM     20  C   UNL     1       6.063   4.469  17.626  0.00  0.00    +0.000 A 
ATOM     21  C   UNL     1       7.305   4.771  17.058  0.00  0.00    +0.000 A 
ATOM     22  C   UNL     1       7.473   4.737  15.672  0.00  0.00    +0.000 A 
ENDBRANCH  15  20
ENDBRANCH   1  15
TORSDOF 4
ENDMDL
MODEL 9
REMARK VINA RESULT:      -7.2      2.537      5.850
REMARK  Name = 
REMARK  6 active torsions:
REMARK  status: ('A' for Active; 'I' for Inactive)
REMARK    1  A    between atoms: C_1  and  C_2
REMARK    2  A    between atoms: C_5  and  O_6
REMARK    3  A    between atoms: O_6  and  C_7
REMARK    4  A    between atoms: C_9  and  C_10
REMARK    5  A    between atoms: C_13  and  C_14
REMARK    6  A    between atoms: N_16  and  O_17
REMARK                            x       y       z     vdW  Elec       q    Type
REMARK                         _______ _______ _______ _____ _____    ______ ____
ROOT
ATOM      1  C   UNL     1       5.365   5.470  16.496  0.00  0.00    +0.000 A 
ATOM      2  N   UNL     1       4.865   4.980  15.326  0.00  0.00    +0.000 NA
ATOM      3  C   UNL     1       5.719   4.423  14.445  0.00  0.00    +0.000 A 
ATOM      4  C   UNL     1       5.141   3.929  13.155  0.00  0.00    +0.000 C 
ATOM      5  C   UNL     1       7.079   4.326  14.695  0.00  0.00    +0.000 A 
ATOM      6  C   UNL     1       7.570   4.789  15.914  0.00  0.00    +0.000 A 
ATOM      7  C   UNL     1       6.705   5.364  16.858  0.00  0.00    +0.000 A 
ENDROOT
BRANCH   7   8
ATOM      8  C   UNL     1       7.282   5.813  18.172  0.00  0.00    +0.000 C 
ATOM      9  N   UNL     1       7.863   7.049  18.310  0.00  0.00    +0.000 N 
ATOM     10  N   UNL     1       7.203   4.995  19.188  0.00  0.00    +0.000 NA
ATOM     11  H   UNL     1       8.330   7.439  17.499  0.00  0.00    +0.000 HD
ATOM     12  H   UNL     1       8.401   7.107  19.170  0.00  0.00    +0.000 HD
BRANCH  10  13
ATOM     13  O   UNL     1       7.779   5.549  20.340  0.00  0.00    +0.000 OA
ATOM     14  H   UNL     1       6.993   5.759  20.881  0.00  0.00    +0.000 HD
ENDBRANCH  10  13
ENDBRANCH   7   8
BRANCH   1  15
ATOM     15  O   UNL     1       4.466   6.079  17.360  0.00  0.00    +0.000 OA
BRANCH  15  20
ATOM     16  C   UNL     1       0.923   3.147  20.708  0.00  0.00    +0.000 C 
ATOM     17  C   UNL     1       1.891   3.873  19.823  0.00  0.00    +0.000 A 
ATOM     18  C   UNL     1       2.813   4.785  20.350  0.00  0.00    +0.000 A 
ATOM     19  C   UNL     1       3.680   5.488  19.505  0.00  0.00    +0.000 A 
ATOM     20  C   UNL     1       3.639   5.282  18.125  0.00  0.00    +0.000 A 
ATOM     21  C   UNL     1       2.715   4.377  17.594  0.00  0.00    +0.000 A 
ATOM     22  C   UNL     1       1.859   3.666  18.439  0.00  0.00    +0.000 A 
ENDBRANCH  15  20
ENDBRANCH   1  15
TORSDOF 4
ENDMDL
