MODEL 1
REMARK VINA RESULT:      -7.4      0.000      0.000
REMARK  Name = 
REMARK  3 active torsions:
REMARK  status: ('A' for Active; 'I' for Inactive)
REMARK    1  A    between atoms: C_1  and  O_2
REMARK    2  A    between atoms: O_2  and  C_3
REMARK    3  A    between atoms: C_10  and  C_11
REMARK                            x       y       z     vdW  Elec       q    Type
REMARK                         _______ _______ _______ _____ _____    ______ ____
ROOT
ATOM      1  C   UNL     1       6.729   5.111  15.177  0.00  0.00    +0.000 A 
ATOM      2  C   UNL     1       6.354   3.780  15.384  0.00  0.00    +0.000 A 
ATOM      3  C   UNL     1       5.239   3.480  16.167  0.00  0.00    +0.000 A 
ATOM      4  C   UNL     1       4.513   4.519  16.737  0.00  0.00    +0.000 A 
ATOM      5  O   UNL     1       3.386   4.167  17.493  0.00  0.00    +0.000 OA
ATOM      6  C   UNL     1       2.571   5.130  18.070  0.00  0.00    +0.000 A 
ATOM      7  O   UNL     1       1.528   4.799  18.627  0.00  0.00    +0.000 OA
ATOM      8  C   UNL     1       3.026   6.547  18.004  0.00  0.00    +0.000 A 
ATOM      9  C   UNL     1       4.095   6.872  17.250  0.00  0.00    +0.000 A 
ATOM     10  C   UNL     1       4.869   5.848  16.563  0.00  0.00    +0.000 A 
ATOM     11  C   UNL     1       5.985   6.142  15.771  0.00  0.00    +0.000 A 
ENDROOT
BRANCH   8  12
ATOM     12  C   UNL     1       2.312   7.593  18.768  0.00  0.00    +0.000 A 
ATOM     13  C   UNL     1       1.775   8.730  18.172  0.00  0.00    +0.000 A 
ATOM     14  C   UNL     1       1.077   9.655  18.946  0.00  0.00    +0.000 A 
ATOM     15  C   UNL     1       0.936   9.409  20.295  0.00  0.00    +0.000 A 
ATOM     16 BR   UNL     1      -0.013  10.637  21.375  0.00  0.00    +0.000 Br
ATOM     17  N   UNL     1       1.452   8.302  20.865  0.00  0.00    +0.000 NA
ATOM     18  N   UNL     1       2.140   7.387  20.095  0.00  0.00    +0.000 NA
ENDBRANCH   8  12
BRANCH   1  20
ATOM     19  C   UNL     1       7.802   5.139  13.058  0.00  0.00    +0.000 C 
ATOM     20  O   UNL     1       7.798   5.525  14.429  0.00  0.00    +0.000 OA
ENDBRANCH   1  20
TORSDOF 2
ENDMDL
MODEL 2
REMARK VINA RESULT:      -7.4      3.634      4.612
REMARK  Name = 
REMARK  3 active torsions:
REMARK  status: ('A' for Active; 'I' for Inactive)
REMARK    1  A    between atoms: C_1  and  O_2
REMARK    2  A    between atoms: O_2  and  C_3
REMARK    3  A    between atoms: C_10  and  C_11
REMARK                            x       y       z     vdW  Elec       q    Type
REMARK                         _______ _______ _______ _____ _____    ______ ____
ROOT
ATOM      1  C   UNL     1       6.662   3.679  12.233  0.00  0.00    +0.000 A 
ATOM      2  C   UNL     1       7.594   4.718  12.310  0.00  0.00    +0.000 A 
ATOM      3  C   UNL     1       7.774   5.407  13.509  0.00  0.00    +0.000 A 
ATOM      4  C   UNL     1       7.016   5.048  14.618  0.00  0.00    +0.000 A 
ATOM      5  O   UNL     1       7.253   5.753  15.806  0.00  0.00    +0.000 OA
ATOM      6  C   UNL     1       6.579   5.445  16.979  0.00  0.00    +0.000 A 
ATOM      7  O   UNL     1       6.889   5.998  18.030  0.00  0.00    +0.000 OA
ATOM      8  C   UNL     1       5.471   4.452  16.896  0.00  0.00    +0.000 A 
ATOM      9  C   UNL     1       5.274   3.764  15.754  0.00  0.00    +0.000 A 
ATOM     10  C   UNL     1       6.074   4.032  14.567  0.00  0.00    +0.000 A 
ATOM     11  C   UNL     1       5.902   3.340  13.363  0.00  0.00    +0.000 A 
ENDROOT
BRANCH   8  12
ATOM     12  C   UNL     1       4.585   4.229  18.059  0.00  0.00    +0.000 A 
ATOM     13  C   UNL     1       3.370   4.888  18.220  0.00  0.00    +0.000 A 
ATOM     14  C   UNL     1       2.564   4.598  19.319  0.00  0.00    +0.000 A 
ATOM     15  C   UNL     1       3.000   3.651  20.222  0.00  0.00    +0.000 A 
ATOM     16 BR   UNL     1       1.929   3.224  21.720  0.00  0.00    +0.000 Br
ATOM     17  N   UNL     1       4.174   3.011  20.055  0.00  0.00    +0.000 NA
ATOM     18  N   UNL     1       4.968   3.299  18.965  0.00  0.00    +0.000 NA
ENDBRANCH   8  12
BRANCH   1  20
ATOM     19  C   UNL     1       5.943   1.601  11.332  0.00  0.00    +0.000 C 
ATOM     20  O   UNL     1       6.401   2.932  11.115  0.00  0.00    +0.000 OA
ENDBRANCH   1  20
TORSDOF 2
ENDMDL
MODEL 3
REMARK VINA RESULT:      -7.2      0.858      1.070
REMARK  Name = 
REMARK  3 active torsions:
REMARK  status: ('A' for Active; 'I' for Inactive)
REMARK    1  A    between atoms: C_1  and  O_2
REMARK    2  A    between atoms: O_2  and  C_3
REMARK    3  A    between atoms: C_10  and  C_11
REMARK                            x       y       z     vdW  Elec       q    Type
REMARK                         _______ _______ _______ _____ _____    ______ ____
ROOT
ATOM      1  C   UNL     1       6.671   5.114  15.197  0.00  0.00    +0.000 A 
ATOM      2  C   UNL     1       6.325   3.771  15.376  0.00  0.00    +0.000 A 
ATOM      3  C   UNL     1       5.225   3.432  16.165  0.00  0.00    +0.000 A 
ATOM      4  C   UNL     1       4.486   4.444  16.767  0.00  0.00    +0.000 A 
ATOM      5  O   UNL     1       3.375   4.053  17.528  0.00  0.00    +0.000 OA
ATOM      6  C   UNL     1       2.548   4.986  18.137  0.00  0.00    +0.000 A 
ATOM      7  O   UNL     1       1.519   4.623  18.697  0.00  0.00    +0.000 OA
ATOM      8  C   UNL     1       2.975   6.413  18.097  0.00  0.00    +0.000 A 
ATOM      9  C   UNL     1       4.029   6.776  17.339  0.00  0.00    +0.000 A 
ATOM     10  C   UNL     1       4.814   5.783  16.619  0.00  0.00    +0.000 A 
ATOM     11  C   UNL     1       5.914   6.117  15.822  0.00  0.00    +0.000 A 
ENDROOT
BRANCH   8  12
ATOM     12  C   UNL     1       2.251   7.427  18.893  0.00  0.00    +0.000 A 
ATOM     13  C   UNL     1       2.021   7.292  20.259  0.00  0.00    +0.000 A 
ATOM     14  C   UNL     1       1.369   8.307  20.957  0.00  0.00    +0.000 A 
ATOM     15  C   UNL     1       0.969   9.430  20.262  0.00  0.00    +0.000 A 
ATOM     16 BR   UNL     1       0.090  10.831  21.176  0.00  0.00    +0.000 Br
ATOM     17  N   UNL     1       1.202   9.557  18.941  0.00  0.00    +0.000 NA
ATOM     18  N   UNL     1       1.850   8.552  18.255  0.00  0.00    +0.000 NA
ENDBRANCH   8  12
BRANCH   1  20
ATOM     19  C   UNL     1       7.760   5.146  13.085  0.00  0.00    +0.000 C 
ATOM     20  O   UNL     1       7.723   5.565  14.446  0.00  0.00    +0.000 OA
ENDBRANCH   1  20
TORSDOF 2
ENDMDL
MODEL 4
REMARK VINA RESULT:      -7.2      1.427      1.491
REMARK  Name = 
REMARK  3 active torsions:
REMARK  status: ('A' for Active; 'I' for Inactive)
REMARK    1  A    between atoms: C_1  and  O_2
REMARK    2  A    between atoms: O_2  and  C_3
REMARK    3  A    between atoms: C_10  and  C_11
REMARK                            x       y       z     vdW  Elec       q    Type
REMARK                         _______ _______ _______ _____ _____    ______ ____
ROOT
ATOM      1  C   UNL     1       6.615   5.446  16.185  0.00  0.00    +0.000 A 
ATOM      2  C   UNL     1       6.726   4.425  17.134  0.00  0.00    +0.000 A 
ATOM      3  C   UNL     1       5.829   4.360  18.200  0.00  0.00    +0.000 A 
ATOM      4  C   UNL     1       4.830   5.321  18.304  0.00  0.00    +0.000 A 
ATOM      5  O   UNL     1       3.937   5.196  19.378  0.00  0.00    +0.000 OA
ATOM      6  C   UNL     1       2.881   6.079  19.549  0.00  0.00    +0.000 A 
ATOM      7  O   UNL     1       2.047   5.879  20.428  0.00  0.00    +0.000 OA
ATOM      8  C   UNL     1       2.824   7.267  18.651  0.00  0.00    +0.000 A 
ATOM      9  C   UNL     1       3.673   7.358  17.607  0.00  0.00    +0.000 A 
ATOM     10  C   UNL     1       4.704   6.354  17.387  0.00  0.00    +0.000 A 
ATOM     11  C   UNL     1       5.603   6.411  16.317  0.00  0.00    +0.000 A 
ENDROOT
BRANCH   8  12
ATOM     12  C   UNL     1       1.847   8.347  18.908  0.00  0.00    +0.000 A 
ATOM     13  C   UNL     1       1.286   9.115  17.892  0.00  0.00    +0.000 A 
ATOM     14  C   UNL     1       0.337  10.088  18.202  0.00  0.00    +0.000 A 
ATOM     15  C   UNL     1      -0.022  10.259  19.523  0.00  0.00    +0.000 A 
ATOM     16 BR   UNL     1      -1.312  11.563  19.979  0.00  0.00    +0.000 Br
ATOM     17  N   UNL     1       0.520   9.506  20.500  0.00  0.00    +0.000 NA
ATOM     18  N   UNL     1       1.456   8.542  20.189  0.00  0.00    +0.000 NA
ENDBRANCH   8  12
BRANCH   1  20
ATOM     19  C   UNL     1       7.112   4.847  13.941  0.00  0.00    +0.000 C 
ATOM     20  O   UNL     1       7.433   5.610  15.100  0.00  0.00    +0.000 OA
ENDBRANCH   1  20
TORSDOF 2
ENDMDL
MODEL 5
REMARK VINA RESULT:      -7.2      2.466      3.855
REMARK  Name = 
REMARK  3 active torsions:
REMARK  status: ('A' for Active; 'I' for Inactive)
REMARK    1  A    between atoms: C_1  and  O_2
REMARK    2  A    between atoms: O_2  and  C_3
REMARK    3  A    between atoms: C_10  and  C_11
REMARK                            x       y       z     vdW  Elec       q    Type
REMARK                         _______ _______ _______ _____ _____    ______ ____
ROOT
ATOM      1  C   UNL     1       6.064   3.298  12.293  0.00  0.00    +0.000 A 
ATOM      2  C   UNL     1       7.303   3.942  12.220  0.00  0.00    +0.000 A 
ATOM      3  C   UNL     1       7.705   4.804  13.240  0.00  0.00    +0.000 A 
ATOM      4  C   UNL     1       6.858   5.013  14.323  0.00  0.00    +0.000 A 
ATOM      5  O   UNL     1       7.319   5.867  15.334  0.00  0.00    +0.000 OA
ATOM      6  C   UNL     1       6.569   6.110  16.475  0.00  0.00    +0.000 A 
ATOM      7  O   UNL     1       7.044   6.768  17.397  0.00  0.00    +0.000 OA
ATOM      8  C   UNL     1       5.181   5.568  16.516  0.00  0.00    +0.000 A 
ATOM      9  C   UNL     1       4.763   4.727  15.549  0.00  0.00    +0.000 A 
ATOM     10  C   UNL     1       5.618   4.401  14.416  0.00  0.00    +0.000 A 
ATOM     11  C   UNL     1       5.223   3.532  13.392  0.00  0.00    +0.000 A 
ENDROOT
BRANCH   8  12
ATOM     12  C   UNL     1       4.262   5.958  17.607  0.00  0.00    +0.000 A 
ATOM     13  C   UNL     1       4.104   5.203  18.766  0.00  0.00    +0.000 A 
ATOM     14  C   UNL     1       3.253   5.652  19.774  0.00  0.00    +0.000 A 
ATOM     15  C   UNL     1       2.588   6.847  19.590  0.00  0.00    +0.000 A 
ATOM     16 BR   UNL     1       1.433   7.491  20.940  0.00  0.00    +0.000 Br
ATOM     17  N   UNL     1       2.753   7.576  18.469  0.00  0.00    +0.000 NA
ATOM     18  N   UNL     1       3.599   7.130  17.475  0.00  0.00    +0.000 NA
ENDBRANCH   8  12
BRANCH   1  20
ATOM     19  C   UNL     1       6.251   1.191  11.211  0.00  0.00    +0.000 C 
ATOM     20  O   UNL     1       5.567   2.432  11.357  0.00  0.00    +0.000 OA
ENDBRANCH   1  20
TORSDOF 2
ENDMDL
MODEL 6
REMARK VINA RESULT:      -7.2      1.416      1.829
REMARK  Name = 
REMARK  3 active torsions:
REMARK  status: ('A' for Active; 'I' for Inactive)
REMARK    1  A    between atoms: C_1  and  O_2
REMARK    2  A    between atoms: O_2  and  C_3
REMARK    3  A    between atoms: C_10  and  C_11
REMARK                            x       y       z     vdW  Elec       q    Type
REMARK                         _______ _______ _______ _____ _____    ______ ____
ROOT
ATOM      1  C   UNL     1       5.566   5.456  15.906  0.00  0.00    +0.000 A 
ATOM      2  C   UNL     1       5.509   4.178  16.470  0.00  0.00    +0.000 A 
ATOM      3  C   UNL     1       4.678   3.931  17.562  0.00  0.00    +0.000 A 
ATOM      4  C   UNL     1       3.913   4.970  18.079  0.00  0.00    +0.000 A 
ATOM      5  O   UNL     1       3.074   4.665  19.161  0.00  0.00    +0.000 OA
ATOM      6  C   UNL     1       2.241   5.621  19.724  0.00  0.00    +0.000 A 
ATOM      7  O   UNL     1       1.433   5.299  20.590  0.00  0.00    +0.000 OA
ATOM      8  C   UNL     1       2.389   7.027  19.253  0.00  0.00    +0.000 A 
ATOM      9  C   UNL     1       3.179   7.299  18.195  0.00  0.00    +0.000 A 
ATOM     10  C   UNL     1       3.960   6.251  17.552  0.00  0.00    +0.000 A 
ATOM     11  C   UNL     1       4.791   6.491  16.452  0.00  0.00    +0.000 A 
ENDROOT
BRANCH   8  12
ATOM     12  C   UNL     1       1.679   8.122  19.949  0.00  0.00    +0.000 A 
ATOM     13  C   UNL     1       1.476   8.135  21.326  0.00  0.00    +0.000 A 
ATOM     14  C   UNL     1       0.836   9.220  21.922  0.00  0.00    +0.000 A 
ATOM     15  C   UNL     1       0.422  10.261  21.118  0.00  0.00    +0.000 A 
ATOM     16 BR   UNL     1      -0.442  11.754  21.893  0.00  0.00    +0.000 Br
ATOM     17  N   UNL     1       0.628  10.245  19.786  0.00  0.00    +0.000 NA
ATOM     18  N   UNL     1       1.265   9.171  19.201  0.00  0.00    +0.000 NA
ENDBRANCH   8  12
BRANCH   1  20
ATOM     19  C   UNL     1       7.008   4.759  14.151  0.00  0.00    +0.000 C 
ATOM     20  O   UNL     1       6.340   5.815  14.835  0.00  0.00    +0.000 OA
ENDBRANCH   1  20
TORSDOF 2
ENDMDL
MODEL 7
REMARK VINA RESULT:      -7.1      3.805      7.201
REMARK  Name = 
REMARK  3 active torsions:
REMARK  status: ('A' for Active; 'I' for Inactive)
REMARK    1  A    between atoms: C_1  and  O_2
REMARK    2  A    between atoms: O_2  and  C_3
REMARK    3  A    between atoms: C_10  and  C_11
REMARK                            x       y       z     vdW  Elec       q    Type
REMARK                         _______ _______ _______ _____ _____    ______ ____
ROOT
ATOM      1  C   UNL     1       0.376  10.454  19.488  0.00  0.00    +0.000 A 
ATOM      2  C   UNL     1       0.110   9.798  20.694  0.00  0.00    +0.000 A 
ATOM      3  C   UNL     1       0.723   8.577  20.975  0.00  0.00    +0.000 A 
ATOM      4  C   UNL     1       1.594   8.025  20.043  0.00  0.00    +0.000 A 
ATOM      5  O   UNL     1       2.203   6.809  20.384  0.00  0.00    +0.000 OA
ATOM      6  C   UNL     1       3.119   6.196  19.541  0.00  0.00    +0.000 A 
ATOM      7  O   UNL     1       3.725   5.196  19.915  0.00  0.00    +0.000 OA
ATOM      8  C   UNL     1       3.307   6.783  18.185  0.00  0.00    +0.000 A 
ATOM      9  C   UNL     1       2.735   7.966  17.882  0.00  0.00    +0.000 A 
ATOM     10  C   UNL     1       1.865   8.644  18.832  0.00  0.00    +0.000 A 
ATOM     11  C   UNL     1       1.252   9.872  18.558  0.00  0.00    +0.000 A 
ENDROOT
BRANCH   8  12
ATOM     12  C   UNL     1       4.111   6.068  17.171  0.00  0.00    +0.000 A 
ATOM     13  C   UNL     1       4.108   4.682  17.045  0.00  0.00    +0.000 A 
ATOM     14  C   UNL     1       4.857   4.075  16.038  0.00  0.00    +0.000 A 
ATOM     15  C   UNL     1       5.584   4.879  15.185  0.00  0.00    +0.000 A 
ATOM     16 BR   UNL     1       6.604   4.092  13.802  0.00  0.00    +0.000 Br
ATOM     17  N   UNL     1       5.577   6.221  15.308  0.00  0.00    +0.000 NA
ATOM     18  N   UNL     1       4.832   6.818  16.304  0.00  0.00    +0.000 NA
ENDBRANCH   8  12
BRANCH   1  20
ATOM     19  C   UNL     1      -1.375  11.598  18.361  0.00  0.00    +0.000 C 
ATOM     20  O   UNL     1      -0.162  11.653  19.105  0.00  0.00    +0.000 OA
ENDBRANCH   1  20
TORSDOF 2
ENDMDL
MODEL 8
REMARK VINA RESULT:      -7.1      2.374      3.559
REMARK  Name = 
REMARK  3 active torsions:
REMARK  status: ('A' for Active; 'I' for Inactive)
REMARK    1  A    between atoms: C_1  and  O_2
REMARK    2  A    between atoms: O_2  and  C_3
REMARK    3  A    between atoms: C_10  and  C_11
REMARK                            x       y       z     vdW  Elec       q    Type
REMARK                         _______ _______ _______ _____ _____    ______ ____
ROOT
ATOM      1  C   UNL     1       6.001   3.482  12.462  0.00  0.00    +0.000 A 
ATOM      2  C   UNL     1       7.297   4.005  12.451  0.00  0.00    +0.000 A 
ATOM      3  C   UNL     1       7.728   4.828  13.492  0.00  0.00    +0.000 A 
ATOM      4  C   UNL     1       6.853   5.119  14.532  0.00  0.00    +0.000 A 
ATOM      5  O   UNL     1       7.342   5.929  15.566  0.00  0.00    +0.000 OA
ATOM      6  C   UNL     1       6.563   6.245  16.670  0.00  0.00    +0.000 A 
ATOM      7  O   UNL     1       7.053   6.857  17.614  0.00  0.00    +0.000 OA
ATOM      8  C   UNL     1       5.130   5.837  16.641  0.00  0.00    +0.000 A 
ATOM      9  C   UNL     1       4.683   5.036  15.653  0.00  0.00    +0.000 A 
ATOM     10  C   UNL     1       5.557   4.627  14.562  0.00  0.00    +0.000 A 
ATOM     11  C   UNL     1       5.132   3.797  13.519  0.00  0.00    +0.000 A 
ENDROOT
BRANCH   8  12
ATOM     12  C   UNL     1       4.200   6.315  17.686  0.00  0.00    +0.000 A 
ATOM     13  C   UNL     1       3.444   7.475  17.551  0.00  0.00    +0.000 A 
ATOM     14  C   UNL     1       2.554   7.845  18.558  0.00  0.00    +0.000 A 
ATOM     15  C   UNL     1       2.448   7.036  19.670  0.00  0.00    +0.000 A 
ATOM     16 BR   UNL     1       1.245   7.500  21.052  0.00  0.00    +0.000 Br
ATOM     17  N   UNL     1       3.177   5.909  19.791  0.00  0.00    +0.000 NA
ATOM     18  N   UNL     1       4.055   5.546  18.790  0.00  0.00    +0.000 NA
ENDBRANCH   8  12
BRANCH   1  20
ATOM     19  C   UNL     1       4.111   2.900  11.145  0.00  0.00    +0.000 C 
ATOM     20  O   UNL     1       5.470   2.664  11.501  0.00  0.00    +0.000 OA
ENDBRANCH   1  20
TORSDOF 2
ENDMDL
MODEL 9
REMARK VINA RESULT:      -7.0      1.270      1.618
REMARK  Name = 
REMARK  3 active torsions:
REMARK  status: ('A' for Active; 'I' for Inactive)
REMARK    1  A    between atoms: C_1  and  O_2
REMARK    2  A    between atoms: O_2  and  C_3
REMARK    3  A    between atoms: C_10  and  C_11
REMARK                            x       y       z     vdW  Elec       q    Type
REMARK                         _______ _______ _______ _____ _____    ______ ____
ROOT
ATOM      1  C   UNL     1       5.624   5.464  16.111  0.00  0.00    +0.000 A 
ATOM      2  C   UNL     1       5.553   4.195  16.693  0.00  0.00    +0.000 A 
ATOM      3  C   UNL     1       4.696   3.966  17.769  0.00  0.00    +0.000 A 
ATOM      4  C   UNL     1       3.921   5.013  18.253  0.00  0.00    +0.000 A 
ATOM      5  O   UNL     1       3.057   4.726  19.319  0.00  0.00    +0.000 OA
ATOM      6  C   UNL     1       2.212   5.690  19.848  0.00  0.00    +0.000 A 
ATOM      7  O   UNL     1       1.384   5.383  20.700  0.00  0.00    +0.000 OA
ATOM      8  C   UNL     1       2.373   7.089  19.359  0.00  0.00    +0.000 A 
ATOM      9  C   UNL     1       3.188   7.344  18.316  0.00  0.00    +0.000 A 
ATOM     10  C   UNL     1       3.981   6.286  17.707  0.00  0.00    +0.000 A 
ATOM     11  C   UNL     1       4.838   6.508  16.623  0.00  0.00    +0.000 A 
ENDROOT
BRANCH   8  12
ATOM     12  C   UNL     1       1.648   8.195  20.022  0.00  0.00    +0.000 A 
ATOM     13  C   UNL     1       1.067   9.245  19.318  0.00  0.00    +0.000 A 
ATOM     14  C   UNL     1       0.361  10.233  20.002  0.00  0.00    +0.000 A 
ATOM     15  C   UNL     1       0.257  10.134  21.374  0.00  0.00    +0.000 A 
ATOM     16 BR   UNL     1      -0.700  11.450  22.336  0.00  0.00    +0.000 Br
ATOM     17  N   UNL     1       0.816   9.110  22.049  0.00  0.00    +0.000 NA
ATOM     18  N   UNL     1       1.511   8.133  21.367  0.00  0.00    +0.000 NA
ENDBRANCH   8  12
BRANCH   1  20
ATOM     19  C   UNL     1       6.754   4.761  14.142  0.00  0.00    +0.000 C 
ATOM     20  O   UNL     1       6.423   5.805  15.053  0.00  0.00    +0.000 OA
ENDBRANCH   1  20
TORSDOF 2
ENDMDL
