MODEL 1
REMARK VINA RESULT:      -7.4      0.000      0.000
REMARK  Name = 
REMARK  6 active torsions:
REMARK  status: ('A' for Active; 'I' for Inactive)
REMARK    1  A    between atoms: C_2  and  C_17
REMARK    2  A    between atoms: N_3  and  O_4
REMARK    3  A    between atoms: O_4  and  C_5
REMARK    4  A    between atoms: C_5  and  C_7
REMARK    5  A    between atoms: C_7  and  O_8
REMARK    6  A    between atoms: O_8  and  C_9
REMARK                            x       y       z     vdW  Elec       q    Type
REMARK                         _______ _______ _______ _____ _____    ______ ____
ROOT
ATOM      1  O   UNL     1       4.970   3.309  19.964  0.00  0.00    +0.000 OA
ENDROOT
BRANCH   1   4
ATOM      2  N   UNL     1       5.652   5.590  18.831  0.00  0.00    +0.000 NA
ATOM      3  C   UNL     1       5.771   4.504  18.128  0.00  0.00    +0.000 C 
ATOM      4  N   UNL     1       5.509   3.274  18.675  0.00  0.00    +0.000 N 
ATOM      5  H   UNL     1       5.394   5.307  19.784  0.00  0.00    +0.000 HD
ATOM      6  H   UNL     1       6.035   2.439  18.425  0.00  0.00    +0.000 HD
BRANCH   3   7
ATOM      7  C   UNL     1       6.160   4.622  16.695  0.00  0.00    +0.000 A 
ATOM      8  C   UNL     1       5.458   3.983  15.671  0.00  0.00    +0.000 A 
ATOM      9  C   UNL     1       5.866   4.161  14.348  0.00  0.00    +0.000 A 
ATOM     10  C   UNL     1       6.956   4.979  14.094  0.00  0.00    +0.000 A 
ATOM     11  N   UNL     1       7.647   5.624  15.057  0.00  0.00    +0.000 NA
ATOM     12  C   UNL     1       7.231   5.435  16.336  0.00  0.00    +0.000 A 
ENDBRANCH   3   7
ENDBRANCH   1   4
BRANCH   1  13
ATOM     13  C   UNL     1       3.941   2.414  20.084  0.00  0.00    +0.000 C 
ATOM     14  O   UNL     1       3.859   1.365  19.454  0.00  0.00    +0.000 OA
BRANCH  13  15
ATOM     15  C   UNL     1       2.861   2.998  20.974  0.00  0.00    +0.000 C 
BRANCH  15  16
ATOM     16  O   UNL     1       1.791   3.533  20.226  0.00  0.00    +0.000 OA
BRANCH  16  17
ATOM     17  C   UNL     1       1.949   4.811  19.750  0.00  0.00    +0.000 A 
ATOM     18  C   UNL     1       1.940   5.965  20.542  0.00  0.00    +0.000 A 
ATOM     19  C   UNL     1       2.114   7.224  19.958  0.00  0.00    +0.000 A 
ATOM     20  C   UNL     1       2.300   7.340  18.582  0.00  0.00    +0.000 A 
ATOM     21 CL   UNL     1       2.519   8.891  17.877  0.00  0.00    +0.000 Cl
ATOM     22  C   UNL     1       2.302   6.206  17.777  0.00  0.00    +0.000 A 
ATOM     23  C   UNL     1       2.132   4.945  18.357  0.00  0.00    +0.000 A 
ATOM     24 CL   UNL     1       2.149   3.565  17.318  0.00  0.00    +0.000 Cl
ENDBRANCH  16  17
ENDBRANCH  15  16
ENDBRANCH  13  15
ENDBRANCH   1  13
TORSDOF 6
ENDMDL
MODEL 2
REMARK VINA RESULT:      -7.1      3.361      6.367
REMARK  Name = 
REMARK  6 active torsions:
REMARK  status: ('A' for Active; 'I' for Inactive)
REMARK    1  A    between atoms: C_2  and  C_17
REMARK    2  A    between atoms: N_3  and  O_4
REMARK    3  A    between atoms: O_4  and  C_5
REMARK    4  A    between atoms: C_5  and  C_7
REMARK    5  A    between atoms: C_7  and  O_8
REMARK    6  A    between atoms: O_8  and  C_9
REMARK                            x       y       z     vdW  Elec       q    Type
REMARK                         _______ _______ _______ _____ _____    ______ ____
ROOT
ATOM      1  O   UNL     1       6.836   5.000  19.058  0.00  0.00    +0.000 OA
ENDROOT
BRANCH   1   4
ATOM      2  N   UNL     1       5.460   2.862  19.756  0.00  0.00    +0.000 NA
ATOM      3  C   UNL     1       4.813   3.851  19.216  0.00  0.00    +0.000 C 
ATOM      4  N   UNL     1       5.448   5.024  18.899  0.00  0.00    +0.000 N 
ATOM      5  H   UNL     1       6.427   3.178  19.903  0.00  0.00    +0.000 HD
ATOM      6  H   UNL     1       4.997   5.933  18.983  0.00  0.00    +0.000 HD
BRANCH   3   7
ATOM      7  C   UNL     1       3.367   3.672  18.908  0.00  0.00    +0.000 A 
ATOM      8  C   UNL     1       2.708   4.421  17.931  0.00  0.00    +0.000 A 
ATOM      9  C   UNL     1       1.357   4.180  17.679  0.00  0.00    +0.000 A 
ATOM     10  C   UNL     1       0.713   3.192  18.407  0.00  0.00    +0.000 A 
ATOM     11  N   UNL     1       1.321   2.438  19.347  0.00  0.00    +0.000 NA
ATOM     12  C   UNL     1       2.635   2.692  19.574  0.00  0.00    +0.000 A 
ENDBRANCH   3   7
ENDBRANCH   1   4
BRANCH   1  13
ATOM     13  C   UNL     1       7.462   4.884  17.846  0.00  0.00    +0.000 C 
ATOM     14  O   UNL     1       8.389   4.114  17.618  0.00  0.00    +0.000 OA
BRANCH  13  15
ATOM     15  C   UNL     1       6.950   5.956  16.904  0.00  0.00    +0.000 C 
BRANCH  15  16
ATOM     16  O   UNL     1       7.551   5.874  15.631  0.00  0.00    +0.000 OA
BRANCH  16  17
ATOM     17  C   UNL     1       6.935   5.063  14.710  0.00  0.00    +0.000 A 
ATOM     18  C   UNL     1       5.787   4.302  14.956  0.00  0.00    +0.000 A 
ATOM     19  C   UNL     1       5.234   3.509  13.945  0.00  0.00    +0.000 A 
ATOM     20  C   UNL     1       5.821   3.473  12.682  0.00  0.00    +0.000 A 
ATOM     21 CL   UNL     1       5.129   2.501  11.446  0.00  0.00    +0.000 Cl
ATOM     22  C   UNL     1       6.968   4.214  12.420  0.00  0.00    +0.000 A 
ATOM     23  C   UNL     1       7.521   5.011  13.427  0.00  0.00    +0.000 A 
ATOM     24 CL   UNL     1       8.942   5.921  13.053  0.00  0.00    +0.000 Cl
ENDBRANCH  16  17
ENDBRANCH  15  16
ENDBRANCH  13  15
ENDBRANCH   1  13
TORSDOF 6
ENDMDL
MODEL 3
REMARK VINA RESULT:      -7.1      1.584      2.160
REMARK  Name = 
REMARK  6 active torsions:
REMARK  status: ('A' for Active; 'I' for Inactive)
REMARK    1  A    between atoms: C_2  and  C_17
REMARK    2  A    between atoms: N_3  and  O_4
REMARK    3  A    between atoms: O_4  and  C_5
REMARK    4  A    between atoms: C_5  and  C_7
REMARK    5  A    between atoms: C_7  and  O_8
REMARK    6  A    between atoms: O_8  and  C_9
REMARK                            x       y       z     vdW  Elec       q    Type
REMARK                         _______ _______ _______ _____ _____    ______ ____
ROOT
ATOM      1  O   UNL     1       3.171   2.987  18.842  0.00  0.00    +0.000 OA
ENDROOT
BRANCH   1   4
ATOM      2  N   UNL     1       5.625   3.949  18.867  0.00  0.00    +0.000 NA
ATOM      3  C   UNL     1       5.072   3.727  17.713  0.00  0.00    +0.000 C 
ATOM      4  N   UNL     1       3.829   3.156  17.621  0.00  0.00    +0.000 N 
ATOM      5  H   UNL     1       4.985   3.585  19.584  0.00  0.00    +0.000 HD
ATOM      6  H   UNL     1       3.575   2.511  16.875  0.00  0.00    +0.000 HD
BRANCH   3   7
ATOM      7  C   UNL     1       5.801   4.143  16.483  0.00  0.00    +0.000 A 
ATOM      8  C   UNL     1       5.448   3.689  15.210  0.00  0.00    +0.000 A 
ATOM      9  C   UNL     1       6.161   4.142  14.099  0.00  0.00    +0.000 A 
ATOM     10  C   UNL     1       7.197   5.041  14.298  0.00  0.00    +0.000 A 
ATOM     11  N   UNL     1       7.556   5.513  15.511  0.00  0.00    +0.000 NA
ATOM     12  C   UNL     1       6.847   5.057  16.575  0.00  0.00    +0.000 A 
ENDBRANCH   3   7
ENDBRANCH   1   4
BRANCH   1  13
ATOM     13  C   UNL     1       2.023   3.734  18.881  0.00  0.00    +0.000 C 
ATOM     14  O   UNL     1       1.153   3.711  18.018  0.00  0.00    +0.000 OA
BRANCH  13  15
ATOM     15  C   UNL     1       2.084   4.697  20.051  0.00  0.00    +0.000 C 
BRANCH  15  16
ATOM     16  O   UNL     1       2.954   5.779  19.801  0.00  0.00    +0.000 OA
BRANCH  16  17
ATOM     17  C   UNL     1       2.372   7.010  19.622  0.00  0.00    +0.000 A 
ATOM     18  C   UNL     1       1.557   7.653  20.562  0.00  0.00    +0.000 A 
ATOM     19  C   UNL     1       1.014   8.910  20.282  0.00  0.00    +0.000 A 
ATOM     20  C   UNL     1       1.282   9.537  19.067  0.00  0.00    +0.000 A 
ATOM     21 CL   UNL     1       0.615  11.085  18.738  0.00  0.00    +0.000 Cl
ATOM     22  C   UNL     1       2.080   8.910  18.116  0.00  0.00    +0.000 A 
ATOM     23  C   UNL     1       2.629   7.654  18.393  0.00  0.00    +0.000 A 
ATOM     24 CL   UNL     1       3.621   6.917  17.185  0.00  0.00    +0.000 Cl
ENDBRANCH  16  17
ENDBRANCH  15  16
ENDBRANCH  13  15
ENDBRANCH   1  13
TORSDOF 6
ENDMDL
MODEL 4
REMARK VINA RESULT:      -6.8      2.645      4.429
REMARK  Name = 
REMARK  6 active torsions:
REMARK  status: ('A' for Active; 'I' for Inactive)
REMARK    1  A    between atoms: C_2  and  C_17
REMARK    2  A    between atoms: N_3  and  O_4
REMARK    3  A    between atoms: O_4  and  C_5
REMARK    4  A    between atoms: C_5  and  C_7
REMARK    5  A    between atoms: C_7  and  O_8
REMARK    6  A    between atoms: O_8  and  C_9
REMARK                            x       y       z     vdW  Elec       q    Type
REMARK                         _______ _______ _______ _____ _____    ______ ____
ROOT
ATOM      1  O   UNL     1       7.375   5.619  16.115  0.00  0.00    +0.000 OA
ENDROOT
BRANCH   1   4
ATOM      2  N   UNL     1       7.955   5.593  13.544  0.00  0.00    +0.000 NA
ATOM      3  C   UNL     1       7.083   4.733  13.978  0.00  0.00    +0.000 C 
ATOM      4  N   UNL     1       6.789   4.636  15.314  0.00  0.00    +0.000 N 
ATOM      5  H   UNL     1       8.341   6.074  14.366  0.00  0.00    +0.000 HD
ATOM      6  H   UNL     1       6.575   3.749  15.766  0.00  0.00    +0.000 HD
BRANCH   3   7
ATOM      7  C   UNL     1       6.375   3.875  12.988  0.00  0.00    +0.000 A 
ATOM      8  C   UNL     1       5.000   3.969  12.760  0.00  0.00    +0.000 A 
ATOM      9  C   UNL     1       4.408   3.151  11.797  0.00  0.00    +0.000 A 
ATOM     10  C   UNL     1       5.213   2.273  11.088  0.00  0.00    +0.000 A 
ATOM     11  N   UNL     1       6.546   2.166  11.271  0.00  0.00    +0.000 NA
ATOM     12  C   UNL     1       7.098   2.973  12.213  0.00  0.00    +0.000 A 
ENDBRANCH   3   7
ENDBRANCH   1   4
BRANCH   1  13
ATOM     13  C   UNL     1       7.362   5.244  17.432  0.00  0.00    +0.000 C 
ATOM     14  O   UNL     1       8.110   4.403  17.919  0.00  0.00    +0.000 OA
BRANCH  13  15
ATOM     15  C   UNL     1       6.186   5.895  18.134  0.00  0.00    +0.000 C 
BRANCH  15  16
ATOM     16  O   UNL     1       4.950   5.407  17.660  0.00  0.00    +0.000 OA
BRANCH  16  17
ATOM     17  C   UNL     1       4.170   4.725  18.560  0.00  0.00    +0.000 A 
ATOM     18  C   UNL     1       4.507   3.496  19.140  0.00  0.00    +0.000 A 
ATOM     19  C   UNL     1       3.642   2.883  20.051  0.00  0.00    +0.000 A 
ATOM     20  C   UNL     1       2.436   3.493  20.394  0.00  0.00    +0.000 A 
ATOM     21 CL   UNL     1       1.385   2.735  21.520  0.00  0.00    +0.000 Cl
ATOM     22  C   UNL     1       2.078   4.709  19.821  0.00  0.00    +0.000 A 
ATOM     23  C   UNL     1       2.943   5.326  18.912  0.00  0.00    +0.000 A 
ATOM     24 CL   UNL     1       2.459   6.840  18.233  0.00  0.00    +0.000 Cl
ENDBRANCH  16  17
ENDBRANCH  15  16
ENDBRANCH  13  15
ENDBRANCH   1  13
TORSDOF 6
ENDMDL
MODEL 5
REMARK VINA RESULT:      -6.7      3.348      6.557
REMARK  Name = 
REMARK  6 active torsions:
REMARK  status: ('A' for Active; 'I' for Inactive)
REMARK    1  A    between atoms: C_2  and  C_17
REMARK    2  A    between atoms: N_3  and  O_4
REMARK    3  A    between atoms: O_4  and  C_5
REMARK    4  A    between atoms: C_5  and  C_7
REMARK    5  A    between atoms: C_7  and  O_8
REMARK    6  A    between atoms: O_8  and  C_9
REMARK                            x       y       z     vdW  Elec       q    Type
REMARK                         _______ _______ _______ _____ _____    ______ ____
ROOT
ATOM      1  O   UNL     1       6.285   5.701  18.932  0.00  0.00    +0.000 OA
ENDROOT
BRANCH   1   4
ATOM      2  N   UNL     1       3.811   6.387  18.333  0.00  0.00    +0.000 NA
ATOM      3  C   UNL     1       4.004   5.222  18.873  0.00  0.00    +0.000 C 
ATOM      4  N   UNL     1       5.268   4.765  19.141  0.00  0.00    +0.000 N 
ATOM      5  H   UNL     1       4.738   6.790  18.144  0.00  0.00    +0.000 HD
ATOM      6  H   UNL     1       5.528   3.785  19.053  0.00  0.00    +0.000 HD
BRANCH   3   7
ATOM      7  C   UNL     1       2.815   4.401  19.237  0.00  0.00    +0.000 A 
ATOM      8  C   UNL     1       2.080   3.684  18.290  0.00  0.00    +0.000 A 
ATOM      9  C   UNL     1       0.992   2.915  18.708  0.00  0.00    +0.000 A 
ATOM     10  C   UNL     1       0.683   2.882  20.058  0.00  0.00    +0.000 A 
ATOM     11  N   UNL     1       1.380   3.550  21.002  0.00  0.00    +0.000 NA
ATOM     12  C   UNL     1       2.433   4.290  20.570  0.00  0.00    +0.000 A 
ENDBRANCH   3   7
ENDBRANCH   1   4
BRANCH   1  13
ATOM     13  C   UNL     1       7.121   5.293  17.927  0.00  0.00    +0.000 C 
ATOM     14  O   UNL     1       7.971   4.417  18.047  0.00  0.00    +0.000 OA
BRANCH  13  15
ATOM     15  C   UNL     1       6.948   6.198  16.723  0.00  0.00    +0.000 C 
BRANCH  15  16
ATOM     16  O   UNL     1       7.686   5.746  15.610  0.00  0.00    +0.000 OA
BRANCH  16  17
ATOM     17  C   UNL     1       7.011   4.983  14.690  0.00  0.00    +0.000 A 
ATOM     18  C   UNL     1       5.885   4.200  14.974  0.00  0.00    +0.000 A 
ATOM     19  C   UNL     1       5.266   3.460  13.961  0.00  0.00    +0.000 A 
ATOM     20  C   UNL     1       5.763   3.499  12.660  0.00  0.00    +0.000 A 
ATOM     21 CL   UNL     1       4.990   2.591  11.423  0.00  0.00    +0.000 Cl
ATOM     22  C   UNL     1       6.886   4.262  12.360  0.00  0.00    +0.000 A 
ATOM     23  C   UNL     1       7.506   5.006  13.369  0.00  0.00    +0.000 A 
ATOM     24 CL   UNL     1       8.894   5.946  12.948  0.00  0.00    +0.000 Cl
ENDBRANCH  16  17
ENDBRANCH  15  16
ENDBRANCH  13  15
ENDBRANCH   1  13
TORSDOF 6
ENDMDL
MODEL 6
REMARK VINA RESULT:      -6.7      2.859      5.198
REMARK  Name = 
REMARK  6 active torsions:
REMARK  status: ('A' for Active; 'I' for Inactive)
REMARK    1  A    between atoms: C_2  and  C_17
REMARK    2  A    between atoms: N_3  and  O_4
REMARK    3  A    between atoms: O_4  and  C_5
REMARK    4  A    between atoms: C_5  and  C_7
REMARK    5  A    between atoms: C_7  and  O_8
REMARK    6  A    between atoms: O_8  and  C_9
REMARK                            x       y       z     vdW  Elec       q    Type
REMARK                         _______ _______ _______ _____ _____    ______ ____
ROOT
ATOM      1  O   UNL     1       2.025   3.671  19.443  0.00  0.00    +0.000 OA
ENDROOT
BRANCH   1   4
ATOM      2  N   UNL     1       2.455   5.720  21.045  0.00  0.00    +0.000 NA
ATOM      3  C   UNL     1       2.171   5.970  19.802  0.00  0.00    +0.000 C 
ATOM      4  N   UNL     1       2.012   4.956  18.894  0.00  0.00    +0.000 N 
ATOM      5  H   UNL     1       2.560   4.702  21.132  0.00  0.00    +0.000 HD
ATOM      6  H   UNL     1       2.304   5.038  17.922  0.00  0.00    +0.000 HD
BRANCH   3   7
ATOM      7  C   UNL     1       1.982   7.388  19.387  0.00  0.00    +0.000 A 
ATOM      8  C   UNL     1       2.380   7.864  18.136  0.00  0.00    +0.000 A 
ATOM      9  C   UNL     1       2.147   9.200  17.806  0.00  0.00    +0.000 A 
ATOM     10  C   UNL     1       1.515  10.012  18.734  0.00  0.00    +0.000 A 
ATOM     11  N   UNL     1       1.103   9.582  19.946  0.00  0.00    +0.000 NA
ATOM     12  C   UNL     1       1.341   8.279  20.243  0.00  0.00    +0.000 A 
ENDBRANCH   3   7
ENDBRANCH   1   4
BRANCH   1  13
ATOM     13  C   UNL     1       2.165   2.725  18.462  0.00  0.00    +0.000 C 
ATOM     14  O   UNL     1       1.231   2.128  17.939  0.00  0.00    +0.000 OA
BRANCH  13  15
ATOM     15  C   UNL     1       3.636   2.420  18.257  0.00  0.00    +0.000 C 
BRANCH  15  16
ATOM     16  O   UNL     1       4.195   3.187  17.213  0.00  0.00    +0.000 OA
BRANCH  16  17
ATOM     17  C   UNL     1       5.110   4.145  17.573  0.00  0.00    +0.000 A 
ATOM     18  C   UNL     1       5.473   4.449  18.890  0.00  0.00    +0.000 A 
ATOM     19  C   UNL     1       6.421   5.442  19.151  0.00  0.00    +0.000 A 
ATOM     20  C   UNL     1       7.017   6.137  18.100  0.00  0.00    +0.000 A 
ATOM     21 CL   UNL     1       8.186   7.350  18.431  0.00  0.00    +0.000 Cl
ATOM     22  C   UNL     1       6.664   5.857  16.784  0.00  0.00    +0.000 A 
ATOM     23  C   UNL     1       5.718   4.861  16.519  0.00  0.00    +0.000 A 
ATOM     24 CL   UNL     1       5.316   4.542  14.869  0.00  0.00    +0.000 Cl
ENDBRANCH  16  17
ENDBRANCH  15  16
ENDBRANCH  13  15
ENDBRANCH   1  13
TORSDOF 6
ENDMDL
MODEL 7
REMARK VINA RESULT:      -6.7      3.354      6.718
REMARK  Name = 
REMARK  6 active torsions:
REMARK  status: ('A' for Active; 'I' for Inactive)
REMARK    1  A    between atoms: C_2  and  C_17
REMARK    2  A    between atoms: N_3  and  O_4
REMARK    3  A    between atoms: O_4  and  C_5
REMARK    4  A    between atoms: C_5  and  C_7
REMARK    5  A    between atoms: C_7  and  O_8
REMARK    6  A    between atoms: O_8  and  C_9
REMARK                            x       y       z     vdW  Elec       q    Type
REMARK                         _______ _______ _______ _____ _____    ______ ____
ROOT
ATOM      1  O   UNL     1       6.534   5.715  18.932  0.00  0.00    +0.000 OA
ENDROOT
BRANCH   1   4
ATOM      2  N   UNL     1       5.571   3.265  19.070  0.00  0.00    +0.000 NA
ATOM      3  C   UNL     1       4.785   4.246  19.398  0.00  0.00    +0.000 C 
ATOM      4  N   UNL     1       5.238   5.539  19.425  0.00  0.00    +0.000 N 
ATOM      5  H   UNL     1       6.503   3.666  18.909  0.00  0.00    +0.000 HD
ATOM      6  H   UNL     1       4.917   6.220  20.110  0.00  0.00    +0.000 HD
BRANCH   3   7
ATOM      7  C   UNL     1       3.359   3.943  19.707  0.00  0.00    +0.000 A 
ATOM      8  C   UNL     1       2.453   4.926  20.111  0.00  0.00    +0.000 A 
ATOM      9  C   UNL     1       1.126   4.572  20.359  0.00  0.00    +0.000 A 
ATOM     10  C   UNL     1       0.749   3.250  20.186  0.00  0.00    +0.000 A 
ATOM     11  N   UNL     1       1.593   2.277  19.783  0.00  0.00    +0.000 NA
ATOM     12  C   UNL     1       2.878   2.647  19.548  0.00  0.00    +0.000 A 
ENDBRANCH   3   7
ENDBRANCH   1   4
BRANCH   1  13
ATOM     13  C   UNL     1       6.506   6.239  17.666  0.00  0.00    +0.000 C 
ATOM     14  O   UNL     1       5.735   7.119  17.300  0.00  0.00    +0.000 OA
BRANCH  13  15
ATOM     15  C   UNL     1       7.441   5.452  16.769  0.00  0.00    +0.000 C 
BRANCH  15  16
ATOM     16  O   UNL     1       7.392   5.898  15.432  0.00  0.00    +0.000 OA
BRANCH  16  17
ATOM     17  C   UNL     1       6.833   5.041  14.517  0.00  0.00    +0.000 A 
ATOM     18  C   UNL     1       5.704   4.246  14.750  0.00  0.00    +0.000 A 
ATOM     19  C   UNL     1       5.212   3.407  13.747  0.00  0.00    +0.000 A 
ATOM     20  C   UNL     1       5.838   3.356  12.503  0.00  0.00    +0.000 A 
ATOM     21 CL   UNL     1       5.219   2.326  11.276  0.00  0.00    +0.000 Cl
ATOM     22  C   UNL     1       6.966   4.129  12.254  0.00  0.00    +0.000 A 
ATOM     23  C   UNL     1       7.461   4.973  13.254  0.00  0.00    +0.000 A 
ATOM     24 CL   UNL     1       8.861   5.922  12.897  0.00  0.00    +0.000 Cl
ENDBRANCH  16  17
ENDBRANCH  15  16
ENDBRANCH  13  15
ENDBRANCH   1  13
TORSDOF 6
ENDMDL
MODEL 8
REMARK VINA RESULT:      -6.6      1.825      2.368
REMARK  Name = 
REMARK  6 active torsions:
REMARK  status: ('A' for Active; 'I' for Inactive)
REMARK    1  A    between atoms: C_2  and  C_17
REMARK    2  A    between atoms: N_3  and  O_4
REMARK    3  A    between atoms: O_4  and  C_5
REMARK    4  A    between atoms: C_5  and  C_7
REMARK    5  A    between atoms: C_7  and  O_8
REMARK    6  A    between atoms: O_8  and  C_9
REMARK                            x       y       z     vdW  Elec       q    Type
REMARK                         _______ _______ _______ _____ _____    ______ ____
ROOT
ATOM      1  O   UNL     1       3.787   3.204  18.449  0.00  0.00    +0.000 OA
ENDROOT
BRANCH   1   4
ATOM      2  N   UNL     1       5.700   4.973  18.043  0.00  0.00    +0.000 NA
ATOM      3  C   UNL     1       5.414   4.155  17.075  0.00  0.00    +0.000 C 
ATOM      4  N   UNL     1       4.486   3.159  17.239  0.00  0.00    +0.000 N 
ATOM      5  H   UNL     1       5.153   4.676  18.861  0.00  0.00    +0.000 HD
ATOM      6  H   UNL     1       4.578   2.245  16.801  0.00  0.00    +0.000 HD
BRANCH   3   7
ATOM      7  C   UNL     1       6.088   4.345  15.760  0.00  0.00    +0.000 A 
ATOM      8  C   UNL     1       5.670   3.690  14.600  0.00  0.00    +0.000 A 
ATOM      9  C   UNL     1       6.335   3.937  13.398  0.00  0.00    +0.000 A 
ATOM     10  C   UNL     1       7.388   4.837  13.395  0.00  0.00    +0.000 A 
ATOM     11  N   UNL     1       7.808   5.500  14.493  0.00  0.00    +0.000 NA
ATOM     12  C   UNL     1       7.146   5.242  15.650  0.00  0.00    +0.000 A 
ENDBRANCH   3   7
ENDBRANCH   1   4
BRANCH   1  13
ATOM     13  C   UNL     1       2.436   3.142  18.232  0.00  0.00    +0.000 C 
ATOM     14  O   UNL     1       1.792   2.101  18.175  0.00  0.00    +0.000 OA
BRANCH  13  15
ATOM     15  C   UNL     1       1.910   4.527  17.909  0.00  0.00    +0.000 C 
BRANCH  15  16
ATOM     16  O   UNL     1       2.865   5.532  18.175  0.00  0.00    +0.000 OA
BRANCH  16  17
ATOM     17  C   UNL     1       2.385   6.731  18.638  0.00  0.00    +0.000 A 
ATOM     18  C   UNL     1       2.223   7.882  17.858  0.00  0.00    +0.000 A 
ATOM     19  C   UNL     1       1.722   9.057  18.428  0.00  0.00    +0.000 A 
ATOM     20  C   UNL     1       1.374   9.090  19.777  0.00  0.00    +0.000 A 
ATOM     21 CL   UNL     1       0.753  10.537  20.464  0.00  0.00    +0.000 Cl
ATOM     22  C   UNL     1       1.537   7.961  20.571  0.00  0.00    +0.000 A 
ATOM     23  C   UNL     1       2.035   6.783  20.005  0.00  0.00    +0.000 A 
ATOM     24 CL   UNL     1       2.212   5.402  21.028  0.00  0.00    +0.000 Cl
ENDBRANCH  16  17
ENDBRANCH  15  16
ENDBRANCH  13  15
ENDBRANCH   1  13
TORSDOF 6
ENDMDL
MODEL 9
REMARK VINA RESULT:      -6.6      4.554      5.979
REMARK  Name = 
REMARK  6 active torsions:
REMARK  status: ('A' for Active; 'I' for Inactive)
REMARK    1  A    between atoms: C_2  and  C_17
REMARK    2  A    between atoms: N_3  and  O_4
REMARK    3  A    between atoms: O_4  and  C_5
REMARK    4  A    between atoms: C_5  and  C_7
REMARK    5  A    between atoms: C_7  and  O_8
REMARK    6  A    between atoms: O_8  and  C_9
REMARK                            x       y       z     vdW  Elec       q    Type
REMARK                         _______ _______ _______ _____ _____    ______ ____
ROOT
ATOM      1  O   UNL     1       7.853   6.912  18.142  0.00  0.00    +0.000 OA
ENDROOT
BRANCH   1   4
ATOM      2  N   UNL     1       7.622   9.456  17.491  0.00  0.00    +0.000 NA
ATOM      3  C   UNL     1       8.474   9.142  18.420  0.00  0.00    +0.000 C 
ATOM      4  N   UNL     1       8.593   7.851  18.865  0.00  0.00    +0.000 N 
ATOM      5  H   UNL     1       7.104   8.601  17.254  0.00  0.00    +0.000 HD
ATOM      6  H   UNL     1       8.793   7.621  19.836  0.00  0.00    +0.000 HD
BRANCH   3   7
ATOM      7  C   UNL     1       9.355  10.210  18.969  0.00  0.00    +0.000 A 
ATOM      8  C   UNL     1      10.265  10.914  18.178  0.00  0.00    +0.000 A 
ATOM      9  C   UNL     1      11.040  11.921  18.756  0.00  0.00    +0.000 A 
ATOM     10  C   UNL     1      10.870  12.196  20.104  0.00  0.00    +0.000 A 
ATOM     11  N   UNL     1       9.990  11.547  20.895  0.00  0.00    +0.000 NA
ATOM     12  C   UNL     1       9.249  10.573  20.309  0.00  0.00    +0.000 A 
ENDBRANCH   3   7
ENDBRANCH   1   4
BRANCH   1  13
ATOM     13  C   UNL     1       7.648   5.779  18.885  0.00  0.00    +0.000 C 
ATOM     14  O   UNL     1       7.881   5.687  20.085  0.00  0.00    +0.000 OA
BRANCH  13  15
ATOM     15  C   UNL     1       7.257   4.635  17.969  0.00  0.00    +0.000 C 
BRANCH  15  16
ATOM     16  O   UNL     1       6.017   4.863  17.336  0.00  0.00    +0.000 OA
BRANCH  16  17
ATOM     17  C   UNL     1       4.892   4.658  18.094  0.00  0.00    +0.000 A 
ATOM     18  C   UNL     1       4.636   3.509  18.852  0.00  0.00    +0.000 A 
ATOM     19  C   UNL     1       3.456   3.401  19.594  0.00  0.00    +0.000 A 
ATOM     20  C   UNL     1       2.526   4.438  19.591  0.00  0.00    +0.000 A 
ATOM     21 CL   UNL     1       1.084   4.297  20.513  0.00  0.00    +0.000 Cl
ATOM     22  C   UNL     1       2.757   5.584  18.837  0.00  0.00    +0.000 A 
ATOM     23  C   UNL     1       3.937   5.698  18.095  0.00  0.00    +0.000 A 
ATOM     24 CL   UNL     1       4.184   7.143  17.180  0.00  0.00    +0.000 Cl
ENDBRANCH  16  17
ENDBRANCH  15  16
ENDBRANCH  13  15
ENDBRANCH   1  13
TORSDOF 6
ENDMDL
