MODEL 1
REMARK VINA RESULT:      -7.1      0.000      0.000
REMARK  Name = 
REMARK  9 active torsions:
REMARK  status: ('A' for Active; 'I' for Inactive)
REMARK    1  A    between atoms: C_1  and  C_2
REMARK    2  A    between atoms: C_2  and  O_3
REMARK    3  A    between atoms: O_3  and  C_4
REMARK    4  A    between atoms: C_4  and  C_6
REMARK    5  A    between atoms: C_6  and  C_7
REMARK    6  A    between atoms: C_7  and  N_8
REMARK    7  A    between atoms: N_8  and  C_9
REMARK    8  A    between atoms: C_9  and  C_10
REMARK    9  A    between atoms: C_9  and  C_11
REMARK                            x       y       z     vdW  Elec       q    Type
REMARK                         _______ _______ _______ _____ _____    ______ ____
ROOT
ATOM      1  C   UNL     1       5.603   5.811  18.053  0.00  0.00    +0.000 C 
ATOM      2  C   UNL     1       6.418   6.974  17.469  0.00  0.00    +0.000 C 
ENDROOT
BRANCH   1   3
ATOM      3  C   UNL     1       4.139   5.880  17.504  0.00  0.00    +0.000 C 
ATOM      4  C   UNL     1       3.194   6.770  18.314  0.00  0.00    +0.000 C 
ATOM      5  O   UNL     1       2.713   6.145  19.503  0.00  0.00    +0.000 OA
ATOM      6  C   UNL     1       2.247   4.887  19.227  0.00  0.00    +0.000 A 
ATOM      7  C   UNL     1       1.313   4.352  20.114  0.00  0.00    +0.000 A 
ATOM      8  C   UNL     1       0.802   3.071  19.902  0.00  0.00    +0.000 A 
ATOM      9  C   UNL     1       1.234   2.322  18.808  0.00  0.00    +0.000 A 
ATOM     10  C   UNL     1       2.174   2.856  17.925  0.00  0.00    +0.000 A 
ATOM     11  C   UNL     1       2.684   4.138  18.134  0.00  0.00    +0.000 A 
ATOM     12  O   UNL     1       3.598   4.582  17.221  0.00  0.00    +0.000 OA
ENDBRANCH   1   3
BRANCH   1  13
ATOM     13  N   UNL     1       6.288   4.522  17.841  0.00  0.00    +0.000 NA
ATOM     14  H   UNL     1       6.867   4.302  18.656  0.00  0.00    +0.000 HD
BRANCH  13  15
ATOM     15  C   UNL     1       7.078   4.421  16.611  0.00  0.00    +0.000 C 
BRANCH  15  16
ATOM     16  C   UNL     1       6.438   3.649  15.460  0.00  0.00    +0.000 C 
BRANCH  16  17
ATOM     17  C   UNL     1       6.431   4.445  14.167  0.00  0.00    +0.000 C 
ATOM     18  O   UNL     1       7.261   5.299  13.881  0.00  0.00    +0.000 OA
BRANCH  17  19
ATOM     19  O   UNL     1       5.357   4.084  13.412  0.00  0.00    +0.000 OA
BRANCH  19  21
ATOM     20  C   UNL     1       4.259   3.196  11.333  0.00  0.00    +0.000 C 
ATOM     21  C   UNL     1       5.513   3.344  12.181  0.00  0.00    +0.000 C 
ENDBRANCH  19  21
ENDBRANCH  17  19
ENDBRANCH  16  17
ENDBRANCH  15  16
ENDBRANCH  13  15
ENDBRANCH   1  13
TORSDOF 7
ENDMDL
MODEL 2
REMARK VINA RESULT:      -7.0      1.076      1.122
REMARK  Name = 
REMARK  9 active torsions:
REMARK  status: ('A' for Active; 'I' for Inactive)
REMARK    1  A    between atoms: C_1  and  C_2
REMARK    2  A    between atoms: C_2  and  O_3
REMARK    3  A    between atoms: O_3  and  C_4
REMARK    4  A    between atoms: C_4  and  C_6
REMARK    5  A    between atoms: C_6  and  C_7
REMARK    6  A    between atoms: C_7  and  N_8
REMARK    7  A    between atoms: N_8  and  C_9
REMARK    8  A    between atoms: C_9  and  C_10
REMARK    9  A    between atoms: C_9  and  C_11
REMARK                            x       y       z     vdW  Elec       q    Type
REMARK                         _______ _______ _______ _____ _____    ______ ____
ROOT
ATOM      1  C   UNL     1       6.037   4.492  18.153  0.00  0.00    +0.000 C 
ATOM      2  C   UNL     1       6.632   5.462  19.184  0.00  0.00    +0.000 C 
ENDROOT
BRANCH   1   3
ATOM      3  C   UNL     1       4.645   5.030  17.683  0.00  0.00    +0.000 C 
ATOM      4  C   UNL     1       4.039   6.108  18.585  0.00  0.00    +0.000 C 
ATOM      5  O   UNL     1       3.431   5.579  19.764  0.00  0.00    +0.000 OA
ATOM      6  C   UNL     1       2.600   4.538  19.447  0.00  0.00    +0.000 A 
ATOM      7  C   UNL     1       1.577   4.251  20.352  0.00  0.00    +0.000 A 
ATOM      8  C   UNL     1       0.698   3.197  20.100  0.00  0.00    +0.000 A 
ATOM      9  C   UNL     1       0.848   2.425  18.948  0.00  0.00    +0.000 A 
ATOM     10  C   UNL     1       1.875   2.710  18.048  0.00  0.00    +0.000 A 
ATOM     11  C   UNL     1       2.754   3.765  18.296  0.00  0.00    +0.000 A 
ATOM     12  O   UNL     1       3.729   3.974  17.362  0.00  0.00    +0.000 OA
ENDBRANCH   1   3
BRANCH   1  13
ATOM     13  N   UNL     1       6.996   4.215  17.068  0.00  0.00    +0.000 NA
ATOM     14  H   UNL     1       7.950   4.239  17.437  0.00  0.00    +0.000 HD
BRANCH  13  15
ATOM     15  C   UNL     1       6.885   5.080  15.889  0.00  0.00    +0.000 C 
BRANCH  15  16
ATOM     16  C   UNL     1       6.435   4.403  14.597  0.00  0.00    +0.000 C 
BRANCH  16  17
ATOM     17  C   UNL     1       7.307   4.786  13.414  0.00  0.00    +0.000 C 
ATOM     18  O   UNL     1       8.152   5.672  13.442  0.00  0.00    +0.000 OA
BRANCH  17  19
ATOM     19  O   UNL     1       6.980   4.022  12.337  0.00  0.00    +0.000 OA
BRANCH  19  21
ATOM     20  C   UNL     1       5.729   2.033  11.444  0.00  0.00    +0.000 C 
ATOM     21  C   UNL     1       5.722   3.315  12.264  0.00  0.00    +0.000 C 
ENDBRANCH  19  21
ENDBRANCH  17  19
ENDBRANCH  16  17
ENDBRANCH  15  16
ENDBRANCH  13  15
ENDBRANCH   1  13
TORSDOF 7
ENDMDL
MODEL 3
REMARK VINA RESULT:      -7.0      1.794      2.341
REMARK  Name = 
REMARK  9 active torsions:
REMARK  status: ('A' for Active; 'I' for Inactive)
REMARK    1  A    between atoms: C_1  and  C_2
REMARK    2  A    between atoms: C_2  and  O_3
REMARK    3  A    between atoms: O_3  and  C_4
REMARK    4  A    between atoms: C_4  and  C_6
REMARK    5  A    between atoms: C_6  and  C_7
REMARK    6  A    between atoms: C_7  and  N_8
REMARK    7  A    between atoms: N_8  and  C_9
REMARK    8  A    between atoms: C_9  and  C_10
REMARK    9  A    between atoms: C_9  and  C_11
REMARK                            x       y       z     vdW  Elec       q    Type
REMARK                         _______ _______ _______ _____ _____    ______ ____
ROOT
ATOM      1  C   UNL     1       6.109   4.392  16.611  0.00  0.00    +0.000 C 
ATOM      2  C   UNL     1       7.552   4.586  17.100  0.00  0.00    +0.000 C 
ENDROOT
BRANCH   1   3
ATOM      3  C   UNL     1       5.134   5.166  17.559  0.00  0.00    +0.000 C 
ATOM      4  C   UNL     1       5.458   5.040  19.049  0.00  0.00    +0.000 C 
ATOM      5  O   UNL     1       5.021   3.806  19.617  0.00  0.00    +0.000 OA
ATOM      6  C   UNL     1       3.720   3.555  19.272  0.00  0.00    +0.000 A 
ATOM      7  C   UNL     1       2.998   2.707  20.113  0.00  0.00    +0.000 A 
ATOM      8  C   UNL     1       1.670   2.397  19.819  0.00  0.00    +0.000 A 
ATOM      9  C   UNL     1       1.068   2.929  18.678  0.00  0.00    +0.000 A 
ATOM     10  C   UNL     1       1.793   3.771  17.835  0.00  0.00    +0.000 A 
ATOM     11  C   UNL     1       3.121   4.083  18.129  0.00  0.00    +0.000 A 
ATOM     12  O   UNL     1       3.756   4.916  17.251  0.00  0.00    +0.000 OA
ENDBRANCH   1   3
BRANCH   1  13
ATOM     13  N   UNL     1       5.983   4.726  15.180  0.00  0.00    +0.000 NA
ATOM     14  H   UNL     1       5.055   5.115  14.998  0.00  0.00    +0.000 HD
BRANCH  13  15
ATOM     15  C   UNL     1       6.268   3.630  14.248  0.00  0.00    +0.000 C 
BRANCH  15  16
ATOM     16  C   UNL     1       6.271   3.991  12.765  0.00  0.00    +0.000 C 
BRANCH  16  17
ATOM     17  C   UNL     1       5.473   3.003  11.932  0.00  0.00    +0.000 C 
ATOM     18  O   UNL     1       5.937   1.974  11.455  0.00  0.00    +0.000 OA
BRANCH  17  19
ATOM     19  O   UNL     1       4.198   3.453  11.782  0.00  0.00    +0.000 OA
BRANCH  19  21
ATOM     20  C   UNL     1       3.016   4.210   9.697  0.00  0.00    +0.000 C 
ATOM     21  C   UNL     1       3.392   3.079  10.642  0.00  0.00    +0.000 C 
ENDBRANCH  19  21
ENDBRANCH  17  19
ENDBRANCH  16  17
ENDBRANCH  15  16
ENDBRANCH  13  15
ENDBRANCH   1  13
TORSDOF 7
ENDMDL
MODEL 4
REMARK VINA RESULT:      -6.9      1.292      1.996
REMARK  Name = 
REMARK  9 active torsions:
REMARK  status: ('A' for Active; 'I' for Inactive)
REMARK    1  A    between atoms: C_1  and  C_2
REMARK    2  A    between atoms: C_2  and  O_3
REMARK    3  A    between atoms: O_3  and  C_4
REMARK    4  A    between atoms: C_4  and  C_6
REMARK    5  A    between atoms: C_6  and  C_7
REMARK    6  A    between atoms: C_7  and  N_8
REMARK    7  A    between atoms: N_8  and  C_9
REMARK    8  A    between atoms: C_9  and  C_10
REMARK    9  A    between atoms: C_9  and  C_11
REMARK                            x       y       z     vdW  Elec       q    Type
REMARK                         _______ _______ _______ _____ _____    ______ ____
ROOT
ATOM      1  C   UNL     1       5.153   5.840  17.413  0.00  0.00    +0.000 C 
ATOM      2  C   UNL     1       4.275   7.064  17.116  0.00  0.00    +0.000 C 
ENDROOT
BRANCH   1   3
ATOM      3  C   UNL     1       5.066   5.499  18.937  0.00  0.00    +0.000 C 
ATOM      4  C   UNL     1       5.515   4.083  19.301  0.00  0.00    +0.000 C 
ATOM      5  O   UNL     1       4.525   3.091  19.028  0.00  0.00    +0.000 OA
ATOM      6  C   UNL     1       3.312   3.474  19.535  0.00  0.00    +0.000 A 
ATOM      7  C   UNL     1       2.394   2.460  19.808  0.00  0.00    +0.000 A 
ATOM      8  C   UNL     1       1.134   2.777  20.317  0.00  0.00    +0.000 A 
ATOM      9  C   UNL     1       0.789   4.110  20.541  0.00  0.00    +0.000 A 
ATOM     10  C   UNL     1       1.706   5.123  20.260  0.00  0.00    +0.000 A 
ATOM     11  C   UNL     1       2.967   4.808  19.754  0.00  0.00    +0.000 A 
ATOM     12  O   UNL     1       3.802   5.862  19.509  0.00  0.00    +0.000 OA
ENDBRANCH   1   3
BRANCH   1  13
ATOM     13  N   UNL     1       4.832   4.722  16.505  0.00  0.00    +0.000 NA
ATOM     14  H   UNL     1       4.124   4.122  16.936  0.00  0.00    +0.000 HD
BRANCH  13  15
ATOM     15  C   UNL     1       5.976   3.922  16.058  0.00  0.00    +0.000 C 
BRANCH  15  16
ATOM     16  C   UNL     1       7.136   4.694  15.436  0.00  0.00    +0.000 C 
BRANCH  16  17
ATOM     17  C   UNL     1       7.001   4.816  13.928  0.00  0.00    +0.000 C 
ATOM     18  O   UNL     1       7.767   5.458  13.219  0.00  0.00    +0.000 OA
BRANCH  17  19
ATOM     19  O   UNL     1       5.899   4.137  13.509  0.00  0.00    +0.000 OA
BRANCH  19  21
ATOM     20  C   UNL     1       4.548   3.183  11.616  0.00  0.00    +0.000 C 
ATOM     21  C   UNL     1       5.902   3.373  12.282  0.00  0.00    +0.000 C 
ENDBRANCH  19  21
ENDBRANCH  17  19
ENDBRANCH  16  17
ENDBRANCH  15  16
ENDBRANCH  13  15
ENDBRANCH   1  13
TORSDOF 7
ENDMDL
MODEL 5
REMARK VINA RESULT:      -6.8      2.233      3.296
REMARK  Name = 
REMARK  9 active torsions:
REMARK  status: ('A' for Active; 'I' for Inactive)
REMARK    1  A    between atoms: C_1  and  C_2
REMARK    2  A    between atoms: C_2  and  O_3
REMARK    3  A    between atoms: O_3  and  C_4
REMARK    4  A    between atoms: C_4  and  C_6
REMARK    5  A    between atoms: C_6  and  C_7
REMARK    6  A    between atoms: C_7  and  N_8
REMARK    7  A    between atoms: N_8  and  C_9
REMARK    8  A    between atoms: C_9  and  C_10
REMARK    9  A    between atoms: C_9  and  C_11
REMARK                            x       y       z     vdW  Elec       q    Type
REMARK                         _______ _______ _______ _____ _____    ______ ____
ROOT
ATOM      1  C   UNL     1       4.250   6.441  17.683  0.00  0.00    +0.000 C 
ATOM      2  C   UNL     1       4.442   7.126  16.321  0.00  0.00    +0.000 C 
ENDROOT
BRANCH   1   3
ATOM      3  C   UNL     1       2.733   6.466  18.063  0.00  0.00    +0.000 C 
ATOM      4  C   UNL     1       2.438   6.960  19.481  0.00  0.00    +0.000 C 
ATOM      5  O   UNL     1       2.667   5.967  20.481  0.00  0.00    +0.000 OA
ATOM      6  C   UNL     1       2.068   4.787  20.130  0.00  0.00    +0.000 A 
ATOM      7  C   UNL     1       1.757   3.906  21.166  0.00  0.00    +0.000 A 
ATOM      8  C   UNL     1       1.154   2.680  20.882  0.00  0.00    +0.000 A 
ATOM      9  C   UNL     1       0.872   2.332  19.561  0.00  0.00    +0.000 A 
ATOM     10  C   UNL     1       1.189   3.212  18.526  0.00  0.00    +0.000 A 
ATOM     11  C   UNL     1       1.790   4.440  18.808  0.00  0.00    +0.000 A 
ATOM     12  O   UNL     1       2.065   5.240  17.735  0.00  0.00    +0.000 OA
ENDBRANCH   1   3
BRANCH   1  13
ATOM     13  N   UNL     1       4.875   5.105  17.699  0.00  0.00    +0.000 NA
ATOM     14  H   UNL     1       5.729   5.131  18.262  0.00  0.00    +0.000 HD
BRANCH  13  15
ATOM     15  C   UNL     1       5.149   4.520  16.383  0.00  0.00    +0.000 C 
BRANCH  15  16
ATOM     16  C   UNL     1       6.614   4.230  16.067  0.00  0.00    +0.000 C 
BRANCH  16  17
ATOM     17  C   UNL     1       7.552   4.801  17.117  0.00  0.00    +0.000 C 
ATOM     18  O   UNL     1       8.083   4.136  17.998  0.00  0.00    +0.000 OA
BRANCH  17  19
ATOM     19  O   UNL     1       7.678   6.144  16.938  0.00  0.00    +0.000 OA
BRANCH  19  21
ATOM     20  C   UNL     1       7.914   8.524  17.711  0.00  0.00    +0.000 C 
ATOM     21  C   UNL     1       7.813   7.046  18.059  0.00  0.00    +0.000 C 
ENDBRANCH  19  21
ENDBRANCH  17  19
ENDBRANCH  16  17
ENDBRANCH  15  16
ENDBRANCH  13  15
ENDBRANCH   1  13
TORSDOF 7
ENDMDL
MODEL 6
REMARK VINA RESULT:      -6.8      1.912      3.633
REMARK  Name = 
REMARK  9 active torsions:
REMARK  status: ('A' for Active; 'I' for Inactive)
REMARK    1  A    between atoms: C_1  and  C_2
REMARK    2  A    between atoms: C_2  and  O_3
REMARK    3  A    between atoms: O_3  and  C_4
REMARK    4  A    between atoms: C_4  and  C_6
REMARK    5  A    between atoms: C_6  and  C_7
REMARK    6  A    between atoms: C_7  and  N_8
REMARK    7  A    between atoms: N_8  and  C_9
REMARK    8  A    between atoms: C_9  and  C_10
REMARK    9  A    between atoms: C_9  and  C_11
REMARK                            x       y       z     vdW  Elec       q    Type
REMARK                         _______ _______ _______ _____ _____    ______ ____
ROOT
ATOM      1  C   UNL     1       3.933   2.411  18.955  0.00  0.00    +0.000 C 
ATOM      2  C   UNL     1       4.286   2.343  20.448  0.00  0.00    +0.000 C 
ENDROOT
BRANCH   1   3
ATOM      3  C   UNL     1       2.487   2.985  18.792  0.00  0.00    +0.000 C 
ATOM      4  C   UNL     1       2.198   3.610  17.425  0.00  0.00    +0.000 C 
ATOM      5  O   UNL     1       2.731   4.927  17.284  0.00  0.00    +0.000 OA
ATOM      6  C   UNL     1       2.398   5.696  18.367  0.00  0.00    +0.000 A 
ATOM      7  C   UNL     1       2.384   7.078  18.178  0.00  0.00    +0.000 A 
ATOM      8  C   UNL     1       2.063   7.925  19.240  0.00  0.00    +0.000 A 
ATOM      9  C   UNL     1       1.766   7.388  20.493  0.00  0.00    +0.000 A 
ATOM     10  C   UNL     1       1.787   6.005  20.682  0.00  0.00    +0.000 A 
ATOM     11  C   UNL     1       2.105   5.157  19.620  0.00  0.00    +0.000 A 
ATOM     12  O   UNL     1       2.100   3.818  19.893  0.00  0.00    +0.000 OA
ENDBRANCH   1   3
BRANCH   1  13
ATOM     13  N   UNL     1       4.977   3.126  18.194  0.00  0.00    +0.000 NA
ATOM     14  H   UNL     1       5.694   2.463  17.889  0.00  0.00    +0.000 HD
BRANCH  13  15
ATOM     15  C   UNL     1       5.593   4.263  18.884  0.00  0.00    +0.000 C 
BRANCH  15  16
ATOM     16  C   UNL     1       6.308   5.280  17.998  0.00  0.00    +0.000 C 
BRANCH  16  17
ATOM     17  C   UNL     1       7.493   4.673  17.267  0.00  0.00    +0.000 C 
ATOM     18  O   UNL     1       8.408   4.075  17.819  0.00  0.00    +0.000 OA
BRANCH  17  19
ATOM     19  O   UNL     1       7.387   4.923  15.933  0.00  0.00    +0.000 OA
BRANCH  19  21
ATOM     20  C   UNL     1       6.085   4.020  13.982  0.00  0.00    +0.000 C 
ATOM     21  C   UNL     1       6.115   4.859  15.251  0.00  0.00    +0.000 C 
ENDBRANCH  19  21
ENDBRANCH  17  19
ENDBRANCH  16  17
ENDBRANCH  15  16
ENDBRANCH  13  15
ENDBRANCH   1  13
TORSDOF 7
ENDMDL
MODEL 7
REMARK VINA RESULT:      -6.8      2.291      5.272
REMARK  Name = 
REMARK  9 active torsions:
REMARK  status: ('A' for Active; 'I' for Inactive)
REMARK    1  A    between atoms: C_1  and  C_2
REMARK    2  A    between atoms: C_2  and  O_3
REMARK    3  A    between atoms: O_3  and  C_4
REMARK    4  A    between atoms: C_4  and  C_6
REMARK    5  A    between atoms: C_6  and  C_7
REMARK    6  A    between atoms: C_7  and  N_8
REMARK    7  A    between atoms: N_8  and  C_9
REMARK    8  A    between atoms: C_9  and  C_10
REMARK    9  A    between atoms: C_9  and  C_11
REMARK                            x       y       z     vdW  Elec       q    Type
REMARK                         _______ _______ _______ _____ _____    ______ ____
ROOT
ATOM      1  C   UNL     1       5.296   4.148  16.731  0.00  0.00    +0.000 C 
ATOM      2  C   UNL     1       5.677   4.369  15.260  0.00  0.00    +0.000 C 
ENDROOT
BRANCH   1   3
ATOM      3  C   UNL     1       5.631   5.437  17.551  0.00  0.00    +0.000 C 
ATOM      4  C   UNL     1       5.575   5.261  19.069  0.00  0.00    +0.000 C 
ATOM      5  O   UNL     1       4.246   5.282  19.590  0.00  0.00    +0.000 OA
ATOM      6  C   UNL     1       3.556   6.356  19.095  0.00  0.00    +0.000 A 
ATOM      7  C   UNL     1       2.474   6.812  19.849  0.00  0.00    +0.000 A 
ATOM      8  C   UNL     1       1.718   7.896  19.401  0.00  0.00    +0.000 A 
ATOM      9  C   UNL     1       2.039   8.516  18.193  0.00  0.00    +0.000 A 
ATOM     10  C   UNL     1       3.117   8.054  17.437  0.00  0.00    +0.000 A 
ATOM     11  C   UNL     1       3.875   6.972  17.885  0.00  0.00    +0.000 A 
ATOM     12  O   UNL     1       4.913   6.587  17.083  0.00  0.00    +0.000 OA
ENDBRANCH   1   3
BRANCH   1  13
ATOM     13  N   UNL     1       3.903   3.676  16.854  0.00  0.00    +0.000 NA
ATOM     14  H   UNL     1       3.301   4.452  17.141  0.00  0.00    +0.000 HD
BRANCH  13  15
ATOM     15  C   UNL     1       3.703   2.522  17.736  0.00  0.00    +0.000 C 
BRANCH  15  16
ATOM     16  C   UNL     1       2.264   2.035  17.891  0.00  0.00    +0.000 C 
BRANCH  16  17
ATOM     17  C   UNL     1       1.317   3.156  18.283  0.00  0.00    +0.000 C 
ATOM     18  O   UNL     1       1.127   4.161  17.609  0.00  0.00    +0.000 OA
BRANCH  17  19
ATOM     19  O   UNL     1       0.753   2.880  19.490  0.00  0.00    +0.000 OA
BRANCH  19  21
ATOM     20  C   UNL     1       2.219   2.922  21.531  0.00  0.00    +0.000 C 
ATOM     21  C   UNL     1       1.143   3.589  20.687  0.00  0.00    +0.000 C 
ENDBRANCH  19  21
ENDBRANCH  17  19
ENDBRANCH  16  17
ENDBRANCH  15  16
ENDBRANCH  13  15
ENDBRANCH   1  13
TORSDOF 7
ENDMDL
MODEL 8
REMARK VINA RESULT:      -6.7      1.150      1.371
REMARK  Name = 
REMARK  9 active torsions:
REMARK  status: ('A' for Active; 'I' for Inactive)
REMARK    1  A    between atoms: C_1  and  C_2
REMARK    2  A    between atoms: C_2  and  O_3
REMARK    3  A    between atoms: O_3  and  C_4
REMARK    4  A    between atoms: C_4  and  C_6
REMARK    5  A    between atoms: C_6  and  C_7
REMARK    6  A    between atoms: C_7  and  N_8
REMARK    7  A    between atoms: N_8  and  C_9
REMARK    8  A    between atoms: C_9  and  C_10
REMARK    9  A    between atoms: C_9  and  C_11
REMARK                            x       y       z     vdW  Elec       q    Type
REMARK                         _______ _______ _______ _____ _____    ______ ____
ROOT
ATOM      1  C   UNL     1       5.524   4.825  17.270  0.00  0.00    +0.000 C 
ATOM      2  C   UNL     1       6.507   5.995  17.116  0.00  0.00    +0.000 C 
ENDROOT
BRANCH   1   3
ATOM      3  C   UNL     1       4.061   5.377  17.276  0.00  0.00    +0.000 C 
ATOM      4  C   UNL     1       3.790   6.458  18.325  0.00  0.00    +0.000 C 
ATOM      5  O   UNL     1       3.592   5.932  19.637  0.00  0.00    +0.000 OA
ATOM      6  C   UNL     1       2.692   4.900  19.607  0.00  0.00    +0.000 A 
ATOM      7  C   UNL     1       2.015   4.619  20.794  0.00  0.00    +0.000 A 
ATOM      8  C   UNL     1       1.090   3.575  20.841  0.00  0.00    +0.000 A 
ATOM      9  C   UNL     1       0.851   2.806  19.702  0.00  0.00    +0.000 A 
ATOM     10  C   UNL     1       1.535   3.083  18.517  0.00  0.00    +0.000 A 
ATOM     11  C   UNL     1       2.457   4.129  18.468  0.00  0.00    +0.000 A 
ATOM     12  O   UNL     1       3.079   4.332  17.268  0.00  0.00    +0.000 OA
ENDBRANCH   1   3
BRANCH   1  13
ATOM     13  N   UNL     1       5.789   3.773  16.270  0.00  0.00    +0.000 NA
ATOM     14  H   UNL     1       6.750   3.435  16.372  0.00  0.00    +0.000 HD
BRANCH  13  15
ATOM     15  C   UNL     1       5.525   4.145  14.877  0.00  0.00    +0.000 C 
BRANCH  15  16
ATOM     16  C   UNL     1       6.727   4.131  13.936  0.00  0.00    +0.000 C 
BRANCH  16  17
ATOM     17  C   UNL     1       6.350   3.707  12.528  0.00  0.00    +0.000 C 
ATOM     18  O   UNL     1       7.161   3.487  11.636  0.00  0.00    +0.000 OA
BRANCH  17  19
ATOM     19  O   UNL     1       4.996   3.641  12.415  0.00  0.00    +0.000 OA
BRANCH  19  21
ATOM     20  C   UNL     1       3.418   3.715  10.460  0.00  0.00    +0.000 C 
ATOM     21  C   UNL     1       4.360   2.910  11.343  0.00  0.00    +0.000 C 
ENDBRANCH  19  21
ENDBRANCH  17  19
ENDBRANCH  16  17
ENDBRANCH  15  16
ENDBRANCH  13  15
ENDBRANCH   1  13
TORSDOF 7
ENDMDL
MODEL 9
REMARK VINA RESULT:      -6.7      1.266      2.183
REMARK  Name = 
REMARK  9 active torsions:
REMARK  status: ('A' for Active; 'I' for Inactive)
REMARK    1  A    between atoms: C_1  and  C_2
REMARK    2  A    between atoms: C_2  and  O_3
REMARK    3  A    between atoms: O_3  and  C_4
REMARK    4  A    between atoms: C_4  and  C_6
REMARK    5  A    between atoms: C_6  and  C_7
REMARK    6  A    between atoms: C_7  and  N_8
REMARK    7  A    between atoms: N_8  and  C_9
REMARK    8  A    between atoms: C_9  and  C_10
REMARK    9  A    between atoms: C_9  and  C_11
REMARK                            x       y       z     vdW  Elec       q    Type
REMARK                         _______ _______ _______ _____ _____    ______ ____
ROOT
ATOM      1  C   UNL     1       4.953   6.552  18.214  0.00  0.00    +0.000 C 
ATOM      2  C   UNL     1       3.532   6.886  17.736  0.00  0.00    +0.000 C 
ENDROOT
BRANCH   1   3
ATOM      3  C   UNL     1       4.886   5.384  19.253  0.00  0.00    +0.000 C 
ATOM      4  C   UNL     1       5.376   4.034  18.728  0.00  0.00    +0.000 C 
ATOM      5  O   UNL     1       4.412   3.361  17.917  0.00  0.00    +0.000 OA
ATOM      6  C   UNL     1       3.192   3.345  18.540  0.00  0.00    +0.000 A 
ATOM      7  C   UNL     1       2.305   2.338  18.161  0.00  0.00    +0.000 A 
ATOM      8  C   UNL     1       1.040   2.265  18.746  0.00  0.00    +0.000 A 
ATOM      9  C   UNL     1       0.660   3.208  19.702  0.00  0.00    +0.000 A 
ATOM     10  C   UNL     1       1.546   4.219  20.074  0.00  0.00    +0.000 A 
ATOM     11  C   UNL     1       2.813   4.291  19.492  0.00  0.00    +0.000 A 
ATOM     12  O   UNL     1       3.616   5.312  19.916  0.00  0.00    +0.000 OA
ENDBRANCH   1   3
BRANCH   1  13
ATOM     13  N   UNL     1       5.857   6.319  17.073  0.00  0.00    +0.000 NA
ATOM     14  H   UNL     1       6.624   6.997  17.097  0.00  0.00    +0.000 HD
BRANCH  13  15
ATOM     15  C   UNL     1       5.221   6.317  15.752  0.00  0.00    +0.000 C 
BRANCH  15  16
ATOM     16  C   UNL     1       5.188   4.976  15.023  0.00  0.00    +0.000 C 
BRANCH  16  17
ATOM     17  C   UNL     1       6.572   4.368  14.877  0.00  0.00    +0.000 C 
ATOM     18  O   UNL     1       7.538   4.686  15.559  0.00  0.00    +0.000 OA
BRANCH  17  19
ATOM     19  O   UNL     1       6.568   3.455  13.867  0.00  0.00    +0.000 OA
BRANCH  19  21
ATOM     20  C   UNL     1       5.303   2.827  11.788  0.00  0.00    +0.000 C 
ATOM     21  C   UNL     1       6.195   3.819  12.520  0.00  0.00    +0.000 C 
ENDBRANCH  19  21
ENDBRANCH  17  19
ENDBRANCH  16  17
ENDBRANCH  15  16
ENDBRANCH  13  15
ENDBRANCH   1  13
TORSDOF 7
ENDMDL
