MODEL 1
REMARK VINA RESULT:      -6.7      0.000      0.000
REMARK  Name = 
REMARK  14 active torsions:
REMARK  status: ('A' for Active; 'I' for Inactive)
REMARK    1  A    between atoms: C_1  and  O_2
REMARK    2  A    between atoms: O_2  and  C_3
REMARK    3  A    between atoms: C_6  and  S_7
REMARK    4  A    between atoms: S_7  and  N_10
REMARK    5  A    between atoms: N_10  and  C_11
REMARK    6  A    between atoms: N_10  and  C_15
REMARK    7  A    between atoms: C_11  and  C_12
REMARK    8  A    between atoms: C_12  and  C_13
REMARK    9  A    between atoms: C_12  and  C_14
REMARK   10  A    between atoms: C_15  and  C_16
REMARK   11  A    between atoms: C_15  and  C_20
REMARK   12  A    between atoms: N_18  and  O_19
REMARK   13  A    between atoms: C_20  and  C_21
REMARK   14  A    between atoms: C_20  and  C_22
REMARK                            x       y       z     vdW  Elec       q    Type
REMARK                         _______ _______ _______ _____ _____    ______ ____
ROOT
ATOM      1  N   UNL     1       3.523   4.494  17.856  0.00  0.00    +0.000 NA
ENDROOT
BRANCH   1   2
ATOM      2  S   UNL     1       4.876   4.340  16.807  0.00  0.00    +0.000 S 
ATOM      3  O   UNL     1       4.421   4.728  15.488  0.00  0.00    +0.000 OA
ATOM      4  O   UNL     1       5.392   3.002  16.982  0.00  0.00    +0.000 OA
BRANCH   2   8
ATOM      5  C   UNL     1       7.962   7.338  18.385  0.00  0.00    +0.000 A 
ATOM      6  C   UNL     1       7.120   7.676  17.320  0.00  0.00    +0.000 A 
ATOM      7  C   UNL     1       6.232   6.735  16.784  0.00  0.00    +0.000 A 
ATOM      8  C   UNL     1       6.180   5.442  17.312  0.00  0.00    +0.000 A 
ATOM      9  C   UNL     1       6.995   5.121  18.400  0.00  0.00    +0.000 A 
ATOM     10  C   UNL     1       7.918   6.044  18.900  0.00  0.00    +0.000 A 
BRANCH   5  12
ATOM     11  C   UNL     1       8.570   9.617  18.254  0.00  0.00    +0.000 C 
ATOM     12  O   UNL     1       8.781   8.333  18.841  0.00  0.00    +0.000 OA
ENDBRANCH   5  12
ENDBRANCH   2   8
ENDBRANCH   1   2
BRANCH   1  13
ATOM     13  C   UNL     1       2.668   5.723  17.779  0.00  0.00    +0.000 C 
BRANCH  13  14
ATOM     14  C   UNL     1       3.021   6.935  18.668  0.00  0.00    +0.000 C 
ATOM     15  C   UNL     1       2.772   8.235  17.879  0.00  0.00    +0.000 C 
ATOM     16  C   UNL     1       2.191   7.063  19.941  0.00  0.00    +0.000 C 
ENDBRANCH  13  14
ENDBRANCH   1  13
BRANCH   1  17
ATOM     17  C   UNL     1       2.812   3.156  18.146  0.00  0.00    +0.000 C 
BRANCH  17  18
ATOM     18  C   UNL     1       3.707   2.099  18.852  0.00  0.00    +0.000 C 
ATOM     19  O   UNL     1       3.690   0.890  18.609  0.00  0.00    +0.000 OA
ATOM     20  N   UNL     1       4.613   2.604  19.772  0.00  0.00    +0.000 N 
ATOM     21  H   UNL     1       4.314   3.357  20.393  0.00  0.00    +0.000 HD
BRANCH  20  22
ATOM     22  O   UNL     1       5.376   1.590  20.418  0.00  0.00    +0.000 OA
ATOM     23  H   UNL     1       5.331   0.848  19.769  0.00  0.00    +0.000 HD
ENDBRANCH  20  22
ENDBRANCH  17  18
BRANCH  17  24
ATOM     24  C   UNL     1       1.469   3.303  18.945  0.00  0.00    +0.000 C 
ATOM     25  C   UNL     1       0.515   2.120  18.678  0.00  0.00    +0.000 C 
ATOM     26  C   UNL     1       1.621   3.497  20.460  0.00  0.00    +0.000 C 
ENDBRANCH  17  24
ENDBRANCH   1  17
TORSDOF 9
ENDMDL
MODEL 2
REMARK VINA RESULT:      -6.7      2.469      3.746
REMARK  Name = 
REMARK  14 active torsions:
REMARK  status: ('A' for Active; 'I' for Inactive)
REMARK    1  A    between atoms: C_1  and  O_2
REMARK    2  A    between atoms: O_2  and  C_3
REMARK    3  A    between atoms: C_6  and  S_7
REMARK    4  A    between atoms: S_7  and  N_10
REMARK    5  A    between atoms: N_10  and  C_11
REMARK    6  A    between atoms: N_10  and  C_15
REMARK    7  A    between atoms: C_11  and  C_12
REMARK    8  A    between atoms: C_12  and  C_13
REMARK    9  A    between atoms: C_12  and  C_14
REMARK   10  A    between atoms: C_15  and  C_16
REMARK   11  A    between atoms: C_15  and  C_20
REMARK   12  A    between atoms: N_18  and  O_19
REMARK   13  A    between atoms: C_20  and  C_21
REMARK   14  A    between atoms: C_20  and  C_22
REMARK                            x       y       z     vdW  Elec       q    Type
REMARK                         _______ _______ _______ _____ _____    ______ ____
ROOT
ATOM      1  N   UNL     1       4.250   5.073  18.413  0.00  0.00    +0.000 NA
ENDROOT
BRANCH   1   2
ATOM      2  S   UNL     1       5.875   5.275  17.893  0.00  0.00    +0.000 S 
ATOM      3  O   UNL     1       6.661   4.289  18.604  0.00  0.00    +0.000 OA
ATOM      4  O   UNL     1       6.204   6.669  18.078  0.00  0.00    +0.000 OA
BRANCH   2   8
ATOM      5  C   UNL     1       6.400   4.109  13.492  0.00  0.00    +0.000 A 
ATOM      6  C   UNL     1       7.399   4.820  14.165  0.00  0.00    +0.000 A 
ATOM      7  C   UNL     1       7.208   5.247  15.485  0.00  0.00    +0.000 A 
ATOM      8  C   UNL     1       6.009   4.964  16.145  0.00  0.00    +0.000 A 
ATOM      9  C   UNL     1       5.029   4.220  15.482  0.00  0.00    +0.000 A 
ATOM     10  C   UNL     1       5.200   3.841  14.147  0.00  0.00    +0.000 A 
BRANCH   5  12
ATOM     11  C   UNL     1       5.979   2.589  11.733  0.00  0.00    +0.000 C 
ATOM     12  O   UNL     1       6.693   3.729  12.211  0.00  0.00    +0.000 OA
ENDBRANCH   5  12
ENDBRANCH   2   8
ENDBRANCH   1   2
BRANCH   1  13
ATOM     13  C   UNL     1       3.203   6.043  17.952  0.00  0.00    +0.000 C 
BRANCH  13  14
ATOM     14  C   UNL     1       2.910   7.290  18.814  0.00  0.00    +0.000 C 
ATOM     15  C   UNL     1       2.087   8.298  17.988  0.00  0.00    +0.000 C 
ATOM     16  C   UNL     1       2.090   7.025  20.071  0.00  0.00    +0.000 C 
ENDBRANCH  13  14
ENDBRANCH   1  13
BRANCH   1  17
ATOM     17  C   UNL     1       3.827   3.597  18.560  0.00  0.00    +0.000 C 
BRANCH  17  18
ATOM     18  C   UNL     1       4.074   3.001  19.974  0.00  0.00    +0.000 C 
ATOM     19  O   UNL     1       3.421   3.286  20.981  0.00  0.00    +0.000 OA
ATOM     20  N   UNL     1       5.071   2.041  20.050  0.00  0.00    +0.000 N 
ATOM     21  H   UNL     1       5.931   2.183  19.518  0.00  0.00    +0.000 HD
BRANCH  20  22
ATOM     22  O   UNL     1       5.283   1.559  21.374  0.00  0.00    +0.000 OA
ATOM     23  H   UNL     1       5.538   0.620  21.217  0.00  0.00    +0.000 HD
ENDBRANCH  20  22
ENDBRANCH  17  18
BRANCH  17  24
ATOM     24  C   UNL     1       2.343   3.308  18.138  0.00  0.00    +0.000 C 
ATOM     25  C   UNL     1       2.166   1.863  17.627  0.00  0.00    +0.000 C 
ATOM     26  C   UNL     1       1.284   3.598  19.210  0.00  0.00    +0.000 C 
ENDBRANCH  17  24
ENDBRANCH   1  17
TORSDOF 9
ENDMDL
MODEL 3
REMARK VINA RESULT:      -6.7      2.649      5.631
REMARK  Name = 
REMARK  14 active torsions:
REMARK  status: ('A' for Active; 'I' for Inactive)
REMARK    1  A    between atoms: C_1  and  O_2
REMARK    2  A    between atoms: O_2  and  C_3
REMARK    3  A    between atoms: C_6  and  S_7
REMARK    4  A    between atoms: S_7  and  N_10
REMARK    5  A    between atoms: N_10  and  C_11
REMARK    6  A    between atoms: N_10  and  C_15
REMARK    7  A    between atoms: C_11  and  C_12
REMARK    8  A    between atoms: C_12  and  C_13
REMARK    9  A    between atoms: C_12  and  C_14
REMARK   10  A    between atoms: C_15  and  C_16
REMARK   11  A    between atoms: C_15  and  C_20
REMARK   12  A    between atoms: N_18  and  O_19
REMARK   13  A    between atoms: C_20  and  C_21
REMARK   14  A    between atoms: C_20  and  C_22
REMARK                            x       y       z     vdW  Elec       q    Type
REMARK                         _______ _______ _______ _____ _____    ______ ____
ROOT
ATOM      1  N   UNL     1       5.317   4.607  17.241  0.00  0.00    +0.000 NA
ENDROOT
BRANCH   1   2
ATOM      2  S   UNL     1       3.984   4.020  18.153  0.00  0.00    +0.000 S 
ATOM      3  O   UNL     1       4.538   3.313  19.288  0.00  0.00    +0.000 OA
ATOM      4  O   UNL     1       3.143   3.284  17.238  0.00  0.00    +0.000 OA
BRANCH   2   8
ATOM      5  C   UNL     1       1.801   7.711  19.770  0.00  0.00    +0.000 A 
ATOM      6  C   UNL     1       2.147   6.657  20.622  0.00  0.00    +0.000 A 
ATOM      7  C   UNL     1       2.741   5.494  20.117  0.00  0.00    +0.000 A 
ATOM      8  C   UNL     1       2.996   5.376  18.748  0.00  0.00    +0.000 A 
ATOM      9  C   UNL     1       2.685   6.447  17.906  0.00  0.00    +0.000 A 
ATOM     10  C   UNL     1       2.043   7.586  18.403  0.00  0.00    +0.000 A 
BRANCH   5  12
ATOM     11  C   UNL     1       1.204   8.775  21.793  0.00  0.00    +0.000 C 
ATOM     12  O   UNL     1       1.237   8.805  20.366  0.00  0.00    +0.000 OA
ENDBRANCH   5  12
ENDBRANCH   2   8
ENDBRANCH   1   2
BRANCH   1  13
ATOM     13  C   UNL     1       5.183   4.760  15.756  0.00  0.00    +0.000 C 
BRANCH  13  14
ATOM     14  C   UNL     1       6.207   4.059  14.837  0.00  0.00    +0.000 C 
ATOM     15  C   UNL     1       5.530   3.703  13.499  0.00  0.00    +0.000 C 
ATOM     16  C   UNL     1       7.424   4.899  14.470  0.00  0.00    +0.000 C 
ENDBRANCH  13  14
ENDBRANCH   1  13
BRANCH   1  17
ATOM     17  C   UNL     1       6.158   5.664  17.987  0.00  0.00    +0.000 C 
BRANCH  17  18
ATOM     18  C   UNL     1       7.459   5.107  18.630  0.00  0.00    +0.000 C 
ATOM     19  O   UNL     1       8.258   4.359  18.062  0.00  0.00    +0.000 OA
ATOM     20  N   UNL     1       7.729   5.556  19.913  0.00  0.00    +0.000 N 
ATOM     21  H   UNL     1       6.957   5.640  20.576  0.00  0.00    +0.000 HD
BRANCH  20  22
ATOM     22  O   UNL     1       8.909   4.983  20.468  0.00  0.00    +0.000 OA
ATOM     23  H   UNL     1       8.543   4.315  21.095  0.00  0.00    +0.000 HD
ENDBRANCH  20  22
ENDBRANCH  17  18
BRANCH  17  24
ATOM     24  C   UNL     1       6.515   6.926  17.124  0.00  0.00    +0.000 C 
ATOM     25  C   UNL     1       5.311   7.880  16.983  0.00  0.00    +0.000 C 
ATOM     26  C   UNL     1       7.738   7.723  17.598  0.00  0.00    +0.000 C 
ENDBRANCH  17  24
ENDBRANCH   1  17
TORSDOF 9
ENDMDL
MODEL 4
REMARK VINA RESULT:      -6.7      2.544      3.841
REMARK  Name = 
REMARK  14 active torsions:
REMARK  status: ('A' for Active; 'I' for Inactive)
REMARK    1  A    between atoms: C_1  and  O_2
REMARK    2  A    between atoms: O_2  and  C_3
REMARK    3  A    between atoms: C_6  and  S_7
REMARK    4  A    between atoms: S_7  and  N_10
REMARK    5  A    between atoms: N_10  and  C_11
REMARK    6  A    between atoms: N_10  and  C_15
REMARK    7  A    between atoms: C_11  and  C_12
REMARK    8  A    between atoms: C_12  and  C_13
REMARK    9  A    between atoms: C_12  and  C_14
REMARK   10  A    between atoms: C_15  and  C_16
REMARK   11  A    between atoms: C_15  and  C_20
REMARK   12  A    between atoms: N_18  and  O_19
REMARK   13  A    between atoms: C_20  and  C_21
REMARK   14  A    between atoms: C_20  and  C_22
REMARK                            x       y       z     vdW  Elec       q    Type
REMARK                         _______ _______ _______ _____ _____    ______ ____
ROOT
ATOM      1  N   UNL     1       4.160   5.383  18.601  0.00  0.00    +0.000 NA
ENDROOT
BRANCH   1   2
ATOM      2  S   UNL     1       5.850   5.337  18.291  0.00  0.00    +0.000 S 
ATOM      3  O   UNL     1       6.417   4.398  19.235  0.00  0.00    +0.000 OA
ATOM      4  O   UNL     1       6.319   6.704  18.326  0.00  0.00    +0.000 OA
BRANCH   2   8
ATOM      5  C   UNL     1       6.388   4.127  13.905  0.00  0.00    +0.000 A 
ATOM      6  C   UNL     1       5.380   3.549  14.684  0.00  0.00    +0.000 A 
ATOM      7  C   UNL     1       5.265   3.858  16.046  0.00  0.00    +0.000 A 
ATOM      8  C   UNL     1       6.161   4.751  16.639  0.00  0.00    +0.000 A 
ATOM      9  C   UNL     1       7.141   5.355  15.847  0.00  0.00    +0.000 A 
ATOM     10  C   UNL     1       7.289   5.006  14.502  0.00  0.00    +0.000 A 
BRANCH   5  12
ATOM     11  C   UNL     1       5.163   3.296  12.063  0.00  0.00    +0.000 C 
ATOM     12  O   UNL     1       6.405   3.768  12.585  0.00  0.00    +0.000 OA
ENDBRANCH   5  12
ENDBRANCH   2   8
ENDBRANCH   1   2
BRANCH   1  13
ATOM     13  C   UNL     1       3.301   6.360  17.855  0.00  0.00    +0.000 C 
BRANCH  13  14
ATOM     14  C   UNL     1       2.899   7.680  18.548  0.00  0.00    +0.000 C 
ATOM     15  C   UNL     1       2.043   8.521  17.581  0.00  0.00    +0.000 C 
ATOM     16  C   UNL     1       2.055   7.517  19.806  0.00  0.00    +0.000 C 
ENDBRANCH  13  14
ENDBRANCH   1  13
BRANCH   1  17
ATOM     17  C   UNL     1       3.551   3.999  18.909  0.00  0.00    +0.000 C 
BRANCH  17  18
ATOM     18  C   UNL     1       3.009   3.849  20.358  0.00  0.00    +0.000 C 
ATOM     19  O   UNL     1       2.470   4.752  21.003  0.00  0.00    +0.000 OA
ATOM     20  N   UNL     1       3.107   2.578  20.901  0.00  0.00    +0.000 N 
ATOM     21  H   UNL     1       3.954   2.035  20.731  0.00  0.00    +0.000 HD
BRANCH  20  22
ATOM     22  O   UNL     1       2.634   2.506  22.243  0.00  0.00    +0.000 OA
ATOM     23  H   UNL     1       1.900   1.851  22.172  0.00  0.00    +0.000 HD
ENDBRANCH  20  22
ENDBRANCH  17  18
BRANCH  17  24
ATOM     24  C   UNL     1       2.437   3.549  17.899  0.00  0.00    +0.000 C 
ATOM     25  C   UNL     1       2.597   2.068  17.497  0.00  0.00    +0.000 C 
ATOM     26  C   UNL     1       0.993   3.795  18.356  0.00  0.00    +0.000 C 
ENDBRANCH  17  24
ENDBRANCH   1  17
TORSDOF 9
ENDMDL
MODEL 5
REMARK VINA RESULT:      -6.6      2.498      3.608
REMARK  Name = 
REMARK  14 active torsions:
REMARK  status: ('A' for Active; 'I' for Inactive)
REMARK    1  A    between atoms: C_1  and  O_2
REMARK    2  A    between atoms: O_2  and  C_3
REMARK    3  A    between atoms: C_6  and  S_7
REMARK    4  A    between atoms: S_7  and  N_10
REMARK    5  A    between atoms: N_10  and  C_11
REMARK    6  A    between atoms: N_10  and  C_15
REMARK    7  A    between atoms: C_11  and  C_12
REMARK    8  A    between atoms: C_12  and  C_13
REMARK    9  A    between atoms: C_12  and  C_14
REMARK   10  A    between atoms: C_15  and  C_16
REMARK   11  A    between atoms: C_15  and  C_20
REMARK   12  A    between atoms: N_18  and  O_19
REMARK   13  A    between atoms: C_20  and  C_21
REMARK   14  A    between atoms: C_20  and  C_22
REMARK                            x       y       z     vdW  Elec       q    Type
REMARK                         _______ _______ _______ _____ _____    ______ ____
ROOT
ATOM      1  N   UNL     1       3.640   4.871  19.005  0.00  0.00    +0.000 NA
ENDROOT
BRANCH   1   2
ATOM      2  S   UNL     1       5.330   4.555  19.024  0.00  0.00    +0.000 S 
ATOM      3  O   UNL     1       5.498   3.243  19.611  0.00  0.00    +0.000 OA
ATOM      4  O   UNL     1       5.958   5.679  19.680  0.00  0.00    +0.000 OA
BRANCH   2   8
ATOM      5  C   UNL     1       6.660   4.729  14.642  0.00  0.00    +0.000 A 
ATOM      6  C   UNL     1       5.806   3.715  15.087  0.00  0.00    +0.000 A 
ATOM      7  C   UNL     1       5.462   3.613  16.442  0.00  0.00    +0.000 A 
ATOM      8  C   UNL     1       5.974   4.529  17.364  0.00  0.00    +0.000 A 
ATOM      9  C   UNL     1       6.795   5.564  16.908  0.00  0.00    +0.000 A 
ATOM     10  C   UNL     1       7.180   5.633  15.566  0.00  0.00    +0.000 A 
BRANCH   5  12
ATOM     11  C   UNL     1       6.411   3.636  12.562  0.00  0.00    +0.000 C 
ATOM     12  O   UNL     1       6.922   4.747  13.300  0.00  0.00    +0.000 OA
ENDBRANCH   5  12
ENDBRANCH   2   8
ENDBRANCH   1   2
BRANCH   1  13
ATOM     13  C   UNL     1       3.096   5.908  18.069  0.00  0.00    +0.000 C 
BRANCH  13  14
ATOM     14  C   UNL     1       2.887   7.347  18.589  0.00  0.00    +0.000 C 
ATOM     15  C   UNL     1       2.078   8.150  17.553  0.00  0.00    +0.000 C 
ATOM     16  C   UNL     1       2.104   7.454  19.892  0.00  0.00    +0.000 C 
ENDBRANCH  13  14
ENDBRANCH   1  13
BRANCH   1  17
ATOM     17  C   UNL     1       2.775   3.617  19.249  0.00  0.00    +0.000 C 
BRANCH  17  18
ATOM     18  C   UNL     1       1.994   3.634  20.593  0.00  0.00    +0.000 C 
ATOM     19  O   UNL     1       1.364   4.601  21.027  0.00  0.00    +0.000 OA
ATOM     20  N   UNL     1       1.984   2.436  21.291  0.00  0.00    +0.000 N 
ATOM     21  H   UNL     1       2.843   1.885  21.332  0.00  0.00    +0.000 HD
BRANCH  20  22
ATOM     22  O   UNL     1       1.290   2.519  22.532  0.00  0.00    +0.000 OA
ATOM     23  H   UNL     1       1.914   2.072  23.151  0.00  0.00    +0.000 HD
ENDBRANCH  20  22
ENDBRANCH  17  18
BRANCH  17  24
ATOM     24  C   UNL     1       1.777   3.288  18.083  0.00  0.00    +0.000 C 
ATOM     25  C   UNL     1       2.416   2.357  17.032  0.00  0.00    +0.000 C 
ATOM     26  C   UNL     1       0.425   2.707  18.518  0.00  0.00    +0.000 C 
ENDBRANCH  17  24
ENDBRANCH   1  17
TORSDOF 9
ENDMDL
MODEL 6
REMARK VINA RESULT:      -6.6      2.695      5.601
REMARK  Name = 
REMARK  14 active torsions:
REMARK  status: ('A' for Active; 'I' for Inactive)
REMARK    1  A    between atoms: C_1  and  O_2
REMARK    2  A    between atoms: O_2  and  C_3
REMARK    3  A    between atoms: C_6  and  S_7
REMARK    4  A    between atoms: S_7  and  N_10
REMARK    5  A    between atoms: N_10  and  C_11
REMARK    6  A    between atoms: N_10  and  C_15
REMARK    7  A    between atoms: C_11  and  C_12
REMARK    8  A    between atoms: C_12  and  C_13
REMARK    9  A    between atoms: C_12  and  C_14
REMARK   10  A    between atoms: C_15  and  C_16
REMARK   11  A    between atoms: C_15  and  C_20
REMARK   12  A    between atoms: N_18  and  O_19
REMARK   13  A    between atoms: C_20  and  C_21
REMARK   14  A    between atoms: C_20  and  C_22
REMARK                            x       y       z     vdW  Elec       q    Type
REMARK                         _______ _______ _______ _____ _____    ______ ____
ROOT
ATOM      1  N   UNL     1       5.386   4.528  17.088  0.00  0.00    +0.000 NA
ENDROOT
BRANCH   1   2
ATOM      2  S   UNL     1       4.065   3.833  17.939  0.00  0.00    +0.000 S 
ATOM      3  O   UNL     1       4.615   2.784  18.770  0.00  0.00    +0.000 OA
ATOM      4  O   UNL     1       3.075   3.468  16.951  0.00  0.00    +0.000 OA
BRANCH   2   8
ATOM      5  C   UNL     1       1.708   6.833  20.477  0.00  0.00    +0.000 A 
ATOM      6  C   UNL     1       2.151   7.177  19.196  0.00  0.00    +0.000 A 
ATOM      7  C   UNL     1       2.940   6.292  18.450  0.00  0.00    +0.000 A 
ATOM      8  C   UNL     1       3.292   5.049  18.984  0.00  0.00    +0.000 A 
ATOM      9  C   UNL     1       2.814   4.694  20.248  0.00  0.00    +0.000 A 
ATOM     10  C   UNL     1       2.072   5.599  21.013  0.00  0.00    +0.000 A 
BRANCH   5  12
ATOM     11  C   UNL     1       0.981   9.079  20.564  0.00  0.00    +0.000 C 
ATOM     12  O   UNL     1       0.934   7.763  21.115  0.00  0.00    +0.000 OA
ENDBRANCH   5  12
ENDBRANCH   2   8
ENDBRANCH   1   2
BRANCH   1  13
ATOM     13  C   UNL     1       5.277   4.744  15.608  0.00  0.00    +0.000 C 
BRANCH  13  14
ATOM     14  C   UNL     1       6.311   4.075  14.678  0.00  0.00    +0.000 C 
ATOM     15  C   UNL     1       5.612   3.618  13.383  0.00  0.00    +0.000 C 
ATOM     16  C   UNL     1       7.453   4.978  14.229  0.00  0.00    +0.000 C 
ENDBRANCH  13  14
ENDBRANCH   1  13
BRANCH   1  17
ATOM     17  C   UNL     1       6.153   5.590  17.901  0.00  0.00    +0.000 C 
BRANCH  17  18
ATOM     18  C   UNL     1       7.461   5.068  18.559  0.00  0.00    +0.000 C 
ATOM     19  O   UNL     1       8.283   4.335  18.003  0.00  0.00    +0.000 OA
ATOM     20  N   UNL     1       7.708   5.531  19.842  0.00  0.00    +0.000 N 
ATOM     21  H   UNL     1       6.929   5.601  20.497  0.00  0.00    +0.000 HD
BRANCH  20  22
ATOM     22  O   UNL     1       8.896   4.989  20.412  0.00  0.00    +0.000 OA
ATOM     23  H   UNL     1       9.391   4.684  19.615  0.00  0.00    +0.000 HD
ENDBRANCH  20  22
ENDBRANCH  17  18
BRANCH  17  24
ATOM     24  C   UNL     1       6.474   6.903  17.102  0.00  0.00    +0.000 C 
ATOM     25  C   UNL     1       5.244   7.830  17.010  0.00  0.00    +0.000 C 
ATOM     26  C   UNL     1       7.677   7.709  17.613  0.00  0.00    +0.000 C 
ENDBRANCH  17  24
ENDBRANCH   1  17
TORSDOF 9
ENDMDL
MODEL 7
REMARK VINA RESULT:      -6.6      2.542      4.496
REMARK  Name = 
REMARK  14 active torsions:
REMARK  status: ('A' for Active; 'I' for Inactive)
REMARK    1  A    between atoms: C_1  and  O_2
REMARK    2  A    between atoms: O_2  and  C_3
REMARK    3  A    between atoms: C_6  and  S_7
REMARK    4  A    between atoms: S_7  and  N_10
REMARK    5  A    between atoms: N_10  and  C_11
REMARK    6  A    between atoms: N_10  and  C_15
REMARK    7  A    between atoms: C_11  and  C_12
REMARK    8  A    between atoms: C_12  and  C_13
REMARK    9  A    between atoms: C_12  and  C_14
REMARK   10  A    between atoms: C_15  and  C_16
REMARK   11  A    between atoms: C_15  and  C_20
REMARK   12  A    between atoms: N_18  and  O_19
REMARK   13  A    between atoms: C_20  and  C_21
REMARK   14  A    between atoms: C_20  and  C_22
REMARK                            x       y       z     vdW  Elec       q    Type
REMARK                         _______ _______ _______ _____ _____    ______ ____
ROOT
ATOM      1  N   UNL     1       4.107   4.258  17.988  0.00  0.00    +0.000 NA
ENDROOT
BRANCH   1   2
ATOM      2  S   UNL     1       4.339   5.505  19.148  0.00  0.00    +0.000 S 
ATOM      3  O   UNL     1       5.650   6.064  18.895  0.00  0.00    +0.000 OA
ATOM      4  O   UNL     1       4.087   4.922  20.446  0.00  0.00    +0.000 OA
BRANCH   2   8
ATOM      5  C   UNL     1       1.475   9.062  18.770  0.00  0.00    +0.000 A 
ATOM      6  C   UNL     1       1.481   8.272  19.924  0.00  0.00    +0.000 A 
ATOM      7  C   UNL     1       2.298   7.137  20.010  0.00  0.00    +0.000 A 
ATOM      8  C   UNL     1       3.119   6.783  18.935  0.00  0.00    +0.000 A 
ATOM      9  C   UNL     1       3.138   7.598  17.800  0.00  0.00    +0.000 A 
ATOM     10  C   UNL     1       2.283   8.700  17.695  0.00  0.00    +0.000 A 
BRANCH   5  12
ATOM     11  C   UNL     1       0.806  11.012  19.925  0.00  0.00    +0.000 C 
ATOM     12  O   UNL     1       0.651  10.154  18.795  0.00  0.00    +0.000 OA
ENDBRANCH   5  12
ENDBRANCH   2   8
ENDBRANCH   1   2
BRANCH   1  13
ATOM     13  C   UNL     1       5.213   3.927  17.031  0.00  0.00    +0.000 C 
BRANCH  13  14
ATOM     14  C   UNL     1       5.100   4.402  15.567  0.00  0.00    +0.000 C 
ATOM     15  C   UNL     1       5.288   5.931  15.511  0.00  0.00    +0.000 C 
ATOM     16  C   UNL     1       6.145   3.826  14.620  0.00  0.00    +0.000 C 
ENDBRANCH  13  14
ENDBRANCH   1  13
BRANCH   1  17
ATOM     17  C   UNL     1       3.247   3.086  18.506  0.00  0.00    +0.000 C 
BRANCH  17  18
ATOM     18  C   UNL     1       3.725   2.495  19.862  0.00  0.00    +0.000 C 
ATOM     19  O   UNL     1       3.023   2.395  20.871  0.00  0.00    +0.000 OA
ATOM     20  N   UNL     1       5.022   2.005  19.873  0.00  0.00    +0.000 N 
ATOM     21  H   UNL     1       5.749   2.529  19.384  0.00  0.00    +0.000 HD
BRANCH  20  22
ATOM     22  O   UNL     1       5.421   1.514  21.150  0.00  0.00    +0.000 OA
ATOM     23  H   UNL     1       4.983   2.148  21.764  0.00  0.00    +0.000 HD
ENDBRANCH  20  22
ENDBRANCH  17  18
BRANCH  17  24
ATOM     24  C   UNL     1       1.714   3.408  18.603  0.00  0.00    +0.000 C 
ATOM     25  C   UNL     1       1.247   4.315  17.445  0.00  0.00    +0.000 C 
ATOM     26  C   UNL     1       0.788   2.187  18.693  0.00  0.00    +0.000 C 
ENDBRANCH  17  24
ENDBRANCH   1  17
TORSDOF 9
ENDMDL
MODEL 8
REMARK VINA RESULT:      -6.5      0.961      1.285
REMARK  Name = 
REMARK  14 active torsions:
REMARK  status: ('A' for Active; 'I' for Inactive)
REMARK    1  A    between atoms: C_1  and  O_2
REMARK    2  A    between atoms: O_2  and  C_3
REMARK    3  A    between atoms: C_6  and  S_7
REMARK    4  A    between atoms: S_7  and  N_10
REMARK    5  A    between atoms: N_10  and  C_11
REMARK    6  A    between atoms: N_10  and  C_15
REMARK    7  A    between atoms: C_11  and  C_12
REMARK    8  A    between atoms: C_12  and  C_13
REMARK    9  A    between atoms: C_12  and  C_14
REMARK   10  A    between atoms: C_15  and  C_16
REMARK   11  A    between atoms: C_15  and  C_20
REMARK   12  A    between atoms: N_18  and  O_19
REMARK   13  A    between atoms: C_20  and  C_21
REMARK   14  A    between atoms: C_20  and  C_22
REMARK                            x       y       z     vdW  Elec       q    Type
REMARK                         _______ _______ _______ _____ _____    ______ ____
ROOT
ATOM      1  N   UNL     1       4.203   4.737  19.048  0.00  0.00    +0.000 NA
ENDROOT
BRANCH   1   2
ATOM      2  S   UNL     1       5.140   4.727  17.608  0.00  0.00    +0.000 S 
ATOM      3  O   UNL     1       4.222   4.967  16.515  0.00  0.00    +0.000 OA
ATOM      4  O   UNL     1       5.891   3.492  17.605  0.00  0.00    +0.000 OA
BRANCH   2   8
ATOM      5  C   UNL     1       8.009   8.279  18.001  0.00  0.00    +0.000 A 
ATOM      6  C   UNL     1       6.941   8.322  17.099  0.00  0.00    +0.000 A 
ATOM      7  C   UNL     1       6.111   7.208  16.919  0.00  0.00    +0.000 A 
ATOM      8  C   UNL     1       6.345   6.037  17.644  0.00  0.00    +0.000 A 
ATOM      9  C   UNL     1       7.389   6.012  18.572  0.00  0.00    +0.000 A 
ATOM     10  C   UNL     1       8.249   7.105  18.712  0.00  0.00    +0.000 A 
BRANCH   5  12
ATOM     11  C   UNL     1       9.044   9.837  19.444  0.00  0.00    +0.000 C 
ATOM     12  O   UNL     1       8.749   9.423  18.110  0.00  0.00    +0.000 OA
ENDBRANCH   5  12
ENDBRANCH   2   8
ENDBRANCH   1   2
BRANCH   1  13
ATOM     13  C   UNL     1       3.790   6.047  19.649  0.00  0.00    +0.000 C 
BRANCH  13  14
ATOM     14  C   UNL     1       2.535   6.758  19.099  0.00  0.00    +0.000 C 
ATOM     15  C   UNL     1       1.834   7.512  20.246  0.00  0.00    +0.000 C 
ATOM     16  C   UNL     1       2.805   7.806  18.026  0.00  0.00    +0.000 C 
ENDBRANCH  13  14
ENDBRANCH   1  13
BRANCH   1  17
ATOM     17  C   UNL     1       3.196   3.571  19.137  0.00  0.00    +0.000 C 
BRANCH  17  18
ATOM     18  C   UNL     1       3.853   2.170  19.282  0.00  0.00    +0.000 C 
ATOM     19  O   UNL     1       3.491   1.159  18.676  0.00  0.00    +0.000 OA
ATOM     20  N   UNL     1       4.957   2.115  20.119  0.00  0.00    +0.000 N 
ATOM     21  H   UNL     1       4.937   2.642  20.993  0.00  0.00    +0.000 HD
BRANCH  20  22
ATOM     22  O   UNL     1       5.493   0.801  20.248  0.00  0.00    +0.000 OA
ATOM     23  H   UNL     1       4.684   0.259  20.401  0.00  0.00    +0.000 HD
ENDBRANCH  20  22
ENDBRANCH  17  18
BRANCH  17  24
ATOM     24  C   UNL     1       2.110   3.744  20.258  0.00  0.00    +0.000 C 
ATOM     25  C   UNL     1       0.699   3.393  19.744  0.00  0.00    +0.000 C 
ATOM     26  C   UNL     1       2.380   2.978  21.560  0.00  0.00    +0.000 C 
ENDBRANCH  17  24
ENDBRANCH   1  17
TORSDOF 9
ENDMDL
MODEL 9
REMARK VINA RESULT:      -6.5      2.540      3.525
REMARK  Name = 
REMARK  14 active torsions:
REMARK  status: ('A' for Active; 'I' for Inactive)
REMARK    1  A    between atoms: C_1  and  O_2
REMARK    2  A    between atoms: O_2  and  C_3
REMARK    3  A    between atoms: C_6  and  S_7
REMARK    4  A    between atoms: S_7  and  N_10
REMARK    5  A    between atoms: N_10  and  C_11
REMARK    6  A    between atoms: N_10  and  C_15
REMARK    7  A    between atoms: C_11  and  C_12
REMARK    8  A    between atoms: C_12  and  C_13
REMARK    9  A    between atoms: C_12  and  C_14
REMARK   10  A    between atoms: C_15  and  C_16
REMARK   11  A    between atoms: C_15  and  C_20
REMARK   12  A    between atoms: N_18  and  O_19
REMARK   13  A    between atoms: C_20  and  C_21
REMARK   14  A    between atoms: C_20  and  C_22
REMARK                            x       y       z     vdW  Elec       q    Type
REMARK                         _______ _______ _______ _____ _____    ______ ____
ROOT
ATOM      1  N   UNL     1       3.585   4.754  19.076  0.00  0.00    +0.000 NA
ENDROOT
BRANCH   1   2
ATOM      2  S   UNL     1       5.275   4.521  18.865  0.00  0.00    +0.000 S 
ATOM      3  O   UNL     1       5.561   3.167  19.291  0.00  0.00    +0.000 OA
ATOM      4  O   UNL     1       5.937   5.605  19.554  0.00  0.00    +0.000 OA
BRANCH   2   8
ATOM      5  C   UNL     1       6.595   4.578  14.477  0.00  0.00    +0.000 A 
ATOM      6  C   UNL     1       7.411   5.122  15.474  0.00  0.00    +0.000 A 
ATOM      7  C   UNL     1       6.976   5.179  16.804  0.00  0.00    +0.000 A 
ATOM      8  C   UNL     1       5.713   4.688  17.148  0.00  0.00    +0.000 A 
ATOM      9  C   UNL     1       4.917   4.109  16.155  0.00  0.00    +0.000 A 
ATOM     10  C   UNL     1       5.331   4.102  14.820  0.00  0.00    +0.000 A 
BRANCH   5  12
ATOM     11  C   UNL     1       8.196   5.470  12.987  0.00  0.00    +0.000 C 
ATOM     12  O   UNL     1       7.120   4.560  13.215  0.00  0.00    +0.000 OA
ENDBRANCH   5  12
ENDBRANCH   2   8
ENDBRANCH   1   2
BRANCH   1  13
ATOM     13  C   UNL     1       2.867   5.754  18.219  0.00  0.00    +0.000 C 
BRANCH  13  14
ATOM     14  C   UNL     1       3.241   7.247  18.341  0.00  0.00    +0.000 C 
ATOM     15  C   UNL     1       4.113   7.653  17.137  0.00  0.00    +0.000 C 
ATOM     16  C   UNL     1       2.060   8.209  18.334  0.00  0.00    +0.000 C 
ENDBRANCH  13  14
ENDBRANCH   1  13
BRANCH   1  17
ATOM     17  C   UNL     1       2.825   3.463  19.443  0.00  0.00    +0.000 C 
BRANCH  17  18
ATOM     18  C   UNL     1       1.944   3.582  20.718  0.00  0.00    +0.000 C 
ATOM     19  O   UNL     1       1.316   4.592  21.046  0.00  0.00    +0.000 OA
ATOM     20  N   UNL     1       1.839   2.428  21.479  0.00  0.00    +0.000 N 
ATOM     21  H   UNL     1       2.672   1.855  21.618  0.00  0.00    +0.000 HD
BRANCH  20  22
ATOM     22  O   UNL     1       1.055   2.605  22.655  0.00  0.00    +0.000 OA
ATOM     23  H   UNL     1       1.356   1.856  23.222  0.00  0.00    +0.000 HD
ENDBRANCH  20  22
ENDBRANCH  17  18
BRANCH  17  24
ATOM     24  C   UNL     1       1.954   2.877  18.275  0.00  0.00    +0.000 C 
ATOM     25  C   UNL     1       2.659   1.695  17.578  0.00  0.00    +0.000 C 
ATOM     26  C   UNL     1       0.529   2.459  18.661  0.00  0.00    +0.000 C 
ENDBRANCH  17  24
ENDBRANCH   1  17
TORSDOF 9
ENDMDL
