MODEL 1
REMARK VINA RESULT:      -7.1      0.000      0.000
REMARK  Name = 
REMARK  13 active torsions:
REMARK  status: ('A' for Active; 'I' for Inactive)
REMARK    1  A    between atoms: C_1  and  C_2
REMARK    2  A    between atoms: C_2  and  O_3
REMARK    3  A    between atoms: O_3  and  C_4
REMARK    4  A    between atoms: C_4  and  C_6
REMARK    5  A    between atoms: C_6  and  C_7
REMARK    6  A    between atoms: C_7  and  C_8
REMARK    7  A    between atoms: C_8  and  N_9
REMARK    8  A    between atoms: C_10  and  C_12
REMARK    9  A    between atoms: C_12  and  O_13
REMARK   10  A    between atoms: O_13  and  C_14
REMARK   11  A    between atoms: C_14  and  C_16
REMARK   12  A    between atoms: C_20  and  C_21
REMARK   13  A    between atoms: C_22  and  O_23
REMARK                            x       y       z     vdW  Elec       q    Type
REMARK                         _______ _______ _______ _____ _____    ______ ____
ROOT
ATOM      1  C   UNL     1       4.884   5.859  18.323  0.00  0.00    +0.000 C 
ENDROOT
BRANCH   1   3
ATOM      2  N   UNL     1       5.493   5.751  15.959  0.00  0.00    +0.000 N 
ATOM      3  C   UNL     1       5.742   5.242  17.218  0.00  0.00    +0.000 C 
ATOM      4  O   UNL     1       6.521   4.318  17.430  0.00  0.00    +0.000 OA
ATOM      5  H   UNL     1       4.825   6.514  15.879  0.00  0.00    +0.000 HD
BRANCH   2   6
ATOM      6  C   UNL     1       6.199   5.281  14.788  0.00  0.00    +0.000 C 
BRANCH   6   7
ATOM      7  C   UNL     1       5.376   4.295  13.965  0.00  0.00    +0.000 C 
BRANCH   7   8
ATOM      8  C   UNL     1       6.241   3.502  12.987  0.00  0.00    +0.000 C 
BRANCH   8   9
ATOM      9  C   UNL     1       5.400   2.796  11.954  0.00  0.00    +0.000 C 
ATOM     10  O   UNL     1       5.722   1.794  11.334  0.00  0.00    +0.000 OA
BRANCH   9  11
ATOM     11  O   UNL     1       4.259   3.517  11.752  0.00  0.00    +0.000 OA
BRANCH  11  13
ATOM     12  C   UNL     1       3.106   4.168   9.766  0.00  0.00    +0.000 C 
ATOM     13  C   UNL     1       3.404   3.020  10.713  0.00  0.00    +0.000 C 
ENDBRANCH  11  13
ENDBRANCH   9  11
ENDBRANCH   8   9
ENDBRANCH   7   8
ENDBRANCH   6   7
ENDBRANCH   2   6
ENDBRANCH   1   3
BRANCH   1  14
ATOM     14  O   UNL     1       3.704   6.513  17.851  0.00  0.00    +0.000 OA
BRANCH  14  15
ATOM     15  C   UNL     1       2.681   6.546  18.741  0.00  0.00    +0.000 C 
ATOM     16  O   UNL     1       2.277   7.530  19.331  0.00  0.00    +0.000 OA
BRANCH  15  17
ATOM     17  C   UNL     1       2.176   5.177  19.002  0.00  0.00    +0.000 A 
ATOM     18  C   UNL     1       1.805   4.423  17.879  0.00  0.00    +0.000 A 
ATOM     19  C   UNL     1       1.287   3.141  18.035  0.00  0.00    +0.000 A 
ATOM     20  C   UNL     1       1.141   2.601  19.313  0.00  0.00    +0.000 A 
ATOM     21  C   UNL     1       1.534   3.325  20.453  0.00  0.00    +0.000 A 
ATOM     22  C   UNL     1       1.387   2.675  21.800  0.00  0.00    +0.000 C 
ATOM     23  C   UNL     1       2.069   4.617  20.285  0.00  0.00    +0.000 A 
BRANCH  23  24
ATOM     24  O   UNL     1       2.534   5.328  21.363  0.00  0.00    +0.000 OA
ATOM     25  H   UNL     1       3.491   5.465  21.273  0.00  0.00    +0.000 HD
ENDBRANCH  23  24
ENDBRANCH  15  17
ENDBRANCH  14  15
ENDBRANCH   1  14
TORSDOF 11
ENDMDL
MODEL 2
REMARK VINA RESULT:      -7.1      1.339      1.601
REMARK  Name = 
REMARK  13 active torsions:
REMARK  status: ('A' for Active; 'I' for Inactive)
REMARK    1  A    between atoms: C_1  and  C_2
REMARK    2  A    between atoms: C_2  and  O_3
REMARK    3  A    between atoms: O_3  and  C_4
REMARK    4  A    between atoms: C_4  and  C_6
REMARK    5  A    between atoms: C_6  and  C_7
REMARK    6  A    between atoms: C_7  and  C_8
REMARK    7  A    between atoms: C_8  and  N_9
REMARK    8  A    between atoms: C_10  and  C_12
REMARK    9  A    between atoms: C_12  and  O_13
REMARK   10  A    between atoms: O_13  and  C_14
REMARK   11  A    between atoms: C_14  and  C_16
REMARK   12  A    between atoms: C_20  and  C_21
REMARK   13  A    between atoms: C_22  and  O_23
REMARK                            x       y       z     vdW  Elec       q    Type
REMARK                         _______ _______ _______ _____ _____    ______ ____
ROOT
ATOM      1  C   UNL     1       6.895   5.126  18.412  0.00  0.00    +0.000 C 
ENDROOT
BRANCH   1   3
ATOM      2  N   UNL     1       6.722   4.539  16.046  0.00  0.00    +0.000 N 
ATOM      3  C   UNL     1       7.117   5.507  16.948  0.00  0.00    +0.000 C 
ATOM      4  O   UNL     1       7.675   6.548  16.617  0.00  0.00    +0.000 OA
ATOM      5  H   UNL     1       6.273   3.703  16.414  0.00  0.00    +0.000 HD
BRANCH   2   6
ATOM      6  C   UNL     1       6.864   4.716  14.619  0.00  0.00    +0.000 C 
BRANCH   6   7
ATOM      7  C   UNL     1       6.410   3.492  13.830  0.00  0.00    +0.000 C 
BRANCH   7   8
ATOM      8  C   UNL     1       6.291   3.784  12.335  0.00  0.00    +0.000 C 
BRANCH   8   9
ATOM      9  C   UNL     1       5.274   2.888  11.676  0.00  0.00    +0.000 C 
ATOM     10  O   UNL     1       5.452   1.725  11.347  0.00  0.00    +0.000 OA
BRANCH   9  11
ATOM     11  O   UNL     1       4.151   3.619  11.417  0.00  0.00    +0.000 OA
BRANCH  11  13
ATOM     12  C   UNL     1       2.830   4.294   9.547  0.00  0.00    +0.000 C 
ATOM     13  C   UNL     1       3.329   3.110  10.358  0.00  0.00    +0.000 C 
ENDBRANCH  11  13
ENDBRANCH   9  11
ENDBRANCH   8   9
ENDBRANCH   7   8
ENDBRANCH   6   7
ENDBRANCH   2   6
ENDBRANCH   1   3
BRANCH   1  14
ATOM     14  O   UNL     1       5.680   5.627  18.970  0.00  0.00    +0.000 OA
BRANCH  14  15
ATOM     15  C   UNL     1       4.599   5.527  18.156  0.00  0.00    +0.000 C 
ATOM     16  O   UNL     1       4.272   6.326  17.299  0.00  0.00    +0.000 OA
BRANCH  15  17
ATOM     17  C   UNL     1       3.778   4.351  18.527  0.00  0.00    +0.000 A 
ATOM     18  C   UNL     1       3.829   3.252  17.657  0.00  0.00    +0.000 A 
ATOM     19  C   UNL     1       3.061   2.120  17.910  0.00  0.00    +0.000 A 
ATOM     20  C   UNL     1       2.242   2.074  19.038  0.00  0.00    +0.000 A 
ATOM     21  C   UNL     1       2.196   3.150  19.943  0.00  0.00    +0.000 A 
ATOM     22  C   UNL     1       1.323   3.026  21.160  0.00  0.00    +0.000 C 
ATOM     23  C   UNL     1       2.986   4.287  19.686  0.00  0.00    +0.000 A 
BRANCH  23  24
ATOM     24  O   UNL     1       3.030   5.327  20.580  0.00  0.00    +0.000 OA
ATOM     25  H   UNL     1       3.192   4.981  21.472  0.00  0.00    +0.000 HD
ENDBRANCH  23  24
ENDBRANCH  15  17
ENDBRANCH  14  15
ENDBRANCH   1  14
TORSDOF 11
ENDMDL
MODEL 3
REMARK VINA RESULT:      -7.0      1.147      1.351
REMARK  Name = 
REMARK  13 active torsions:
REMARK  status: ('A' for Active; 'I' for Inactive)
REMARK    1  A    between atoms: C_1  and  C_2
REMARK    2  A    between atoms: C_2  and  O_3
REMARK    3  A    between atoms: O_3  and  C_4
REMARK    4  A    between atoms: C_4  and  C_6
REMARK    5  A    between atoms: C_6  and  C_7
REMARK    6  A    between atoms: C_7  and  C_8
REMARK    7  A    between atoms: C_8  and  N_9
REMARK    8  A    between atoms: C_10  and  C_12
REMARK    9  A    between atoms: C_12  and  O_13
REMARK   10  A    between atoms: O_13  and  C_14
REMARK   11  A    between atoms: C_14  and  C_16
REMARK   12  A    between atoms: C_20  and  C_21
REMARK   13  A    between atoms: C_22  and  O_23
REMARK                            x       y       z     vdW  Elec       q    Type
REMARK                         _______ _______ _______ _____ _____    ______ ____
ROOT
ATOM      1  C   UNL     1       5.909   5.892  16.882  0.00  0.00    +0.000 C 
ENDROOT
BRANCH   1   3
ATOM      2  N   UNL     1       6.685   5.555  14.589  0.00  0.00    +0.000 N 
ATOM      3  C   UNL     1       6.933   5.288  15.920  0.00  0.00    +0.000 C 
ATOM      4  O   UNL     1       7.844   4.560  16.303  0.00  0.00    +0.000 OA
ATOM      5  H   UNL     1       5.902   6.165  14.366  0.00  0.00    +0.000 HD
BRANCH   2   6
ATOM      6  C   UNL     1       7.539   5.057  13.534  0.00  0.00    +0.000 C 
BRANCH   6   7
ATOM      7  C   UNL     1       6.996   3.783  12.895  0.00  0.00    +0.000 C 
BRANCH   7   8
ATOM      8  C   UNL     1       5.470   3.732  12.923  0.00  0.00    +0.000 C 
BRANCH   8   9
ATOM      9  C   UNL     1       4.917   3.070  11.686  0.00  0.00    +0.000 C 
ATOM     10  O   UNL     1       5.162   1.933  11.314  0.00  0.00    +0.000 OA
BRANCH   9  11
ATOM     11  O   UNL     1       4.175   3.984  10.996  0.00  0.00    +0.000 OA
BRANCH  11  13
ATOM     12  C   UNL     1       2.600   4.532   9.289  0.00  0.00    +0.000 C 
ATOM     13  C   UNL     1       3.129   3.428  10.188  0.00  0.00    +0.000 C 
ENDBRANCH  11  13
ENDBRANCH   9  11
ENDBRANCH   8   9
ENDBRANCH   7   8
ENDBRANCH   6   7
ENDBRANCH   2   6
ENDBRANCH   1   3
BRANCH   1  14
ATOM     14  O   UNL     1       4.594   5.348  16.754  0.00  0.00    +0.000 OA
BRANCH  14  15
ATOM     15  C   UNL     1       3.744   5.683  17.756  0.00  0.00    +0.000 C 
ATOM     16  O   UNL     1       3.597   6.794  18.230  0.00  0.00    +0.000 OA
BRANCH  15  17
ATOM     17  C   UNL     1       3.079   4.474  18.297  0.00  0.00    +0.000 A 
ATOM     18  C   UNL     1       2.858   3.424  17.394  0.00  0.00    +0.000 A 
ATOM     19  C   UNL     1       2.207   2.266  17.810  0.00  0.00    +0.000 A 
ATOM     20  C   UNL     1       1.780   2.146  19.132  0.00  0.00    +0.000 A 
ATOM     21  C   UNL     1       2.018   3.171  20.065  0.00  0.00    +0.000 A 
ATOM     22  C   UNL     1       1.567   2.967  21.485  0.00  0.00    +0.000 C 
ATOM     23  C   UNL     1       2.688   4.334  19.639  0.00  0.00    +0.000 A 
BRANCH  23  24
ATOM     24  O   UNL     1       3.007   5.326  20.532  0.00  0.00    +0.000 OA
ATOM     25  H   UNL     1       3.549   4.956  21.247  0.00  0.00    +0.000 HD
ENDBRANCH  23  24
ENDBRANCH  15  17
ENDBRANCH  14  15
ENDBRANCH   1  14
TORSDOF 11
ENDMDL
MODEL 4
REMARK VINA RESULT:      -6.7      2.597      7.017
REMARK  Name = 
REMARK  13 active torsions:
REMARK  status: ('A' for Active; 'I' for Inactive)
REMARK    1  A    between atoms: C_1  and  C_2
REMARK    2  A    between atoms: C_2  and  O_3
REMARK    3  A    between atoms: O_3  and  C_4
REMARK    4  A    between atoms: C_4  and  C_6
REMARK    5  A    between atoms: C_6  and  C_7
REMARK    6  A    between atoms: C_7  and  C_8
REMARK    7  A    between atoms: C_8  and  N_9
REMARK    8  A    between atoms: C_10  and  C_12
REMARK    9  A    between atoms: C_12  and  O_13
REMARK   10  A    between atoms: O_13  and  C_14
REMARK   11  A    between atoms: C_14  and  C_16
REMARK   12  A    between atoms: C_20  and  C_21
REMARK   13  A    between atoms: C_22  and  O_23
REMARK                            x       y       z     vdW  Elec       q    Type
REMARK                         _______ _______ _______ _____ _____    ______ ____
ROOT
ATOM      1  C   UNL     1       6.248   5.687  18.739  0.00  0.00    +0.000 C 
ENDROOT
BRANCH   1   3
ATOM      2  N   UNL     1       5.284   3.446  18.882  0.00  0.00    +0.000 N 
ATOM      3  C   UNL     1       5.145   4.766  19.261  0.00  0.00    +0.000 C 
ATOM      4  O   UNL     1       4.180   5.188  19.891  0.00  0.00    +0.000 OA
ATOM      5  H   UNL     1       6.116   3.189  18.354  0.00  0.00    +0.000 HD
BRANCH   2   6
ATOM      6  C   UNL     1       4.332   2.431  19.271  0.00  0.00    +0.000 C 
BRANCH   6   7
ATOM      7  C   UNL     1       3.448   1.983  18.111  0.00  0.00    +0.000 C 
BRANCH   7   8
ATOM      8  C   UNL     1       1.964   2.031  18.470  0.00  0.00    +0.000 C 
BRANCH   8   9
ATOM      9  C   UNL     1       1.413   3.430  18.355  0.00  0.00    +0.000 C 
ATOM     10  O   UNL     1       1.189   4.026  17.313  0.00  0.00    +0.000 OA
BRANCH   9  11
ATOM     11  O   UNL     1       1.299   3.959  19.608  0.00  0.00    +0.000 OA
BRANCH  11  13
ATOM     12  C   UNL     1       1.902   3.228  21.798  0.00  0.00    +0.000 C 
ATOM     13  C   UNL     1       0.951   3.019  20.633  0.00  0.00    +0.000 C 
ENDBRANCH  11  13
ENDBRANCH   9  11
ENDBRANCH   8   9
ENDBRANCH   7   8
ENDBRANCH   6   7
ENDBRANCH   2   6
ENDBRANCH   1   3
BRANCH   1  14
ATOM     14  O   UNL     1       5.949   6.308  17.488  0.00  0.00    +0.000 OA
BRANCH  14  15
ATOM     15  C   UNL     1       6.899   6.146  16.534  0.00  0.00    +0.000 C 
ATOM     16  O   UNL     1       7.987   6.690  16.508  0.00  0.00    +0.000 OA
BRANCH  15  17
ATOM     17  C   UNL     1       6.391   5.291  15.435  0.00  0.00    +0.000 A 
ATOM     18  C   UNL     1       5.126   4.714  15.625  0.00  0.00    +0.000 A 
ATOM     19  C   UNL     1       4.588   3.869  14.658  0.00  0.00    +0.000 A 
ATOM     20  C   UNL     1       5.307   3.600  13.494  0.00  0.00    +0.000 A 
ATOM     21  C   UNL     1       6.563   4.191  13.266  0.00  0.00    +0.000 A 
ATOM     22  C   UNL     1       7.271   3.892  11.974  0.00  0.00    +0.000 C 
ATOM     23  C   UNL     1       7.094   5.055  14.242  0.00  0.00    +0.000 A 
BRANCH  23  24
ATOM     24  O   UNL     1       8.280   5.710  14.028  0.00  0.00    +0.000 OA
ATOM     25  H   UNL     1       8.258   6.145  13.160  0.00  0.00    +0.000 HD
ENDBRANCH  23  24
ENDBRANCH  15  17
ENDBRANCH  14  15
ENDBRANCH   1  14
TORSDOF 11
ENDMDL
MODEL 5
REMARK VINA RESULT:      -6.5      1.117      1.206
REMARK  Name = 
REMARK  13 active torsions:
REMARK  status: ('A' for Active; 'I' for Inactive)
REMARK    1  A    between atoms: C_1  and  C_2
REMARK    2  A    between atoms: C_2  and  O_3
REMARK    3  A    between atoms: O_3  and  C_4
REMARK    4  A    between atoms: C_4  and  C_6
REMARK    5  A    between atoms: C_6  and  C_7
REMARK    6  A    between atoms: C_7  and  C_8
REMARK    7  A    between atoms: C_8  and  N_9
REMARK    8  A    between atoms: C_10  and  C_12
REMARK    9  A    between atoms: C_12  and  O_13
REMARK   10  A    between atoms: O_13  and  C_14
REMARK   11  A    between atoms: C_14  and  C_16
REMARK   12  A    between atoms: C_20  and  C_21
REMARK   13  A    between atoms: C_22  and  O_23
REMARK                            x       y       z     vdW  Elec       q    Type
REMARK                         _______ _______ _______ _____ _____    ______ ____
ROOT
ATOM      1  C   UNL     1       4.984   6.756  17.241  0.00  0.00    +0.000 C 
ENDROOT
BRANCH   1   3
ATOM      2  N   UNL     1       6.439   5.368  15.852  0.00  0.00    +0.000 N 
ATOM      3  C   UNL     1       5.483   6.365  15.850  0.00  0.00    +0.000 C 
ATOM      4  O   UNL     1       5.121   6.949  14.833  0.00  0.00    +0.000 OA
ATOM      5  H   UNL     1       6.680   4.945  16.745  0.00  0.00    +0.000 HD
BRANCH   2   6
ATOM      6  C   UNL     1       7.036   4.875  14.632  0.00  0.00    +0.000 C 
BRANCH   6   7
ATOM      7  C   UNL     1       6.280   3.685  14.050  0.00  0.00    +0.000 C 
BRANCH   7   8
ATOM      8  C   UNL     1       5.595   4.030  12.730  0.00  0.00    +0.000 C 
BRANCH   8   9
ATOM      9  C   UNL     1       5.450   2.815  11.849  0.00  0.00    +0.000 C 
ATOM     10  O   UNL     1       6.321   1.989  11.622  0.00  0.00    +0.000 OA
BRANCH   9  11
ATOM     11  O   UNL     1       4.215   2.841  11.268  0.00  0.00    +0.000 OA
BRANCH  11  13
ATOM     12  C   UNL     1       2.843   3.766   9.549  0.00  0.00    +0.000 C 
ATOM     13  C   UNL     1       3.879   4.072  10.615  0.00  0.00    +0.000 C 
ENDBRANCH  11  13
ENDBRANCH   9  11
ENDBRANCH   8   9
ENDBRANCH   7   8
ENDBRANCH   6   7
ENDBRANCH   2   6
ENDBRANCH   1   3
BRANCH   1  14
ATOM     14  O   UNL     1       4.419   5.676  17.985  0.00  0.00    +0.000 OA
BRANCH  14  15
ATOM     15  C   UNL     1       3.129   5.861  18.362  0.00  0.00    +0.000 C 
ATOM     16  O   UNL     1       2.548   6.928  18.425  0.00  0.00    +0.000 OA
BRANCH  15  17
ATOM     17  C   UNL     1       2.531   4.582  18.811  0.00  0.00    +0.000 A 
ATOM     18  C   UNL     1       2.246   3.640  17.812  0.00  0.00    +0.000 A 
ATOM     19  C   UNL     1       1.651   2.426  18.141  0.00  0.00    +0.000 A 
ATOM     20  C   UNL     1       1.342   2.142  19.471  0.00  0.00    +0.000 A 
ATOM     21  C   UNL     1       1.645   3.057  20.495  0.00  0.00    +0.000 A 
ATOM     22  C   UNL     1       1.322   2.678  21.914  0.00  0.00    +0.000 C 
ATOM     23  C   UNL     1       2.259   4.277  20.155  0.00  0.00    +0.000 A 
BRANCH  23  24
ATOM     24  O   UNL     1       2.641   5.166  21.129  0.00  0.00    +0.000 OA
ATOM     25  H   UNL     1       3.609   5.235  21.143  0.00  0.00    +0.000 HD
ENDBRANCH  23  24
ENDBRANCH  15  17
ENDBRANCH  14  15
ENDBRANCH   1  14
TORSDOF 11
ENDMDL
MODEL 6
REMARK VINA RESULT:      -6.5      1.466      1.939
REMARK  Name = 
REMARK  13 active torsions:
REMARK  status: ('A' for Active; 'I' for Inactive)
REMARK    1  A    between atoms: C_1  and  C_2
REMARK    2  A    between atoms: C_2  and  O_3
REMARK    3  A    between atoms: O_3  and  C_4
REMARK    4  A    between atoms: C_4  and  C_6
REMARK    5  A    between atoms: C_6  and  C_7
REMARK    6  A    between atoms: C_7  and  C_8
REMARK    7  A    between atoms: C_8  and  N_9
REMARK    8  A    between atoms: C_10  and  C_12
REMARK    9  A    between atoms: C_12  and  O_13
REMARK   10  A    between atoms: O_13  and  C_14
REMARK   11  A    between atoms: C_14  and  C_16
REMARK   12  A    between atoms: C_20  and  C_21
REMARK   13  A    between atoms: C_22  and  O_23
REMARK                            x       y       z     vdW  Elec       q    Type
REMARK                         _______ _______ _______ _____ _____    ______ ____
ROOT
ATOM      1  C   UNL     1       6.788   5.974  17.428  0.00  0.00    +0.000 C 
ENDROOT
BRANCH   1   3
ATOM      2  N   UNL     1       5.551   5.113  15.504  0.00  0.00    +0.000 N 
ATOM      3  C   UNL     1       6.751   5.640  15.936  0.00  0.00    +0.000 C 
ATOM      4  O   UNL     1       7.736   5.756  15.213  0.00  0.00    +0.000 OA
ATOM      5  H   UNL     1       4.791   5.050  16.177  0.00  0.00    +0.000 HD
BRANCH   2   6
ATOM      6  C   UNL     1       5.333   4.727  14.128  0.00  0.00    +0.000 C 
BRANCH   6   7
ATOM      7  C   UNL     1       6.237   3.577  13.694  0.00  0.00    +0.000 C 
BRANCH   7   8
ATOM      8  C   UNL     1       6.339   3.470  12.174  0.00  0.00    +0.000 C 
BRANCH   8   9
ATOM      9  C   UNL     1       5.410   2.414  11.631  0.00  0.00    +0.000 C 
ATOM     10  O   UNL     1       5.745   1.324  11.193  0.00  0.00    +0.000 OA
BRANCH   9  11
ATOM     11  O   UNL     1       4.140   2.914  11.617  0.00  0.00    +0.000 OA
BRANCH  11  13
ATOM     12  C   UNL     1       2.918   3.579   9.678  0.00  0.00    +0.000 C 
ATOM     13  C   UNL     1       3.933   4.014  10.721  0.00  0.00    +0.000 C 
ENDBRANCH  11  13
ENDBRANCH   9  11
ENDBRANCH   8   9
ENDBRANCH   7   8
ENDBRANCH   6   7
ENDBRANCH   2   6
ENDBRANCH   1   3
BRANCH   1  14
ATOM     14  O   UNL     1       5.515   5.910  18.073  0.00  0.00    +0.000 OA
BRANCH  14  15
ATOM     15  C   UNL     1       5.442   5.020  19.094  0.00  0.00    +0.000 C 
ATOM     16  O   UNL     1       6.272   4.865  19.969  0.00  0.00    +0.000 OA
BRANCH  15  17
ATOM     17  C   UNL     1       4.248   4.155  18.943  0.00  0.00    +0.000 A 
ATOM     18  C   UNL     1       4.337   3.125  17.996  0.00  0.00    +0.000 A 
ATOM     19  C   UNL     1       3.249   2.288  17.765  0.00  0.00    +0.000 A 
ATOM     20  C   UNL     1       2.068   2.470  18.483  0.00  0.00    +0.000 A 
ATOM     21  C   UNL     1       1.963   3.477  19.460  0.00  0.00    +0.000 A 
ATOM     22  C   UNL     1       0.676   3.599  20.228  0.00  0.00    +0.000 C 
ATOM     23  C   UNL     1       3.073   4.310  19.697  0.00  0.00    +0.000 A 
BRANCH  23  24
ATOM     24  O   UNL     1       3.040   5.255  20.692  0.00  0.00    +0.000 OA
ATOM     25  H   UNL     1       2.220   5.159  21.203  0.00  0.00    +0.000 HD
ENDBRANCH  23  24
ENDBRANCH  15  17
ENDBRANCH  14  15
ENDBRANCH   1  14
TORSDOF 11
ENDMDL
MODEL 7
REMARK VINA RESULT:      -6.5      5.017      8.022
REMARK  Name = 
REMARK  13 active torsions:
REMARK  status: ('A' for Active; 'I' for Inactive)
REMARK    1  A    between atoms: C_1  and  C_2
REMARK    2  A    between atoms: C_2  and  O_3
REMARK    3  A    between atoms: O_3  and  C_4
REMARK    4  A    between atoms: C_4  and  C_6
REMARK    5  A    between atoms: C_6  and  C_7
REMARK    6  A    between atoms: C_7  and  C_8
REMARK    7  A    between atoms: C_8  and  N_9
REMARK    8  A    between atoms: C_10  and  C_12
REMARK    9  A    between atoms: C_12  and  O_13
REMARK   10  A    between atoms: O_13  and  C_14
REMARK   11  A    between atoms: C_14  and  C_16
REMARK   12  A    between atoms: C_20  and  C_21
REMARK   13  A    between atoms: C_22  and  O_23
REMARK                            x       y       z     vdW  Elec       q    Type
REMARK                         _______ _______ _______ _____ _____    ______ ____
ROOT
ATOM      1  C   UNL     1       7.680   5.716  18.456  0.00  0.00    +0.000 C 
ENDROOT
BRANCH   1   3
ATOM      2  N   UNL     1       8.442   8.025  18.688  0.00  0.00    +0.000 N 
ATOM      3  C   UNL     1       7.729   7.141  17.904  0.00  0.00    +0.000 C 
ATOM      4  O   UNL     1       7.115   7.477  16.896  0.00  0.00    +0.000 OA
ATOM      5  H   UNL     1       8.915   7.657  19.510  0.00  0.00    +0.000 HD
BRANCH   2   6
ATOM      6  C   UNL     1       8.589   9.419  18.333  0.00  0.00    +0.000 C 
BRANCH   6   7
ATOM      7  C   UNL     1       9.342  10.216  19.393  0.00  0.00    +0.000 C 
BRANCH   7   8
ATOM      8  C   UNL     1       9.712  11.615  18.904  0.00  0.00    +0.000 C 
BRANCH   8   9
ATOM      9  C   UNL     1       9.318  12.672  19.905  0.00  0.00    +0.000 C 
ATOM     10  O   UNL     1       8.742  13.718  19.649  0.00  0.00    +0.000 OA
BRANCH   9  11
ATOM     11  O   UNL     1       9.799  12.315  21.131  0.00  0.00    +0.000 OA
BRANCH  11  13
ATOM     12  C   UNL     1       8.187  11.766  22.803  0.00  0.00    +0.000 C 
ATOM     13  C   UNL     1       9.081  12.860  22.246  0.00  0.00    +0.000 C 
ENDBRANCH  11  13
ENDBRANCH   9  11
ENDBRANCH   8   9
ENDBRANCH   7   8
ENDBRANCH   6   7
ENDBRANCH   2   6
ENDBRANCH   1   3
BRANCH   1  14
ATOM     14  O   UNL     1       6.373   5.278  18.831  0.00  0.00    +0.000 OA
BRANCH  14  15
ATOM     15  C   UNL     1       5.728   4.547  17.887  0.00  0.00    +0.000 C 
ATOM     16  O   UNL     1       6.187   4.196  16.816  0.00  0.00    +0.000 OA
BRANCH  15  17
ATOM     17  C   UNL     1       4.318   4.320  18.281  0.00  0.00    +0.000 A 
ATOM     18  C   UNL     1       3.347   5.055  17.584  0.00  0.00    +0.000 A 
ATOM     19  C   UNL     1       2.001   4.930  17.914  0.00  0.00    +0.000 A 
ATOM     20  C   UNL     1       1.614   4.065  18.937  0.00  0.00    +0.000 A 
ATOM     21  C   UNL     1       2.565   3.293  19.630  0.00  0.00    +0.000 A 
ATOM     22  C   UNL     1       2.082   2.351  20.697  0.00  0.00    +0.000 C 
ATOM     23  C   UNL     1       3.923   3.417  19.281  0.00  0.00    +0.000 A 
BRANCH  23  24
ATOM     24  O   UNL     1       4.875   2.629  19.879  0.00  0.00    +0.000 OA
ATOM     25  H   UNL     1       5.367   2.142  19.199  0.00  0.00    +0.000 HD
ENDBRANCH  23  24
ENDBRANCH  15  17
ENDBRANCH  14  15
ENDBRANCH   1  14
TORSDOF 11
ENDMDL
MODEL 8
REMARK VINA RESULT:      -6.5      4.892      7.557
REMARK  Name = 
REMARK  13 active torsions:
REMARK  status: ('A' for Active; 'I' for Inactive)
REMARK    1  A    between atoms: C_1  and  C_2
REMARK    2  A    between atoms: C_2  and  O_3
REMARK    3  A    between atoms: O_3  and  C_4
REMARK    4  A    between atoms: C_4  and  C_6
REMARK    5  A    between atoms: C_6  and  C_7
REMARK    6  A    between atoms: C_7  and  C_8
REMARK    7  A    between atoms: C_8  and  N_9
REMARK    8  A    between atoms: C_10  and  C_12
REMARK    9  A    between atoms: C_12  and  O_13
REMARK   10  A    between atoms: O_13  and  C_14
REMARK   11  A    between atoms: C_14  and  C_16
REMARK   12  A    between atoms: C_20  and  C_21
REMARK   13  A    between atoms: C_22  and  O_23
REMARK                            x       y       z     vdW  Elec       q    Type
REMARK                         _______ _______ _______ _____ _____    ______ ____
ROOT
ATOM      1  C   UNL     1       7.096   5.070  16.895  0.00  0.00    +0.000 C 
ENDROOT
BRANCH   1   3
ATOM      2  N   UNL     1       7.843   7.261  17.678  0.00  0.00    +0.000 N 
ATOM      3  C   UNL     1       6.944   6.592  16.872  0.00  0.00    +0.000 C 
ATOM      4  O   UNL     1       6.046   7.153  16.253  0.00  0.00    +0.000 OA
ATOM      5  H   UNL     1       8.550   6.710  18.159  0.00  0.00    +0.000 HD
BRANCH   2   6
ATOM      6  C   UNL     1       7.844   8.702  17.794  0.00  0.00    +0.000 C 
BRANCH   6   7
ATOM      7  C   UNL     1       8.811   9.202  18.862  0.00  0.00    +0.000 C 
BRANCH   7   8
ATOM      8  C   UNL     1       9.291  10.624  18.582  0.00  0.00    +0.000 C 
BRANCH   8   9
ATOM      9  C   UNL     1       9.633  11.352  19.857  0.00  0.00    +0.000 C 
ATOM     10  O   UNL     1       9.293  11.021  20.983  0.00  0.00    +0.000 OA
BRANCH   9  11
ATOM     11  O   UNL     1      10.303  12.498  19.540  0.00  0.00    +0.000 OA
BRANCH  11  13
ATOM     12  C   UNL     1      12.312  13.756  19.261  0.00  0.00    +0.000 C 
ATOM     13  C   UNL     1      11.715  12.463  19.788  0.00  0.00    +0.000 C 
ENDBRANCH  11  13
ENDBRANCH   9  11
ENDBRANCH   8   9
ENDBRANCH   7   8
ENDBRANCH   6   7
ENDBRANCH   2   6
ENDBRANCH   1   3
BRANCH   1  14
ATOM     14  O   UNL     1       5.890   4.366  17.195  0.00  0.00    +0.000 OA
BRANCH  14  15
ATOM     15  C   UNL     1       5.555   4.351  18.509  0.00  0.00    +0.000 C 
ATOM     16  O   UNL     1       6.331   4.379  19.446  0.00  0.00    +0.000 OA
BRANCH  15  17
ATOM     17  C   UNL     1       4.092   4.174  18.670  0.00  0.00    +0.000 A 
ATOM     18  C   UNL     1       3.277   4.811  17.722  0.00  0.00    +0.000 A 
ATOM     19  C   UNL     1       1.892   4.727  17.819  0.00  0.00    +0.000 A 
ATOM     20  C   UNL     1       1.311   4.001  18.858  0.00  0.00    +0.000 A 
ATOM     21  C   UNL     1       2.106   3.328  19.803  0.00  0.00    +0.000 A 
ATOM     22  C   UNL     1       1.421   2.531  20.878  0.00  0.00    +0.000 C 
ATOM     23  C   UNL     1       3.507   3.408  19.691  0.00  0.00    +0.000 A 
BRANCH  23  24
ATOM     24  O   UNL     1       4.320   2.706  20.545  0.00  0.00    +0.000 OA
ATOM     25  H   UNL     1       4.110   1.760  20.489  0.00  0.00    +0.000 HD
ENDBRANCH  23  24
ENDBRANCH  15  17
ENDBRANCH  14  15
ENDBRANCH   1  14
TORSDOF 11
ENDMDL
MODEL 9
REMARK VINA RESULT:      -6.5      4.428      7.340
REMARK  Name = 
REMARK  13 active torsions:
REMARK  status: ('A' for Active; 'I' for Inactive)
REMARK    1  A    between atoms: C_1  and  C_2
REMARK    2  A    between atoms: C_2  and  O_3
REMARK    3  A    between atoms: O_3  and  C_4
REMARK    4  A    between atoms: C_4  and  C_6
REMARK    5  A    between atoms: C_6  and  C_7
REMARK    6  A    between atoms: C_7  and  C_8
REMARK    7  A    between atoms: C_8  and  N_9
REMARK    8  A    between atoms: C_10  and  C_12
REMARK    9  A    between atoms: C_12  and  O_13
REMARK   10  A    between atoms: O_13  and  C_14
REMARK   11  A    between atoms: C_14  and  C_16
REMARK   12  A    between atoms: C_20  and  C_21
REMARK   13  A    between atoms: C_22  and  O_23
REMARK                            x       y       z     vdW  Elec       q    Type
REMARK                         _______ _______ _______ _____ _____    ______ ____
ROOT
ATOM      1  C   UNL     1       6.977   5.153  16.437  0.00  0.00    +0.000 C 
ENDROOT
BRANCH   1   3
ATOM      2  N   UNL     1       7.647   7.338  17.301  0.00  0.00    +0.000 N 
ATOM      3  C   UNL     1       6.682   6.645  16.599  0.00  0.00    +0.000 C 
ATOM      4  O   UNL     1       5.637   7.154  16.208  0.00  0.00    +0.000 OA
ATOM      5  H   UNL     1       8.480   6.830  17.591  0.00  0.00    +0.000 HD
BRANCH   2   6
ATOM      6  C   UNL     1       7.536   8.755  17.564  0.00  0.00    +0.000 C 
BRANCH   6   7
ATOM      7  C   UNL     1       8.666   9.277  18.445  0.00  0.00    +0.000 C 
BRANCH   7   8
ATOM      8  C   UNL     1       8.992  10.740  18.154  0.00  0.00    +0.000 C 
BRANCH   8   9
ATOM      9  C   UNL     1       9.872  11.333  19.225  0.00  0.00    +0.000 C 
ATOM     10  O   UNL     1      11.091  11.266  19.266  0.00  0.00    +0.000 OA
BRANCH   9  11
ATOM     11  O   UNL     1       9.078  11.874  20.194  0.00  0.00    +0.000 OA
BRANCH  11  13
ATOM     12  C   UNL     1       8.195  11.907  22.411  0.00  0.00    +0.000 C 
ATOM     13  C   UNL     1       9.268  11.328  21.506  0.00  0.00    +0.000 C 
ENDBRANCH  11  13
ENDBRANCH   9  11
ENDBRANCH   8   9
ENDBRANCH   7   8
ENDBRANCH   6   7
ENDBRANCH   2   6
ENDBRANCH   1   3
BRANCH   1  14
ATOM     14  O   UNL     1       5.919   4.297  16.872  0.00  0.00    +0.000 OA
BRANCH  14  15
ATOM     15  C   UNL     1       5.688   4.314  18.208  0.00  0.00    +0.000 C 
ATOM     16  O   UNL     1       6.536   4.358  19.080  0.00  0.00    +0.000 OA
BRANCH  15  17
ATOM     17  C   UNL     1       4.242   4.153  18.487  0.00  0.00    +0.000 A 
ATOM     18  C   UNL     1       3.360   4.837  17.638  0.00  0.00    +0.000 A 
ATOM     19  C   UNL     1       1.987   4.769  17.851  0.00  0.00    +0.000 A 
ATOM     20  C   UNL     1       1.484   4.012  18.909  0.00  0.00    +0.000 A 
ATOM     21  C   UNL     1       2.345   3.291  19.756  0.00  0.00    +0.000 A 
ATOM     22  C   UNL     1       1.741   2.463  20.855  0.00  0.00    +0.000 C 
ATOM     23  C   UNL     1       3.733   3.355  19.526  0.00  0.00    +0.000 A 
BRANCH  23  24
ATOM     24  O   UNL     1       4.603   2.609  20.280  0.00  0.00    +0.000 OA
ATOM     25  H   UNL     1       4.176   1.777  20.539  0.00  0.00    +0.000 HD
ENDBRANCH  23  24
ENDBRANCH  15  17
ENDBRANCH  14  15
ENDBRANCH   1  14
TORSDOF 11
ENDMDL
