MODEL 1
REMARK VINA RESULT:      -6.9      0.000      0.000
REMARK  Name = 
REMARK  7 active torsions:
REMARK  status: ('A' for Active; 'I' for Inactive)
REMARK    1  A    between atoms: C_1  and  O_2
REMARK    2  A    between atoms: O_2  and  C_3
REMARK    3  A    between atoms: C_3  and  C_4
REMARK    4  A    between atoms: C_4  and  N_5
REMARK    5  A    between atoms: N_11  and  C_12
REMARK    6  A    between atoms: C_12  and  C_13
REMARK    7  A    between atoms: C_17  and  C_18
REMARK                            x       y       z     vdW  Elec       q    Type
REMARK                         _______ _______ _______ _____ _____    ______ ____
ROOT
ATOM      1  N   UNL     1       2.761   3.618  18.130  0.00  0.00    +0.000 NA
ATOM      2  C   UNL     1       3.484   2.414  18.603  0.00  0.00    +0.000 C 
ATOM      3  C   UNL     1       4.540   2.717  19.676  0.00  0.00    +0.000 C 
ATOM      4  O   UNL     1       5.482   3.691  19.227  0.00  0.00    +0.000 OA
ATOM      5  C   UNL     1       4.859   4.904  18.765  0.00  0.00    +0.000 C 
ATOM      6  C   UNL     1       5.898   5.680  17.948  0.00  0.00    +0.000 C 
ATOM      7  N   UNL     1       5.737   5.290  16.526  0.00  0.00    +0.000 NA
ATOM      8  C   UNL     1       4.576   4.364  16.470  0.00  0.00    +0.000 C 
ATOM      9  C   UNL     1       3.746   4.655  17.740  0.00  0.00    +0.000 C 
ENDROOT
BRANCH   1  10
ATOM     10  C   UNL     1       1.832   4.071  19.200  0.00  0.00    +0.000 C 
BRANCH  10  11
ATOM     11  C   UNL     1       0.823   3.053  19.759  0.00  0.00    +0.000 C 
BRANCH  11  13
ATOM     12  C   UNL     1       1.997   3.684  21.693  0.00  0.00    +0.000 C 
ATOM     13  O   UNL     1       1.121   2.726  21.114  0.00  0.00    +0.000 OA
ENDBRANCH  11  13
ENDBRANCH  10  11
ENDBRANCH   1  10
BRANCH   7  14
ATOM     14  C   UNL     1       6.949   4.615  16.011  0.00  0.00    +0.000 C 
BRANCH  14  15
ATOM     15  C   UNL     1       7.029   4.523  14.491  0.00  0.00    +0.000 A 
ATOM     16  C   UNL     1       7.835   5.413  13.782  0.00  0.00    +0.000 A 
ATOM     17  C   UNL     1       7.820   5.372  12.394  0.00  0.00    +0.000 A 
ATOM     18  C   UNL     1       7.008   4.448  11.746  0.00  0.00    +0.000 A 
ATOM     19  C   UNL     1       6.249   3.575  12.510  0.00  0.00    +0.000 A 
ATOM     20  C   UNL     1       5.391   2.533  11.851  0.00  0.00    +0.000 C 
ATOM     21  N   UNL     1       6.240   3.604  13.867  0.00  0.00    +0.000 NA
ENDBRANCH  14  15
ENDBRANCH   7  14
TORSDOF 5
ENDMDL
MODEL 2
REMARK VINA RESULT:      -6.8      0.941      1.643
REMARK  Name = 
REMARK  7 active torsions:
REMARK  status: ('A' for Active; 'I' for Inactive)
REMARK    1  A    between atoms: C_1  and  O_2
REMARK    2  A    between atoms: O_2  and  C_3
REMARK    3  A    between atoms: C_3  and  C_4
REMARK    4  A    between atoms: C_4  and  N_5
REMARK    5  A    between atoms: N_11  and  C_12
REMARK    6  A    between atoms: C_12  and  C_13
REMARK    7  A    between atoms: C_17  and  C_18
REMARK                            x       y       z     vdW  Elec       q    Type
REMARK                         _______ _______ _______ _____ _____    ______ ____
ROOT
ATOM      1  N   UNL     1       2.832   4.450  18.324  0.00  0.00    +0.000 NA
ATOM      2  C   UNL     1       3.258   3.062  18.625  0.00  0.00    +0.000 C 
ATOM      3  C   UNL     1       4.365   2.978  19.685  0.00  0.00    +0.000 C 
ATOM      4  O   UNL     1       5.505   3.755  19.317  0.00  0.00    +0.000 OA
ATOM      5  C   UNL     1       5.179   5.126  19.024  0.00  0.00    +0.000 C 
ATOM      6  C   UNL     1       6.363   5.735  18.265  0.00  0.00    +0.000 C 
ATOM      7  N   UNL     1       6.102   5.570  16.814  0.00  0.00    +0.000 NA
ATOM      8  C   UNL     1       4.756   4.953  16.694  0.00  0.00    +0.000 C 
ATOM      9  C   UNL     1       4.029   5.270  18.020  0.00  0.00    +0.000 C 
ENDROOT
BRANCH   1  10
ATOM     10  C   UNL     1       2.045   4.970  19.473  0.00  0.00    +0.000 C 
BRANCH  10  11
ATOM     11  C   UNL     1       1.064   4.013  20.170  0.00  0.00    +0.000 C 
BRANCH  11  13
ATOM     12  C   UNL     1       1.451   2.381  21.813  0.00  0.00    +0.000 C 
ATOM     13  O   UNL     1       1.451   3.772  21.520  0.00  0.00    +0.000 OA
ENDBRANCH  11  13
ENDBRANCH  10  11
ENDBRANCH   1  10
BRANCH   7  14
ATOM     14  C   UNL     1       7.117   4.701  16.178  0.00  0.00    +0.000 C 
BRANCH  14  15
ATOM     15  C   UNL     1       7.024   4.621  14.659  0.00  0.00    +0.000 A 
ATOM     16  C   UNL     1       6.263   3.618  14.060  0.00  0.00    +0.000 A 
ATOM     17  C   UNL     1       6.268   3.507  12.675  0.00  0.00    +0.000 A 
ATOM     18  C   UNL     1       7.024   4.397  11.921  0.00  0.00    +0.000 A 
ATOM     19  C   UNL     1       7.739   5.387  12.577  0.00  0.00    +0.000 A 
ATOM     20  C   UNL     1       8.535   6.396  11.797  0.00  0.00    +0.000 C 
ATOM     21  N   UNL     1       7.758   5.508  13.929  0.00  0.00    +0.000 NA
ENDBRANCH  14  15
ENDBRANCH   7  14
TORSDOF 5
ENDMDL
MODEL 3
REMARK VINA RESULT:      -6.7      3.480      7.442
REMARK  Name = 
REMARK  7 active torsions:
REMARK  status: ('A' for Active; 'I' for Inactive)
REMARK    1  A    between atoms: C_1  and  O_2
REMARK    2  A    between atoms: O_2  and  C_3
REMARK    3  A    between atoms: C_3  and  C_4
REMARK    4  A    between atoms: C_4  and  N_5
REMARK    5  A    between atoms: N_11  and  C_12
REMARK    6  A    between atoms: C_12  and  C_13
REMARK    7  A    between atoms: C_17  and  C_18
REMARK                            x       y       z     vdW  Elec       q    Type
REMARK                         _______ _______ _______ _____ _____    ______ ____
ROOT
ATOM      1  N   UNL     1       6.460   5.712  15.857  0.00  0.00    +0.000 NA
ATOM      2  C   UNL     1       7.391   5.885  16.998  0.00  0.00    +0.000 C 
ATOM      3  C   UNL     1       7.407   4.688  17.960  0.00  0.00    +0.000 C 
ATOM      4  O   UNL     1       6.099   4.393  18.453  0.00  0.00    +0.000 OA
ATOM      5  C   UNL     1       5.135   4.192  17.403  0.00  0.00    +0.000 C 
ATOM      6  C   UNL     1       3.739   4.294  18.026  0.00  0.00    +0.000 C 
ATOM      7  N   UNL     1       3.290   5.702  17.899  0.00  0.00    +0.000 NA
ATOM      8  C   UNL     1       4.351   6.418  17.144  0.00  0.00    +0.000 C 
ATOM      9  C   UNL     1       5.125   5.327  16.372  0.00  0.00    +0.000 C 
ENDROOT
BRANCH   1  10
ATOM     10  C   UNL     1       7.034   4.711  14.918  0.00  0.00    +0.000 C 
BRANCH  10  11
ATOM     11  C   UNL     1       6.074   3.984  13.961  0.00  0.00    +0.000 C 
BRANCH  11  13
ATOM     12  C   UNL     1       7.574   4.922  12.416  0.00  0.00    +0.000 C 
ATOM     13  O   UNL     1       6.630   3.886  12.652  0.00  0.00    +0.000 OA
ENDBRANCH  11  13
ENDBRANCH  10  11
ENDBRANCH   1  10
BRANCH   7  14
ATOM     14  C   UNL     1       3.100   6.330  19.226  0.00  0.00    +0.000 C 
BRANCH  14  15
ATOM     15  C   UNL     1       2.205   7.564  19.223  0.00  0.00    +0.000 A 
ATOM     16  C   UNL     1       1.997   8.270  18.039  0.00  0.00    +0.000 A 
ATOM     17  C   UNL     1       1.254   9.443  18.078  0.00  0.00    +0.000 A 
ATOM     18  C   UNL     1       0.735   9.883  19.290  0.00  0.00    +0.000 A 
ATOM     19  C   UNL     1       0.958   9.122  20.427  0.00  0.00    +0.000 A 
ATOM     20  C   UNL     1       0.378   9.538  21.749  0.00  0.00    +0.000 C 
ATOM     21  N   UNL     1       1.689   7.978  20.415  0.00  0.00    +0.000 NA
ENDBRANCH  14  15
ENDBRANCH   7  14
TORSDOF 5
ENDMDL
MODEL 4
REMARK VINA RESULT:      -6.6      1.247      1.905
REMARK  Name = 
REMARK  7 active torsions:
REMARK  status: ('A' for Active; 'I' for Inactive)
REMARK    1  A    between atoms: C_1  and  O_2
REMARK    2  A    between atoms: O_2  and  C_3
REMARK    3  A    between atoms: C_3  and  C_4
REMARK    4  A    between atoms: C_4  and  N_5
REMARK    5  A    between atoms: N_11  and  C_12
REMARK    6  A    between atoms: C_12  and  C_13
REMARK    7  A    between atoms: C_17  and  C_18
REMARK                            x       y       z     vdW  Elec       q    Type
REMARK                         _______ _______ _______ _____ _____    ______ ____
ROOT
ATOM      1  N   UNL     1       2.646   2.927  18.596  0.00  0.00    +0.000 NA
ATOM      2  C   UNL     1       3.502   1.789  19.006  0.00  0.00    +0.000 C 
ATOM      3  C   UNL     1       4.550   2.163  20.064  0.00  0.00    +0.000 C 
ATOM      4  O   UNL     1       5.374   3.245  19.628  0.00  0.00    +0.000 OA
ATOM      5  C   UNL     1       4.617   4.401  19.227  0.00  0.00    +0.000 C 
ATOM      6  C   UNL     1       5.547   5.309  18.415  0.00  0.00    +0.000 C 
ATOM      7  N   UNL     1       5.388   4.954  16.984  0.00  0.00    +0.000 NA
ATOM      8  C   UNL     1       4.327   3.915  16.921  0.00  0.00    +0.000 C 
ATOM      9  C   UNL     1       3.508   4.073  18.220  0.00  0.00    +0.000 C 
ENDROOT
BRANCH   1  10
ATOM     10  C   UNL     1       1.705   3.243  19.703  0.00  0.00    +0.000 C 
BRANCH  10  11
ATOM     11  C   UNL     1       1.075   4.646  19.739  0.00  0.00    +0.000 C 
BRANCH  11  13
ATOM     12  C   UNL     1       1.906   6.742  20.392  0.00  0.00    +0.000 C 
ATOM     13  O   UNL     1       1.602   5.419  20.813  0.00  0.00    +0.000 OA
ENDBRANCH  11  13
ENDBRANCH  10  11
ENDBRANCH   1  10
BRANCH   7  14
ATOM     14  C   UNL     1       6.649   4.427  16.415  0.00  0.00    +0.000 C 
BRANCH  14  15
ATOM     15  C   UNL     1       6.719   4.453  14.893  0.00  0.00    +0.000 A 
ATOM     16  C   UNL     1       5.907   3.602  14.144  0.00  0.00    +0.000 A 
ATOM     17  C   UNL     1       6.054   3.576  12.763  0.00  0.00    +0.000 A 
ATOM     18  C   UNL     1       7.001   4.397  12.161  0.00  0.00    +0.000 A 
ATOM     19  C   UNL     1       7.761   5.237  12.961  0.00  0.00    +0.000 A 
ATOM     20  C   UNL     1       8.765   6.171  12.347  0.00  0.00    +0.000 C 
ATOM     21  N   UNL     1       7.641   5.272  14.313  0.00  0.00    +0.000 NA
ENDBRANCH  14  15
ENDBRANCH   7  14
TORSDOF 5
ENDMDL
MODEL 5
REMARK VINA RESULT:      -6.4      2.040      3.820
REMARK  Name = 
REMARK  7 active torsions:
REMARK  status: ('A' for Active; 'I' for Inactive)
REMARK    1  A    between atoms: C_1  and  O_2
REMARK    2  A    between atoms: O_2  and  C_3
REMARK    3  A    between atoms: C_3  and  C_4
REMARK    4  A    between atoms: C_4  and  N_5
REMARK    5  A    between atoms: N_11  and  C_12
REMARK    6  A    between atoms: C_12  and  C_13
REMARK    7  A    between atoms: C_17  and  C_18
REMARK                            x       y       z     vdW  Elec       q    Type
REMARK                         _______ _______ _______ _____ _____    ______ ____
ROOT
ATOM      1  N   UNL     1       3.277   2.806  18.068  0.00  0.00    +0.000 NA
ATOM      2  C   UNL     1       4.271   2.883  19.166  0.00  0.00    +0.000 C 
ATOM      3  C   UNL     1       4.485   4.308  19.696  0.00  0.00    +0.000 C 
ATOM      4  O   UNL     1       4.860   5.207  18.651  0.00  0.00    +0.000 OA
ATOM      5  C   UNL     1       3.933   5.205  17.550  0.00  0.00    +0.000 C 
ATOM      6  C   UNL     1       4.628   5.865  16.354  0.00  0.00    +0.000 C 
ATOM      7  N   UNL     1       5.271   4.792  15.557  0.00  0.00    +0.000 NA
ATOM      8  C   UNL     1       4.905   3.506  16.206  0.00  0.00    +0.000 C 
ATOM      9  C   UNL     1       3.627   3.797  17.024  0.00  0.00    +0.000 C 
ENDROOT
BRANCH   1  10
ATOM     10  C   UNL     1       1.918   3.012  18.636  0.00  0.00    +0.000 C 
BRANCH  10  11
ATOM     11  C   UNL     1       1.579   2.323  19.969  0.00  0.00    +0.000 C 
BRANCH  11  13
ATOM     12  C   UNL     1       1.175   4.565  20.536  0.00  0.00    +0.000 C 
ATOM     13  O   UNL     1       0.886   3.209  20.844  0.00  0.00    +0.000 OA
ENDBRANCH  11  13
ENDBRANCH  10  11
ENDBRANCH   1  10
BRANCH   7  14
ATOM     14  C   UNL     1       6.743   4.945  15.532  0.00  0.00    +0.000 C 
BRANCH  14  15
ATOM     15  C   UNL     1       7.333   5.624  16.762  0.00  0.00    +0.000 A 
ATOM     16  C   UNL     1       7.682   4.862  17.876  0.00  0.00    +0.000 A 
ATOM     17  C   UNL     1       8.130   5.511  19.020  0.00  0.00    +0.000 A 
ATOM     18  C   UNL     1       8.222   6.898  19.027  0.00  0.00    +0.000 A 
ATOM     19  C   UNL     1       7.883   7.595  17.878  0.00  0.00    +0.000 A 
ATOM     20  C   UNL     1       8.009   9.091  17.829  0.00  0.00    +0.000 C 
ATOM     21  N   UNL     1       7.433   6.983  16.753  0.00  0.00    +0.000 NA
ENDBRANCH  14  15
ENDBRANCH   7  14
TORSDOF 5
ENDMDL
MODEL 6
REMARK VINA RESULT:      -6.4      2.000      2.667
REMARK  Name = 
REMARK  7 active torsions:
REMARK  status: ('A' for Active; 'I' for Inactive)
REMARK    1  A    between atoms: C_1  and  O_2
REMARK    2  A    between atoms: O_2  and  C_3
REMARK    3  A    between atoms: C_3  and  C_4
REMARK    4  A    between atoms: C_4  and  N_5
REMARK    5  A    between atoms: N_11  and  C_12
REMARK    6  A    between atoms: C_12  and  C_13
REMARK    7  A    between atoms: C_17  and  C_18
REMARK                            x       y       z     vdW  Elec       q    Type
REMARK                         _______ _______ _______ _____ _____    ______ ____
ROOT
ATOM      1  N   UNL     1       2.900   4.989  18.557  0.00  0.00    +0.000 NA
ATOM      2  C   UNL     1       3.025   3.528  18.778  0.00  0.00    +0.000 C 
ATOM      3  C   UNL     1       4.098   3.156  19.811  0.00  0.00    +0.000 C 
ATOM      4  O   UNL     1       5.374   3.695  19.462  0.00  0.00    +0.000 OA
ATOM      5  C   UNL     1       5.342   5.118  19.247  0.00  0.00    +0.000 C 
ATOM      6  C   UNL     1       6.622   5.505  18.499  0.00  0.00    +0.000 C 
ATOM      7  N   UNL     1       6.322   5.478  17.046  0.00  0.00    +0.000 NA
ATOM      8  C   UNL     1       4.875   5.165  16.920  0.00  0.00    +0.000 C 
ATOM      9  C   UNL     1       4.241   5.554  18.273  0.00  0.00    +0.000 C 
ENDROOT
BRANCH   1  10
ATOM     10  C   UNL     1       2.249   5.600  19.746  0.00  0.00    +0.000 C 
BRANCH  10  11
ATOM     11  C   UNL     1       2.227   7.134  19.850  0.00  0.00    +0.000 C 
BRANCH  11  13
ATOM     12  C   UNL     1       1.594   9.071  18.683  0.00  0.00    +0.000 C 
ATOM     13  O   UNL     1       2.062   7.734  18.568  0.00  0.00    +0.000 OA
ENDBRANCH  11  13
ENDBRANCH  10  11
ENDBRANCH   1  10
BRANCH   7  14
ATOM     14  C   UNL     1       7.126   4.451  16.347  0.00  0.00    +0.000 C 
BRANCH  14  15
ATOM     15  C   UNL     1       7.015   4.483  14.827  0.00  0.00    +0.000 A 
ATOM     16  C   UNL     1       6.182   3.577  14.171  0.00  0.00    +0.000 A 
ATOM     17  C   UNL     1       6.168   3.563  12.782  0.00  0.00    +0.000 A 
ATOM     18  C   UNL     1       6.978   4.448  12.081  0.00  0.00    +0.000 A 
ATOM     19  C   UNL     1       7.766   5.339  12.793  0.00  0.00    +0.000 A 
ATOM     20  C   UNL     1       8.623   6.342  12.075  0.00  0.00    +0.000 C 
ATOM     21  N   UNL     1       7.803   5.365  14.150  0.00  0.00    +0.000 NA
ENDBRANCH  14  15
ENDBRANCH   7  14
TORSDOF 5
ENDMDL
MODEL 7
REMARK VINA RESULT:      -6.4      2.869      6.883
REMARK  Name = 
REMARK  7 active torsions:
REMARK  status: ('A' for Active; 'I' for Inactive)
REMARK    1  A    between atoms: C_1  and  O_2
REMARK    2  A    between atoms: O_2  and  C_3
REMARK    3  A    between atoms: C_3  and  C_4
REMARK    4  A    between atoms: C_4  and  N_5
REMARK    5  A    between atoms: N_11  and  C_12
REMARK    6  A    between atoms: C_12  and  C_13
REMARK    7  A    between atoms: C_17  and  C_18
REMARK                            x       y       z     vdW  Elec       q    Type
REMARK                         _______ _______ _______ _____ _____    ______ ____
ROOT
ATOM      1  N   UNL     1       6.788   6.831  18.004  0.00  0.00    +0.000 NA
ATOM      2  C   UNL     1       7.439   6.014  19.057  0.00  0.00    +0.000 C 
ATOM      3  C   UNL     1       8.356   4.916  18.499  0.00  0.00    +0.000 C 
ATOM      4  O   UNL     1       7.659   4.057  17.596  0.00  0.00    +0.000 OA
ATOM      5  C   UNL     1       7.011   4.774  16.528  0.00  0.00    +0.000 C 
ATOM      6  C   UNL     1       5.988   3.830  15.887  0.00  0.00    +0.000 C 
ATOM      7  N   UNL     1       4.685   4.052  16.561  0.00  0.00    +0.000 NA
ATOM      8  C   UNL     1       4.893   5.161  17.528  0.00  0.00    +0.000 C 
ATOM      9  C   UNL     1       6.134   5.930  17.025  0.00  0.00    +0.000 C 
ENDROOT
BRANCH   1  10
ATOM     10  C   UNL     1       7.809   7.719  17.387  0.00  0.00    +0.000 C 
BRANCH  10  11
ATOM     11  C   UNL     1       7.929   9.158  17.915  0.00  0.00    +0.000 C 
BRANCH  11  13
ATOM     12  C   UNL     1       9.367  10.595  19.091  0.00  0.00    +0.000 C 
ATOM     13  O   UNL     1       8.930   9.253  18.926  0.00  0.00    +0.000 OA
ENDBRANCH  11  13
ENDBRANCH  10  11
ENDBRANCH   1  10
BRANCH   7  14
ATOM     14  C   UNL     1       4.231   2.837  17.273  0.00  0.00    +0.000 C 
BRANCH  14  15
ATOM     15  C   UNL     1       3.032   3.047  18.190  0.00  0.00    +0.000 A 
ATOM     16  C   UNL     1       1.842   3.558  17.673  0.00  0.00    +0.000 A 
ATOM     17  C   UNL     1       0.794   3.830  18.544  0.00  0.00    +0.000 A 
ATOM     18  C   UNL     1       0.953   3.585  19.903  0.00  0.00    +0.000 A 
ATOM     19  C   UNL     1       2.153   3.054  20.349  0.00  0.00    +0.000 A 
ATOM     20  C   UNL     1       2.351   2.733  21.803  0.00  0.00    +0.000 C 
ATOM     21  N   UNL     1       3.195   2.790  19.519  0.00  0.00    +0.000 NA
ENDBRANCH  14  15
ENDBRANCH   7  14
TORSDOF 5
ENDMDL
MODEL 8
REMARK VINA RESULT:      -6.3      3.298      7.293
REMARK  Name = 
REMARK  7 active torsions:
REMARK  status: ('A' for Active; 'I' for Inactive)
REMARK    1  A    between atoms: C_1  and  O_2
REMARK    2  A    between atoms: O_2  and  C_3
REMARK    3  A    between atoms: C_3  and  C_4
REMARK    4  A    between atoms: C_4  and  N_5
REMARK    5  A    between atoms: N_11  and  C_12
REMARK    6  A    between atoms: C_12  and  C_13
REMARK    7  A    between atoms: C_17  and  C_18
REMARK                            x       y       z     vdW  Elec       q    Type
REMARK                         _______ _______ _______ _____ _____    ______ ____
ROOT
ATOM      1  N   UNL     1       6.309   5.887  15.869  0.00  0.00    +0.000 NA
ATOM      2  C   UNL     1       7.328   5.969  16.943  0.00  0.00    +0.000 C 
ATOM      3  C   UNL     1       7.466   4.673  17.754  0.00  0.00    +0.000 C 
ATOM      4  O   UNL     1       6.217   4.268  18.315  0.00  0.00    +0.000 OA
ATOM      5  C   UNL     1       5.173   4.147  17.331  0.00  0.00    +0.000 C 
ATOM      6  C   UNL     1       3.833   4.119  18.074  0.00  0.00    +0.000 C 
ATOM      7  N   UNL     1       3.329   5.512  18.149  0.00  0.00    +0.000 NA
ATOM      8  C   UNL     1       4.296   6.353  17.399  0.00  0.00    +0.000 C 
ATOM      9  C   UNL     1       5.037   5.391  16.444  0.00  0.00    +0.000 C 
ENDROOT
BRANCH   1  10
ATOM     10  C   UNL     1       6.832   5.025  14.777  0.00  0.00    +0.000 C 
BRANCH  10  11
ATOM     11  C   UNL     1       5.824   4.192  13.967  0.00  0.00    +0.000 C 
BRANCH  11  13
ATOM     12  C   UNL     1       5.479   2.987  11.982  0.00  0.00    +0.000 C 
ATOM     13  O   UNL     1       6.442   3.604  12.826  0.00  0.00    +0.000 OA
ENDBRANCH  11  13
ENDBRANCH  10  11
ENDBRANCH   1  10
BRANCH   7  14
ATOM     14  C   UNL     1       3.233   5.977  19.551  0.00  0.00    +0.000 C 
BRANCH  14  15
ATOM     15  C   UNL     1       2.360   7.209  19.755  0.00  0.00    +0.000 A 
ATOM     16  C   UNL     1       1.588   7.331  20.909  0.00  0.00    +0.000 A 
ATOM     17  C   UNL     1       0.728   8.417  21.030  0.00  0.00    +0.000 A 
ATOM     18  C   UNL     1       0.661   9.352  20.005  0.00  0.00    +0.000 A 
ATOM     19  C   UNL     1       1.473   9.185  18.894  0.00  0.00    +0.000 A 
ATOM     20  C   UNL     1       1.463  10.196  17.783  0.00  0.00    +0.000 C 
ATOM     21  N   UNL     1       2.312   8.128  18.749  0.00  0.00    +0.000 NA
ENDBRANCH  14  15
ENDBRANCH   7  14
TORSDOF 5
ENDMDL
MODEL 9
REMARK VINA RESULT:      -6.2      2.393      6.450
REMARK  Name = 
REMARK  7 active torsions:
REMARK  status: ('A' for Active; 'I' for Inactive)
REMARK    1  A    between atoms: C_1  and  O_2
REMARK    2  A    between atoms: O_2  and  C_3
REMARK    3  A    between atoms: C_3  and  C_4
REMARK    4  A    between atoms: C_4  and  N_5
REMARK    5  A    between atoms: N_11  and  C_12
REMARK    6  A    between atoms: C_12  and  C_13
REMARK    7  A    between atoms: C_17  and  C_18
REMARK                            x       y       z     vdW  Elec       q    Type
REMARK                         _______ _______ _______ _____ _____    ______ ____
ROOT
ATOM      1  N   UNL     1       6.361   4.421  14.901  0.00  0.00    +0.000 NA
ATOM      2  C   UNL     1       5.109   5.212  14.825  0.00  0.00    +0.000 C 
ATOM      3  C   UNL     1       5.302   6.695  15.171  0.00  0.00    +0.000 C 
ATOM      4  O   UNL     1       5.892   6.862  16.461  0.00  0.00    +0.000 OA
ATOM      5  C   UNL     1       7.126   6.137  16.611  0.00  0.00    +0.000 C 
ATOM      6  C   UNL     1       7.439   6.054  18.109  0.00  0.00    +0.000 C 
ATOM      7  N   UNL     1       6.862   4.787  18.621  0.00  0.00    +0.000 NA
ATOM      8  C   UNL     1       6.287   4.080  17.448  0.00  0.00    +0.000 C 
ATOM      9  C   UNL     1       7.009   4.661  16.212  0.00  0.00    +0.000 C 
ENDROOT
BRANCH   1  10
ATOM     10  C   UNL     1       7.227   4.782  13.747  0.00  0.00    +0.000 C 
BRANCH  10  11
ATOM     11  C   UNL     1       6.978   4.073  12.406  0.00  0.00    +0.000 C 
BRANCH  11  13
ATOM     12  C   UNL     1       4.914   3.194  11.711  0.00  0.00    +0.000 C 
ATOM     13  O   UNL     1       6.043   3.007  12.553  0.00  0.00    +0.000 OA
ENDBRANCH  11  13
ENDBRANCH  10  11
ENDBRANCH   1  10
BRANCH   7  14
ATOM     14  C   UNL     1       5.806   5.042  19.627  0.00  0.00    +0.000 C 
BRANCH  14  15
ATOM     15  C   UNL     1       4.384   4.819  19.126  0.00  0.00    +0.000 A 
ATOM     16  C   UNL     1       3.675   5.876  18.555  0.00  0.00    +0.000 A 
ATOM     17  C   UNL     1       2.349   5.675  18.191  0.00  0.00    +0.000 A 
ATOM     18  C   UNL     1       1.764   4.432  18.400  0.00  0.00    +0.000 A 
ATOM     19  C   UNL     1       2.531   3.416  18.950  0.00  0.00    +0.000 A 
ATOM     20  C   UNL     1       1.950   2.046  19.152  0.00  0.00    +0.000 C 
ATOM     21  N   UNL     1       3.825   3.592  19.322  0.00  0.00    +0.000 NA
ENDBRANCH  14  15
ENDBRANCH   7  14
TORSDOF 5
ENDMDL
