MODEL 1
REMARK VINA RESULT:      -7.7      0.000      0.000
REMARK  Name = 
REMARK  3 active torsions:
REMARK  status: ('A' for Active; 'I' for Inactive)
REMARK    1  A    between atoms: C_1  and  C_2
REMARK    2  A    between atoms: C_2  and  N_3
REMARK    3  A    between atoms: C_17  and  C_18
REMARK                            x       y       z     vdW  Elec       q    Type
REMARK                         _______ _______ _______ _____ _____    ______ ____
ROOT
ATOM      1  N   UNL     1       2.382  13.876  20.312  0.00  0.00    +0.000 N 
ATOM      2  C   UNL     1       1.367  13.628  21.200  0.00  0.00    +0.000 C 
ATOM      3  O   UNL     1       1.162  14.210  22.257  0.00  0.00    +0.000 OA
ATOM      4  C   UNL     1       0.508  12.503  20.653  0.00  0.00    +0.000 C 
ATOM      5  C   UNL     1      -0.926  12.963  20.391  0.00  0.00    +0.000 C 
ATOM      6  C   UNL     1      -1.532  12.129  19.308  0.00  0.00    +0.000 A 
ATOM      7  C   UNL     1      -0.762  11.386  18.431  0.00  0.00    +0.000 A 
ATOM      8  N   UNL     1      -1.609  10.756  17.559  0.00  0.00    +0.000 N 
ATOM      9  C   UNL     1      -2.916  11.052  17.883  0.00  0.00    +0.000 A 
ATOM     10  C   UNL     1      -4.112  10.621  17.298  0.00  0.00    +0.000 A 
ATOM     11  C   UNL     1      -5.309  11.100  17.843  0.00  0.00    +0.000 A 
ATOM     12  C   UNL     1      -5.308  11.971  18.932  0.00  0.00    +0.000 A 
ATOM     13  C   UNL     1      -4.106  12.387  19.508  0.00  0.00    +0.000 A 
ATOM     14  C   UNL     1      -2.889  11.922  18.976  0.00  0.00    +0.000 A 
ATOM     15  C   UNL     1       0.733  11.232  18.444  0.00  0.00    +0.000 C 
ATOM     16  N   UNL     1       1.230  12.203  19.415  0.00  0.00    +0.000 N 
ATOM     17  C   UNL     1       2.304  13.044  19.231  0.00  0.00    +0.000 C 
ATOM     18  O   UNL     1       3.045  13.037  18.261  0.00  0.00    +0.000 OA
ATOM     19  H   UNL     1      -1.333  10.127  16.814  0.00  0.00    +0.000 HD
ENDROOT
BRANCH  15  20
ATOM     20  C   UNL     1       1.201   9.830  18.823  0.00  0.00    +0.000 A 
ATOM     21  C   UNL     1       0.880   9.249  20.063  0.00  0.00    +0.000 A 
ATOM     22  C   UNL     1       1.412   8.016  20.441  0.00  0.00    +0.000 A 
ATOM     23  C   UNL     1       2.289   7.343  19.591  0.00  0.00    +0.000 A 
ATOM     24 CL   UNL     1       2.976   5.864  20.162  0.00  0.00    +0.000 Cl
ATOM     25  C   UNL     1       2.597   7.887  18.341  0.00  0.00    +0.000 A 
ATOM     26 CL   UNL     1       3.670   7.103  17.236  0.00  0.00    +0.000 Cl
ATOM     27  C   UNL     1       2.050   9.119  17.957  0.00  0.00    +0.000 A 
ENDBRANCH  15  20
BRANCH   1  29
ATOM     28  C   UNL     1       3.037  16.201  19.945  0.00  0.00    +0.000 C 
ATOM     29  C   UNL     1       3.430  14.851  20.524  0.00  0.00    +0.000 C 
ENDBRANCH   1  29
TORSDOF 2
ENDMDL
MODEL 2
REMARK VINA RESULT:      -7.6      3.644      6.189
REMARK  Name = 
REMARK  3 active torsions:
REMARK  status: ('A' for Active; 'I' for Inactive)
REMARK    1  A    between atoms: C_1  and  C_2
REMARK    2  A    between atoms: C_2  and  N_3
REMARK    3  A    between atoms: C_17  and  C_18
REMARK                            x       y       z     vdW  Elec       q    Type
REMARK                         _______ _______ _______ _____ _____    ______ ____
ROOT
ATOM      1  N   UNL     1      -2.232  12.199  21.680  0.00  0.00    +0.000 N 
ATOM      2  C   UNL     1      -1.184  11.635  22.362  0.00  0.00    +0.000 C 
ATOM      3  O   UNL     1      -1.149  11.367  23.555  0.00  0.00    +0.000 OA
ATOM      4  C   UNL     1      -0.051  11.377  21.384  0.00  0.00    +0.000 C 
ATOM      5  C   UNL     1       0.274   9.887  21.278  0.00  0.00    +0.000 C 
ATOM      6  C   UNL     1       0.859   9.594  19.934  0.00  0.00    +0.000 A 
ATOM      7  C   UNL     1       0.707  10.454  18.860  0.00  0.00    +0.000 A 
ATOM      8  N   UNL     1       1.339   9.895  17.782  0.00  0.00    +0.000 N 
ATOM      9  C   UNL     1       1.928   8.705  18.153  0.00  0.00    +0.000 A 
ATOM     10  C   UNL     1       2.696   7.805  17.405  0.00  0.00    +0.000 A 
ATOM     11  C   UNL     1       3.163   6.657  18.055  0.00  0.00    +0.000 A 
ATOM     12  C   UNL     1       2.878   6.422  19.399  0.00  0.00    +0.000 A 
ATOM     13  C   UNL     1       2.115   7.333  20.134  0.00  0.00    +0.000 A 
ATOM     14  C   UNL     1       1.631   8.493  19.502  0.00  0.00    +0.000 A 
ATOM     15  C   UNL     1       0.026  11.794  18.862  0.00  0.00    +0.000 C 
ATOM     16  N   UNL     1      -0.645  11.905  20.154  0.00  0.00    +0.000 N 
ATOM     17  C   UNL     1      -1.932  12.351  20.356  0.00  0.00    +0.000 C 
ATOM     18  O   UNL     1      -2.665  12.796  19.487  0.00  0.00    +0.000 OA
ATOM     19  H   UNL     1       1.411  10.306  16.859  0.00  0.00    +0.000 HD
ENDROOT
BRANCH  15  20
ATOM     20  C   UNL     1       0.983  12.967  18.668  0.00  0.00    +0.000 A 
ATOM     21  C   UNL     1       2.361  12.775  18.459  0.00  0.00    +0.000 A 
ATOM     22  C   UNL     1       3.239  13.857  18.401  0.00  0.00    +0.000 A 
ATOM     23  C   UNL     1       2.759  15.157  18.566  0.00  0.00    +0.000 A 
ATOM     24 CL   UNL     1       3.916  16.440  18.570  0.00  0.00    +0.000 Cl
ATOM     25  C   UNL     1       1.389  15.372  18.744  0.00  0.00    +0.000 A 
ATOM     26 CL   UNL     1       0.726  16.955  18.947  0.00  0.00    +0.000 Cl
ATOM     27  C   UNL     1       0.507  14.284  18.787  0.00  0.00    +0.000 A 
ENDBRANCH  15  20
BRANCH   1  29
ATOM     28  C   UNL     1      -3.353  14.062  22.794  0.00  0.00    +0.000 C 
ATOM     29  C   UNL     1      -3.467  12.630  22.296  0.00  0.00    +0.000 C 
ENDBRANCH   1  29
TORSDOF 2
ENDMDL
MODEL 3
REMARK VINA RESULT:      -7.4      3.526      6.074
REMARK  Name = 
REMARK  3 active torsions:
REMARK  status: ('A' for Active; 'I' for Inactive)
REMARK    1  A    between atoms: C_1  and  C_2
REMARK    2  A    between atoms: C_2  and  N_3
REMARK    3  A    between atoms: C_17  and  C_18
REMARK                            x       y       z     vdW  Elec       q    Type
REMARK                         _______ _______ _______ _____ _____    ______ ____
ROOT
ATOM      1  N   UNL     1      -1.918  12.091  21.643  0.00  0.00    +0.000 N 
ATOM      2  C   UNL     1      -1.057  11.289  22.348  0.00  0.00    +0.000 C 
ATOM      3  O   UNL     1      -1.242  10.824  23.465  0.00  0.00    +0.000 OA
ATOM      4  C   UNL     1       0.184  11.050  21.507  0.00  0.00    +0.000 C 
ATOM      5  C   UNL     1       0.364   9.569  21.175  0.00  0.00    +0.000 C 
ATOM      6  C   UNL     1       1.122   9.429  19.894  0.00  0.00    +0.000 A 
ATOM      7  C   UNL     1       1.235  10.468  18.987  0.00  0.00    +0.000 A 
ATOM      8  N   UNL     1       1.969  10.018  17.922  0.00  0.00    +0.000 N 
ATOM      9  C   UNL     1       2.363   8.716  18.146  0.00  0.00    +0.000 A 
ATOM     10  C   UNL     1       3.142   7.859  17.359  0.00  0.00    +0.000 A 
ATOM     11  C   UNL     1       3.377   6.568  17.846  0.00  0.00    +0.000 A 
ATOM     12  C   UNL     1       2.857   6.153  19.071  0.00  0.00    +0.000 A 
ATOM     13  C   UNL     1       2.086   7.021  19.847  0.00  0.00    +0.000 A 
ATOM     14  C   UNL     1       1.833   8.323  19.378  0.00  0.00    +0.000 A 
ATOM     15  C   UNL     1       0.707  11.866  19.141  0.00  0.00    +0.000 C 
ATOM     16  N   UNL     1      -0.147  11.848  20.325  0.00  0.00    +0.000 N 
ATOM     17  C   UNL     1      -1.395  12.420  20.424  0.00  0.00    +0.000 C 
ATOM     18  O   UNL     1      -1.929  13.096  19.560  0.00  0.00    +0.000 OA
ATOM     19  H   UNL     1       2.231  10.563  17.110  0.00  0.00    +0.000 HD
ENDROOT
BRANCH  15  20
ATOM     20  C   UNL     1       1.800  12.919  19.301  0.00  0.00    +0.000 A 
ATOM     21  C   UNL     1       2.379  13.204  20.551  0.00  0.00    +0.000 A 
ATOM     22  C   UNL     1       3.291  14.248  20.702  0.00  0.00    +0.000 A 
ATOM     23  C   UNL     1       3.633  15.042  19.607  0.00  0.00    +0.000 A 
ATOM     24 CL   UNL     1       4.701  16.371  19.886  0.00  0.00    +0.000 Cl
ATOM     25  C   UNL     1       3.092  14.758  18.349  0.00  0.00    +0.000 A 
ATOM     26 CL   UNL     1       3.478  15.694  16.949  0.00  0.00    +0.000 Cl
ATOM     27  C   UNL     1       2.188  13.698  18.197  0.00  0.00    +0.000 A 
ENDBRANCH  15  20
BRANCH   1  29
ATOM     28  C   UNL     1      -3.006  13.891  22.887  0.00  0.00    +0.000 C 
ATOM     29  C   UNL     1      -3.184  12.572  22.150  0.00  0.00    +0.000 C 
ENDBRANCH   1  29
TORSDOF 2
ENDMDL
MODEL 4
REMARK VINA RESULT:      -7.4      3.383      6.074
REMARK  Name = 
REMARK  3 active torsions:
REMARK  status: ('A' for Active; 'I' for Inactive)
REMARK    1  A    between atoms: C_1  and  C_2
REMARK    2  A    between atoms: C_2  and  N_3
REMARK    3  A    between atoms: C_17  and  C_18
REMARK                            x       y       z     vdW  Elec       q    Type
REMARK                         _______ _______ _______ _____ _____    ______ ____
ROOT
ATOM      1  N   UNL     1      -1.961  12.128  21.575  0.00  0.00    +0.000 N 
ATOM      2  C   UNL     1      -1.073  11.379  22.303  0.00  0.00    +0.000 C 
ATOM      3  O   UNL     1      -1.228  10.970  23.447  0.00  0.00    +0.000 OA
ATOM      4  C   UNL     1       0.156  11.118  21.451  0.00  0.00    +0.000 C 
ATOM      5  C   UNL     1       0.357   9.625  21.194  0.00  0.00    +0.000 C 
ATOM      6  C   UNL     1       1.094   9.432  19.907  0.00  0.00    +0.000 A 
ATOM      7  C   UNL     1       1.170  10.423  18.944  0.00  0.00    +0.000 A 
ATOM      8  N   UNL     1       1.893   9.931  17.891  0.00  0.00    +0.000 N 
ATOM      9  C   UNL     1       2.315   8.649  18.174  0.00  0.00    +0.000 A 
ATOM     10  C   UNL     1       3.094   7.766  17.418  0.00  0.00    +0.000 A 
ATOM     11  C   UNL     1       3.362   6.506  17.966  0.00  0.00    +0.000 A 
ATOM     12  C   UNL     1       2.873   6.147  19.221  0.00  0.00    +0.000 A 
ATOM     13  C   UNL     1       2.100   7.041  19.966  0.00  0.00    +0.000 A 
ATOM     14  C   UNL     1       1.815   8.313  19.435  0.00  0.00    +0.000 A 
ATOM     15  C   UNL     1       0.619  11.818  19.036  0.00  0.00    +0.000 C 
ATOM     16  N   UNL     1      -0.211  11.847  20.236  0.00  0.00    +0.000 N 
ATOM     17  C   UNL     1      -1.468  12.402  20.330  0.00  0.00    +0.000 C 
ATOM     18  O   UNL     1      -2.031  13.022  19.442  0.00  0.00    +0.000 OA
ATOM     19  H   UNL     1       2.128  10.437  17.046  0.00  0.00    +0.000 HD
ENDROOT
BRANCH  15  20
ATOM     20  C   UNL     1       1.696  12.897  19.119  0.00  0.00    +0.000 A 
ATOM     21  C   UNL     1       2.249  13.485  17.967  0.00  0.00    +0.000 A 
ATOM     22  C   UNL     1       3.313  14.383  18.056  0.00  0.00    +0.000 A 
ATOM     23  C   UNL     1       3.857  14.701  19.301  0.00  0.00    +0.000 A 
ATOM     24 CL   UNL     1       5.228  15.752  19.327  0.00  0.00    +0.000 Cl
ATOM     25  C   UNL     1       3.303  14.152  20.461  0.00  0.00    +0.000 A 
ATOM     26 CL   UNL     1       3.922  14.509  22.034  0.00  0.00    +0.000 Cl
ATOM     27  C   UNL     1       2.224  13.262  20.370  0.00  0.00    +0.000 A 
ENDBRANCH  15  20
BRANCH   1  29
ATOM     28  C   UNL     1      -3.053  13.955  22.774  0.00  0.00    +0.000 C 
ATOM     29  C   UNL     1      -3.226  12.613  22.081  0.00  0.00    +0.000 C 
ENDBRANCH   1  29
TORSDOF 2
ENDMDL
MODEL 5
REMARK VINA RESULT:      -7.3      0.687      1.392
REMARK  Name = 
REMARK  3 active torsions:
REMARK  status: ('A' for Active; 'I' for Inactive)
REMARK    1  A    between atoms: C_1  and  C_2
REMARK    2  A    between atoms: C_2  and  N_3
REMARK    3  A    between atoms: C_17  and  C_18
REMARK                            x       y       z     vdW  Elec       q    Type
REMARK                         _______ _______ _______ _____ _____    ______ ____
ROOT
ATOM      1  N   UNL     1       2.384  14.264  20.345  0.00  0.00    +0.000 N 
ATOM      2  C   UNL     1       1.427  13.912  21.262  0.00  0.00    +0.000 C 
ATOM      3  O   UNL     1       1.239  14.426  22.356  0.00  0.00    +0.000 OA
ATOM      4  C   UNL     1       0.607  12.767  20.693  0.00  0.00    +0.000 C 
ATOM      5  C   UNL     1      -0.861  13.156  20.520  0.00  0.00    +0.000 C 
ATOM      6  C   UNL     1      -1.470  12.345  19.421  0.00  0.00    +0.000 A 
ATOM      7  C   UNL     1      -0.702  11.694  18.472  0.00  0.00    +0.000 A 
ATOM      8  N   UNL     1      -1.552  11.061  17.605  0.00  0.00    +0.000 N 
ATOM      9  C   UNL     1      -2.857  11.263  18.003  0.00  0.00    +0.000 A 
ATOM     10  C   UNL     1      -4.053  10.794  17.448  0.00  0.00    +0.000 A 
ATOM     11  C   UNL     1      -5.248  11.173  18.071  0.00  0.00    +0.000 A 
ATOM     12  C   UNL     1      -5.245  11.986  19.204  0.00  0.00    +0.000 A 
ATOM     13  C   UNL     1      -4.042  12.442  19.748  0.00  0.00    +0.000 A 
ATOM     14  C   UNL     1      -2.828  12.076  19.139  0.00  0.00    +0.000 A 
ATOM     15  C   UNL     1       0.798  11.627  18.411  0.00  0.00    +0.000 C 
ATOM     16  N   UNL     1       1.286  12.575  19.410  0.00  0.00    +0.000 N 
ATOM     17  C   UNL     1       2.301  13.485  19.225  0.00  0.00    +0.000 C 
ATOM     18  O   UNL     1       2.995  13.571  18.223  0.00  0.00    +0.000 OA
ATOM     19  H   UNL     1      -1.276  10.488  16.817  0.00  0.00    +0.000 HD
ENDROOT
BRANCH  15  20
ATOM     20  C   UNL     1       1.361  10.237  18.692  0.00  0.00    +0.000 A 
ATOM     21  C   UNL     1       2.111   9.531  17.733  0.00  0.00    +0.000 A 
ATOM     22  C   UNL     1       2.518   8.217  17.961  0.00  0.00    +0.000 A 
ATOM     23  C   UNL     1       2.171   7.573  19.149  0.00  0.00    +0.000 A 
ATOM     24 CL   UNL     1       2.634   5.918  19.325  0.00  0.00    +0.000 Cl
ATOM     25  C   UNL     1       1.452   8.265  20.128  0.00  0.00    +0.000 A 
ATOM     26 CL   UNL     1       0.996   7.532  21.625  0.00  0.00    +0.000 Cl
ATOM     27  C   UNL     1       1.058   9.591  19.903  0.00  0.00    +0.000 A 
ENDBRANCH  15  20
BRANCH   1  29
ATOM     28  C   UNL     1       2.896  16.635  20.058  0.00  0.00    +0.000 C 
ATOM     29  C   UNL     1       3.384  15.286  20.562  0.00  0.00    +0.000 C 
ENDBRANCH   1  29
TORSDOF 2
ENDMDL
MODEL 6
REMARK VINA RESULT:      -7.2      3.323      6.141
REMARK  Name = 
REMARK  3 active torsions:
REMARK  status: ('A' for Active; 'I' for Inactive)
REMARK    1  A    between atoms: C_1  and  C_2
REMARK    2  A    between atoms: C_2  and  N_3
REMARK    3  A    between atoms: C_17  and  C_18
REMARK                            x       y       z     vdW  Elec       q    Type
REMARK                         _______ _______ _______ _____ _____    ______ ____
ROOT
ATOM      1  N   UNL     1      -3.078  12.420  21.897  0.00  0.00    +0.000 N 
ATOM      2  C   UNL     1      -2.018  11.913  22.604  0.00  0.00    +0.000 C 
ATOM      3  O   UNL     1      -2.003  11.628  23.794  0.00  0.00    +0.000 OA
ATOM      4  C   UNL     1      -0.841  11.744  21.660  0.00  0.00    +0.000 C 
ATOM      5  C   UNL     1      -0.416  10.281  21.543  0.00  0.00    +0.000 C 
ATOM      6  C   UNL     1       0.229  10.049  20.214  0.00  0.00    +0.000 A 
ATOM      7  C   UNL     1       0.055  10.914  19.149  0.00  0.00    +0.000 A 
ATOM      8  N   UNL     1       0.756  10.416  18.084  0.00  0.00    +0.000 N 
ATOM      9  C   UNL     1       1.409   9.260  18.457  0.00  0.00    +0.000 A 
ATOM     10  C   UNL     1       2.257   8.424  17.721  0.00  0.00    +0.000 A 
ATOM     11  C   UNL     1       2.777   7.298  18.369  0.00  0.00    +0.000 A 
ATOM     12  C   UNL     1       2.465   7.023  19.700  0.00  0.00    +0.000 A 
ATOM     13  C   UNL     1       1.622   7.870  20.422  0.00  0.00    +0.000 A 
ATOM     14  C   UNL     1       1.083   9.007  19.792  0.00  0.00    +0.000 A 
ATOM     15  C   UNL     1      -0.711  12.207  19.148  0.00  0.00    +0.000 C 
ATOM     16  N   UNL     1      -1.428  12.253  20.419  0.00  0.00    +0.000 N 
ATOM     17  C   UNL     1      -2.747  12.612  20.585  0.00  0.00    +0.000 C 
ATOM     18  O   UNL     1      -3.480  13.024  19.700  0.00  0.00    +0.000 OA
ATOM     19  H   UNL     1       0.830  10.845  17.169  0.00  0.00    +0.000 HD
ENDROOT
BRANCH  15  20
ATOM     20  C   UNL     1       0.173  13.443  19.002  0.00  0.00    +0.000 A 
ATOM     21  C   UNL     1      -0.364  14.743  18.996  0.00  0.00    +0.000 A 
ATOM     22  C   UNL     1       0.442  15.854  18.744  0.00  0.00    +0.000 A 
ATOM     23  C   UNL     1       1.802  15.686  18.480  0.00  0.00    +0.000 A 
ATOM     24 CL   UNL     1       2.719  17.098  18.091  0.00  0.00    +0.000 Cl
ATOM     25  C   UNL     1       2.361  14.406  18.511  0.00  0.00    +0.000 A 
ATOM     26 CL   UNL     1       4.038  14.127  18.200  0.00  0.00    +0.000 Cl
ATOM     27  C   UNL     1       1.552  13.293  18.779  0.00  0.00    +0.000 A 
ENDBRANCH  15  20
BRANCH   1  29
ATOM     28  C   UNL     1      -4.360  14.196  22.978  0.00  0.00    +0.000 C 
ATOM     29  C   UNL     1      -4.358  12.759  22.478  0.00  0.00    +0.000 C 
ENDBRANCH   1  29
TORSDOF 2
ENDMDL
MODEL 7
REMARK VINA RESULT:      -6.9      1.234      1.358
REMARK  Name = 
REMARK  3 active torsions:
REMARK  status: ('A' for Active; 'I' for Inactive)
REMARK    1  A    between atoms: C_1  and  C_2
REMARK    2  A    between atoms: C_2  and  N_3
REMARK    3  A    between atoms: C_17  and  C_18
REMARK                            x       y       z     vdW  Elec       q    Type
REMARK                         _______ _______ _______ _____ _____    ______ ____
ROOT
ATOM      1  N   UNL     1       1.083  14.392  21.446  0.00  0.00    +0.000 N 
ATOM      2  C   UNL     1       0.017  13.966  22.197  0.00  0.00    +0.000 C 
ATOM      3  O   UNL     1      -0.329  14.400  23.287  0.00  0.00    +0.000 OA
ATOM      4  C   UNL     1      -0.693  12.854  21.444  0.00  0.00    +0.000 C 
ATOM      5  C   UNL     1      -2.131  13.238  21.097  0.00  0.00    +0.000 C 
ATOM      6  C   UNL     1      -2.567  12.498  19.872  0.00  0.00    +0.000 A 
ATOM      7  C   UNL     1      -1.662  11.924  18.997  0.00  0.00    +0.000 A 
ATOM      8  N   UNL     1      -2.372  11.343  17.980  0.00  0.00    +0.000 N 
ATOM      9  C   UNL     1      -3.723  11.502  18.206  0.00  0.00    +0.000 A 
ATOM     10  C   UNL     1      -4.822  11.059  17.462  0.00  0.00    +0.000 A 
ATOM     11  C   UNL     1      -6.099  11.380  17.938  0.00  0.00    +0.000 A 
ATOM     12  C   UNL     1      -6.268  12.111  19.113  0.00  0.00    +0.000 A 
ATOM     13  C   UNL     1      -5.161  12.542  19.848  0.00  0.00    +0.000 A 
ATOM     14  C   UNL     1      -3.867  12.234  19.388  0.00  0.00    +0.000 A 
ATOM     15  C   UNL     1      -0.167  11.879  19.139  0.00  0.00    +0.000 C 
ATOM     16  N   UNL     1       0.159  12.760  20.257  0.00  0.00    +0.000 N 
ATOM     17  C   UNL     1       1.171  13.693  20.276  0.00  0.00    +0.000 C 
ATOM     18  O   UNL     1       1.993  13.857  19.388  0.00  0.00    +0.000 OA
ATOM     19  H   UNL     1      -1.979  10.831  17.200  0.00  0.00    +0.000 HD
ENDROOT
BRANCH  15  20
ATOM     20  C   UNL     1       0.382  10.479  19.400  0.00  0.00    +0.000 A 
ATOM     21  C   UNL     1       0.127   9.794  20.602  0.00  0.00    +0.000 A 
ATOM     22  C   UNL     1       0.731   8.566  20.874  0.00  0.00    +0.000 A 
ATOM     23  C   UNL     1       1.615   8.003  19.954  0.00  0.00    +0.000 A 
ATOM     24 CL   UNL     1       2.392   6.525  20.396  0.00  0.00    +0.000 Cl
ATOM     25  C   UNL     1       1.859   8.652  18.740  0.00  0.00    +0.000 A 
ATOM     26 CL   UNL     1       2.937   8.008  17.553  0.00  0.00    +0.000 Cl
ATOM     27  C   UNL     1       1.240   9.878  18.463  0.00  0.00    +0.000 A 
ENDBRANCH  15  20
BRANCH   1  29
ATOM     28  C   UNL     1       1.577  16.784  21.398  0.00  0.00    +0.000 C 
ATOM     29  C   UNL     1       2.022  15.408  21.869  0.00  0.00    +0.000 C 
ENDBRANCH   1  29
TORSDOF 2
ENDMDL
MODEL 8
REMARK VINA RESULT:      -6.9      2.982      3.949
REMARK  Name = 
REMARK  3 active torsions:
REMARK  status: ('A' for Active; 'I' for Inactive)
REMARK    1  A    between atoms: C_1  and  C_2
REMARK    2  A    between atoms: C_2  and  N_3
REMARK    3  A    between atoms: C_17  and  C_18
REMARK                            x       y       z     vdW  Elec       q    Type
REMARK                         _______ _______ _______ _____ _____    ______ ____
ROOT
ATOM      1  N   UNL     1      -1.709  14.504  24.008  0.00  0.00    +0.000 N 
ATOM      2  C   UNL     1      -2.819  13.729  24.225  0.00  0.00    +0.000 C 
ATOM      3  O   UNL     1      -3.531  13.734  25.221  0.00  0.00    +0.000 OA
ATOM      4  C   UNL     1      -3.044  12.850  23.008  0.00  0.00    +0.000 C 
ATOM      5  C   UNL     1      -4.384  13.149  22.335  0.00  0.00    +0.000 C 
ATOM      6  C   UNL     1      -4.304  12.807  20.882  0.00  0.00    +0.000 A 
ATOM      7  C   UNL     1      -3.096  12.667  20.222  0.00  0.00    +0.000 A 
ATOM      8  N   UNL     1      -3.364  12.372  18.912  0.00  0.00    +0.000 N 
ATOM      9  C   UNL     1      -4.728  12.283  18.725  0.00  0.00    +0.000 A 
ATOM     10  C   UNL     1      -5.464  11.980  17.574  0.00  0.00    +0.000 A 
ATOM     11  C   UNL     1      -6.859  11.970  17.682  0.00  0.00    +0.000 A 
ATOM     12  C   UNL     1      -7.491  12.247  18.894  0.00  0.00    +0.000 A 
ATOM     13  C   UNL     1      -6.742  12.542  20.035  0.00  0.00    +0.000 A 
ATOM     14  C   UNL     1      -5.338  12.562  19.951  0.00  0.00    +0.000 A 
ATOM     15  C   UNL     1      -1.721  12.759  20.821  0.00  0.00    +0.000 C 
ATOM     16  N   UNL     1      -1.905  13.255  22.182  0.00  0.00    +0.000 N 
ATOM     17  C   UNL     1      -1.161  14.245  22.783  0.00  0.00    +0.000 C 
ATOM     18  O   UNL     1      -0.186  14.790  22.290  0.00  0.00    +0.000 OA
ATOM     19  H   UNL     1      -2.675  12.196  18.191  0.00  0.00    +0.000 HD
ENDROOT
BRANCH  15  20
ATOM     20  C   UNL     1      -0.974  11.428  20.847  0.00  0.00    +0.000 A 
ATOM     21  C   UNL     1      -0.810  10.692  22.035  0.00  0.00    +0.000 A 
ATOM     22  C   UNL     1      -0.026   9.538  22.065  0.00  0.00    +0.000 A 
ATOM     23  C   UNL     1       0.624   9.104  20.910  0.00  0.00    +0.000 A 
ATOM     24 CL   UNL     1       1.647   7.718  21.043  0.00  0.00    +0.000 Cl
ATOM     25  C   UNL     1       0.450   9.803  19.712  0.00  0.00    +0.000 A 
ATOM     26 CL   UNL     1       1.219   9.317  18.243  0.00  0.00    +0.000 Cl
ATOM     27  C   UNL     1      -0.350  10.953  19.681  0.00  0.00    +0.000 A 
ENDBRANCH  15  20
BRANCH   1  29
ATOM     28  C   UNL     1      -1.883  16.766  24.913  0.00  0.00    +0.000 C 
ATOM     29  C   UNL     1      -1.160  15.430  24.974  0.00  0.00    +0.000 C 
ENDBRANCH   1  29
TORSDOF 2
ENDMDL
MODEL 9
REMARK VINA RESULT:      -6.8      2.247      2.925
REMARK  Name = 
REMARK  3 active torsions:
REMARK  status: ('A' for Active; 'I' for Inactive)
REMARK    1  A    between atoms: C_1  and  C_2
REMARK    2  A    between atoms: C_2  and  N_3
REMARK    3  A    between atoms: C_17  and  C_18
REMARK                            x       y       z     vdW  Elec       q    Type
REMARK                         _______ _______ _______ _____ _____    ______ ____
ROOT
ATOM      1  N   UNL     1      -0.556  14.903  22.632  0.00  0.00    +0.000 N 
ATOM      2  C   UNL     1      -1.588  14.226  23.231  0.00  0.00    +0.000 C 
ATOM      3  O   UNL     1      -2.058  14.443  24.340  0.00  0.00    +0.000 OA
ATOM      4  C   UNL     1      -2.079  13.149  22.280  0.00  0.00    +0.000 C 
ATOM      5  C   UNL     1      -3.536  13.375  21.876  0.00  0.00    +0.000 C 
ATOM      6  C   UNL     1      -3.785  12.769  20.532  0.00  0.00    +0.000 A 
ATOM      7  C   UNL     1      -2.755  12.462  19.660  0.00  0.00    +0.000 A 
ATOM      8  N   UNL     1      -3.311  11.943  18.521  0.00  0.00    +0.000 N 
ATOM      9  C   UNL     1      -4.681  11.877  18.660  0.00  0.00    +0.000 A 
ATOM     10  C   UNL     1      -5.657  11.399  17.778  0.00  0.00    +0.000 A 
ATOM     11  C   UNL     1      -6.992  11.466  18.191  0.00  0.00    +0.000 A 
ATOM     12  C   UNL     1      -7.336  11.986  19.438  0.00  0.00    +0.000 A 
ATOM     13  C   UNL     1      -6.350  12.454  20.310  0.00  0.00    +0.000 A 
ATOM     14  C   UNL     1      -5.001  12.401  19.916  0.00  0.00    +0.000 A 
ATOM     15  C   UNL     1      -1.281  12.605  19.912  0.00  0.00    +0.000 C 
ATOM     16  N   UNL     1      -1.155  13.350  21.162  0.00  0.00    +0.000 N 
ATOM     17  C   UNL     1      -0.297  14.402  21.388  0.00  0.00    +0.000 C 
ATOM     18  O   UNL     1       0.542  14.807  20.598  0.00  0.00    +0.000 OA
ATOM     19  H   UNL     1      -2.801  11.610  17.711  0.00  0.00    +0.000 HD
ENDROOT
BRANCH  15  20
ATOM     20  C   UNL     1      -0.546  11.272  20.022  0.00  0.00    +0.000 A 
ATOM     21  C   UNL     1      -0.525  10.533  21.218  0.00  0.00    +0.000 A 
ATOM     22  C   UNL     1       0.248   9.377  21.338  0.00  0.00    +0.000 A 
ATOM     23  C   UNL     1       1.028   8.943  20.265  0.00  0.00    +0.000 A 
ATOM     24 CL   UNL     1       2.025   7.554  20.514  0.00  0.00    +0.000 Cl
ATOM     25  C   UNL     1       0.998   9.647  19.057  0.00  0.00    +0.000 A 
ATOM     26 CL   UNL     1       1.932   9.161  17.687  0.00  0.00    +0.000 Cl
ATOM     27  C   UNL     1       0.210  10.799  18.935  0.00  0.00    +0.000 A 
ENDBRANCH  15  20
BRANCH   1  29
ATOM     28  C   UNL     1      -0.414  17.322  22.938  0.00  0.00    +0.000 C 
ATOM     29  C   UNL     1       0.195  15.966  23.262  0.00  0.00    +0.000 C 
ENDBRANCH   1  29
TORSDOF 2
ENDMDL
