MODEL 1
REMARK VINA RESULT:      -6.1      0.000      0.000
REMARK  Name = 
REMARK  6 active torsions:
REMARK  status: ('A' for Active; 'I' for Inactive)
REMARK    1  A    between atoms: C_1  and  O_2
REMARK    2  A    between atoms: O_2  and  C_3
REMARK    3  A    between atoms: N_10  and  C_11
REMARK    4  A    between atoms: C_11  and  C_12
REMARK    5  A    between atoms: C_12  and  C_13
REMARK    6  A    between atoms: C_13  and  N_14
REMARK                            x       y       z     vdW  Elec       q    Type
REMARK                         _______ _______ _______ _____ _____    ______ ____
ROOT
ATOM      1  C   UNL     1       6.604   6.212  16.781  0.00  0.00    +0.000 A 
ATOM      2  C   UNL     1       6.576   4.853  16.475  0.00  0.00    +0.000 A 
ATOM      3  C   UNL     1       5.422   4.086  16.690  0.00  0.00    +0.000 A 
ATOM      4  C   UNL     1       4.290   4.719  17.228  0.00  0.00    +0.000 A 
ATOM      5  C   UNL     1       4.309   6.075  17.574  0.00  0.00    +0.000 A 
ATOM      6  C   UNL     1       3.036   6.390  18.118  0.00  0.00    +0.000 A 
ATOM      7  C   UNL     1       2.277   5.245  18.097  0.00  0.00    +0.000 A 
ATOM      8  N   UNL     1       3.029   4.244  17.532  0.00  0.00    +0.000 N 
ATOM      9  C   UNL     1       5.482   6.823  17.351  0.00  0.00    +0.000 A 
ENDROOT
BRANCH   1  11
ATOM     10  C   UNL     1       7.823   8.079  17.558  0.00  0.00    +0.000 C 
ATOM     11  O   UNL     1       7.690   7.028  16.606  0.00  0.00    +0.000 OA
ENDBRANCH   1  11
BRANCH   8  12
ATOM     12  C   UNL     1       2.554   2.883  17.341  0.00  0.00    +0.000 C 
BRANCH  12  13
ATOM     13  C   UNL     1       3.301   1.825  18.157  0.00  0.00    +0.000 C 
BRANCH  13  14
ATOM     14  C   UNL     1       3.547   2.243  19.606  0.00  0.00    +0.000 C 
BRANCH  14  15
ATOM     15  N   UNL     1       4.975   2.168  19.899  0.00  0.00    +0.000 NA
ATOM     16  H   UNL     1       5.175   2.601  20.800  0.00  0.00    +0.000 HD
ATOM     17  H   UNL     1       5.496   2.699  19.202  0.00  0.00    +0.000 HD
ENDBRANCH  14  15
ENDBRANCH  13  14
ENDBRANCH  12  13
ENDBRANCH   8  12
TORSDOF 5
ENDMDL
MODEL 2
REMARK VINA RESULT:      -6.1      1.944      2.739
REMARK  Name = 
REMARK  6 active torsions:
REMARK  status: ('A' for Active; 'I' for Inactive)
REMARK    1  A    between atoms: C_1  and  O_2
REMARK    2  A    between atoms: O_2  and  C_3
REMARK    3  A    between atoms: N_10  and  C_11
REMARK    4  A    between atoms: C_11  and  C_12
REMARK    5  A    between atoms: C_12  and  C_13
REMARK    6  A    between atoms: C_13  and  N_14
REMARK                            x       y       z     vdW  Elec       q    Type
REMARK                         _______ _______ _______ _____ _____    ______ ____
ROOT
ATOM      1  C   UNL     1       6.463   4.697  16.736  0.00  0.00    +0.000 A 
ATOM      2  C   UNL     1       6.483   5.213  18.030  0.00  0.00    +0.000 A 
ATOM      3  C   UNL     1       5.365   5.108  18.868  0.00  0.00    +0.000 A 
ATOM      4  C   UNL     1       4.214   4.474  18.372  0.00  0.00    +0.000 A 
ATOM      5  C   UNL     1       4.162   3.980  17.064  0.00  0.00    +0.000 A 
ATOM      6  C   UNL     1       2.864   3.440  16.867  0.00  0.00    +0.000 A 
ATOM      7  C   UNL     1       2.159   3.610  18.035  0.00  0.00    +0.000 A 
ATOM      8  N   UNL     1       2.988   4.210  18.951  0.00  0.00    +0.000 N 
ATOM      9  C   UNL     1       5.299   4.101  16.240  0.00  0.00    +0.000 A 
ENDROOT
BRANCH   1  11
ATOM     10  C   UNL     1       7.145   4.806  14.478  0.00  0.00    +0.000 C 
ATOM     11  O   UNL     1       7.510   4.763  15.854  0.00  0.00    +0.000 OA
ENDBRANCH   1  11
BRANCH   8  12
ATOM     12  C   UNL     1       2.587   4.548  20.307  0.00  0.00    +0.000 C 
BRANCH  12  13
ATOM     13  C   UNL     1       1.228   3.987  20.731  0.00  0.00    +0.000 C 
BRANCH  13  14
ATOM     14  C   UNL     1       1.335   2.748  21.618  0.00  0.00    +0.000 C 
BRANCH  14  15
ATOM     15  N   UNL     1       2.735   2.520  21.969  0.00  0.00    +0.000 NA
ATOM     16  H   UNL     1       3.092   1.699  21.482  0.00  0.00    +0.000 HD
ATOM     17  H   UNL     1       2.809   2.319  22.965  0.00  0.00    +0.000 HD
ENDBRANCH  14  15
ENDBRANCH  13  14
ENDBRANCH  12  13
ENDBRANCH   8  12
TORSDOF 5
ENDMDL
MODEL 3
REMARK VINA RESULT:      -6.0      1.960      2.372
REMARK  Name = 
REMARK  6 active torsions:
REMARK  status: ('A' for Active; 'I' for Inactive)
REMARK    1  A    between atoms: C_1  and  O_2
REMARK    2  A    between atoms: O_2  and  C_3
REMARK    3  A    between atoms: N_10  and  C_11
REMARK    4  A    between atoms: C_11  and  C_12
REMARK    5  A    between atoms: C_12  and  C_13
REMARK    6  A    between atoms: C_13  and  N_14
REMARK                            x       y       z     vdW  Elec       q    Type
REMARK                         _______ _______ _______ _____ _____    ______ ____
ROOT
ATOM      1  C   UNL     1       5.800   5.294  15.893  0.00  0.00    +0.000 A 
ATOM      2  C   UNL     1       5.285   4.027  16.163  0.00  0.00    +0.000 A 
ATOM      3  C   UNL     1       4.157   3.863  16.977  0.00  0.00    +0.000 A 
ATOM      4  C   UNL     1       3.554   5.008  17.524  0.00  0.00    +0.000 A 
ATOM      5  C   UNL     1       4.077   6.286  17.293  0.00  0.00    +0.000 A 
ATOM      6  C   UNL     1       3.269   7.208  18.009  0.00  0.00    +0.000 A 
ATOM      7  C   UNL     1       2.288   6.493  18.652  0.00  0.00    +0.000 A 
ATOM      8  N   UNL     1       2.447   5.167  18.335  0.00  0.00    +0.000 N 
ATOM      9  C   UNL     1       5.215   6.424  16.473  0.00  0.00    +0.000 A 
ENDROOT
BRANCH   1  11
ATOM     10  C   UNL     1       7.009   4.732  13.944  0.00  0.00    +0.000 C 
ATOM     11  O   UNL     1       6.899   5.538  15.113  0.00  0.00    +0.000 OA
ENDBRANCH   1  11
BRANCH   8  12
ATOM     12  C   UNL     1       1.587   4.105  18.832  0.00  0.00    +0.000 C 
BRANCH  12  13
ATOM     13  C   UNL     1       1.193   4.239  20.305  0.00  0.00    +0.000 C 
BRANCH  13  14
ATOM     14  C   UNL     1       2.288   3.784  21.267  0.00  0.00    +0.000 C 
BRANCH  14  15
ATOM     15  N   UNL     1       1.781   2.700  22.105  0.00  0.00    +0.000 NA
ATOM     16  H   UNL     1       1.301   2.006  21.534  0.00  0.00    +0.000 HD
ATOM     17  H   UNL     1       1.089   3.066  22.757  0.00  0.00    +0.000 HD
ENDBRANCH  14  15
ENDBRANCH  13  14
ENDBRANCH  12  13
ENDBRANCH   8  12
TORSDOF 5
ENDMDL
MODEL 4
REMARK VINA RESULT:      -6.0      2.815      4.852
REMARK  Name = 
REMARK  6 active torsions:
REMARK  status: ('A' for Active; 'I' for Inactive)
REMARK    1  A    between atoms: C_1  and  O_2
REMARK    2  A    between atoms: O_2  and  C_3
REMARK    3  A    between atoms: N_10  and  C_11
REMARK    4  A    between atoms: C_11  and  C_12
REMARK    5  A    between atoms: C_12  and  C_13
REMARK    6  A    between atoms: C_13  and  N_14
REMARK                            x       y       z     vdW  Elec       q    Type
REMARK                         _______ _______ _______ _____ _____    ______ ____
ROOT
ATOM      1  C   UNL     1       2.370   3.167  19.264  0.00  0.00    +0.000 A 
ATOM      2  C   UNL     1       3.459   2.707  18.526  0.00  0.00    +0.000 A 
ATOM      3  C   UNL     1       4.261   3.591  17.793  0.00  0.00    +0.000 A 
ATOM      4  C   UNL     1       3.940   4.958  17.812  0.00  0.00    +0.000 A 
ATOM      5  C   UNL     1       2.831   5.435  18.519  0.00  0.00    +0.000 A 
ATOM      6  C   UNL     1       2.765   6.838  18.305  0.00  0.00    +0.000 A 
ATOM      7  C   UNL     1       3.813   7.186  17.488  0.00  0.00    +0.000 A 
ATOM      8  N   UNL     1       4.538   6.052  17.215  0.00  0.00    +0.000 N 
ATOM      9  C   UNL     1       2.038   4.525  19.246  0.00  0.00    +0.000 A 
ENDROOT
BRANCH   1  11
ATOM     10  C   UNL     1       1.365   2.758  21.361  0.00  0.00    +0.000 C 
ATOM     11  O   UNL     1       1.535   2.369  20.002  0.00  0.00    +0.000 OA
ENDBRANCH   1  11
BRANCH   8  12
ATOM     12  C   UNL     1       5.727   6.031  16.378  0.00  0.00    +0.000 C 
BRANCH  12  13
ATOM     13  C   UNL     1       7.015   6.455  17.088  0.00  0.00    +0.000 C 
BRANCH  13  14
ATOM     14  C   UNL     1       7.555   5.394  18.044  0.00  0.00    +0.000 C 
BRANCH  14  15
ATOM     15  N   UNL     1       7.954   4.211  17.285  0.00  0.00    +0.000 NA
ATOM     16  H   UNL     1       7.584   4.258  16.336  0.00  0.00    +0.000 HD
ATOM     17  H   UNL     1       7.550   3.379  17.711  0.00  0.00    +0.000 HD
ENDBRANCH  14  15
ENDBRANCH  13  14
ENDBRANCH  12  13
ENDBRANCH   8  12
TORSDOF 5
ENDMDL
MODEL 5
REMARK VINA RESULT:      -5.9      2.244      2.543
REMARK  Name = 
REMARK  6 active torsions:
REMARK  status: ('A' for Active; 'I' for Inactive)
REMARK    1  A    between atoms: C_1  and  O_2
REMARK    2  A    between atoms: O_2  and  C_3
REMARK    3  A    between atoms: N_10  and  C_11
REMARK    4  A    between atoms: C_11  and  C_12
REMARK    5  A    between atoms: C_12  and  C_13
REMARK    6  A    between atoms: C_13  and  N_14
REMARK                            x       y       z     vdW  Elec       q    Type
REMARK                         _______ _______ _______ _____ _____    ______ ____
ROOT
ATOM      1  C   UNL     1       6.272   5.647  16.763  0.00  0.00    +0.000 A 
ATOM      2  C   UNL     1       6.276   4.720  17.803  0.00  0.00    +0.000 A 
ATOM      3  C   UNL     1       5.250   4.698  18.757  0.00  0.00    +0.000 A 
ATOM      4  C   UNL     1       4.214   5.641  18.647  0.00  0.00    +0.000 A 
ATOM      5  C   UNL     1       4.211   6.602  17.630  0.00  0.00    +0.000 A 
ATOM      6  C   UNL     1       3.062   7.415  17.820  0.00  0.00    +0.000 A 
ATOM      7  C   UNL     1       2.398   6.946  18.928  0.00  0.00    +0.000 A 
ATOM      8  N   UNL     1       3.082   5.857  19.408  0.00  0.00    +0.000 N 
ATOM      9  C   UNL     1       5.256   6.604  16.684  0.00  0.00    +0.000 A 
ENDROOT
BRANCH   1  11
ATOM     10  C   UNL     1       7.072   4.858  14.686  0.00  0.00    +0.000 C 
ATOM     11  O   UNL     1       7.238   5.736  15.795  0.00  0.00    +0.000 OA
ENDBRANCH   1  11
BRANCH   8  12
ATOM     12  C   UNL     1       2.674   5.093  20.577  0.00  0.00    +0.000 C 
BRANCH  12  13
ATOM     13  C   UNL     1       1.286   4.457  20.471  0.00  0.00    +0.000 C 
BRANCH  13  14
ATOM     14  C   UNL     1       1.293   2.948  20.708  0.00  0.00    +0.000 C 
BRANCH  14  15
ATOM     15  N   UNL     1       1.763   2.670  22.063  0.00  0.00    +0.000 NA
ATOM     16  H   UNL     1       1.015   2.831  22.737  0.00  0.00    +0.000 HD
ATOM     17  H   UNL     1       2.513   3.315  22.305  0.00  0.00    +0.000 HD
ENDBRANCH  14  15
ENDBRANCH  13  14
ENDBRANCH  12  13
ENDBRANCH   8  12
TORSDOF 5
ENDMDL
MODEL 6
REMARK VINA RESULT:      -5.9      1.965      2.376
REMARK  Name = 
REMARK  6 active torsions:
REMARK  status: ('A' for Active; 'I' for Inactive)
REMARK    1  A    between atoms: C_1  and  O_2
REMARK    2  A    between atoms: O_2  and  C_3
REMARK    3  A    between atoms: N_10  and  C_11
REMARK    4  A    between atoms: C_11  and  C_12
REMARK    5  A    between atoms: C_12  and  C_13
REMARK    6  A    between atoms: C_13  and  N_14
REMARK                            x       y       z     vdW  Elec       q    Type
REMARK                         _______ _______ _______ _____ _____    ______ ____
ROOT
ATOM      1  C   UNL     1       5.653   5.550  16.150  0.00  0.00    +0.000 A 
ATOM      2  C   UNL     1       5.631   4.340  16.841  0.00  0.00    +0.000 A 
ATOM      3  C   UNL     1       4.754   4.135  17.915  0.00  0.00    +0.000 A 
ATOM      4  C   UNL     1       3.898   5.184  18.288  0.00  0.00    +0.000 A 
ATOM      5  C   UNL     1       3.930   6.418  17.630  0.00  0.00    +0.000 A 
ATOM      6  C   UNL     1       2.980   7.261  18.266  0.00  0.00    +0.000 A 
ATOM      7  C   UNL     1       2.397   6.542  19.281  0.00  0.00    +0.000 A 
ATOM      8  N   UNL     1       2.934   5.278  19.274  0.00  0.00    +0.000 N 
ATOM      9  C   UNL     1       4.822   6.600  16.554  0.00  0.00    +0.000 A 
ENDROOT
BRANCH   1  11
ATOM     10  C   UNL     1       6.764   4.731  14.235  0.00  0.00    +0.000 C 
ATOM     11  O   UNL     1       6.481   5.830  15.095  0.00  0.00    +0.000 OA
ENDBRANCH   1  11
BRANCH   8  12
ATOM     12  C   UNL     1       2.557   4.231  20.209  0.00  0.00    +0.000 C 
BRANCH  12  13
ATOM     13  C   UNL     1       1.153   3.660  19.998  0.00  0.00    +0.000 C 
BRANCH  13  14
ATOM     14  C   UNL     1       1.019   2.847  18.712  0.00  0.00    +0.000 C 
BRANCH  14  15
ATOM     15  N   UNL     1       1.834   1.638  18.812  0.00  0.00    +0.000 NA
ATOM     16  H   UNL     1       2.098   1.311  17.884  0.00  0.00    +0.000 HD
ATOM     17  H   UNL     1       1.286   0.891  19.237  0.00  0.00    +0.000 HD
ENDBRANCH  14  15
ENDBRANCH  13  14
ENDBRANCH  12  13
ENDBRANCH   8  12
TORSDOF 5
ENDMDL
MODEL 7
REMARK VINA RESULT:      -5.9      1.792      2.932
REMARK  Name = 
REMARK  6 active torsions:
REMARK  status: ('A' for Active; 'I' for Inactive)
REMARK    1  A    between atoms: C_1  and  O_2
REMARK    2  A    between atoms: O_2  and  C_3
REMARK    3  A    between atoms: N_10  and  C_11
REMARK    4  A    between atoms: C_11  and  C_12
REMARK    5  A    between atoms: C_12  and  C_13
REMARK    6  A    between atoms: C_13  and  N_14
REMARK                            x       y       z     vdW  Elec       q    Type
REMARK                         _______ _______ _______ _____ _____    ______ ____
ROOT
ATOM      1  C   UNL     1       5.514   5.339  16.221  0.00  0.00    +0.000 A 
ATOM      2  C   UNL     1       4.697   6.263  16.870  0.00  0.00    +0.000 A 
ATOM      3  C   UNL     1       3.626   5.845  17.671  0.00  0.00    +0.000 A 
ATOM      4  C   UNL     1       3.387   4.468  17.803  0.00  0.00    +0.000 A 
ATOM      5  C   UNL     1       4.175   3.525  17.132  0.00  0.00    +0.000 A 
ATOM      6  C   UNL     1       3.654   2.241  17.444  0.00  0.00    +0.000 A 
ATOM      7  C   UNL     1       2.580   2.418  18.282  0.00  0.00    +0.000 A 
ATOM      8  N   UNL     1       2.439   3.763  18.519  0.00  0.00    +0.000 N 
ATOM      9  C   UNL     1       5.244   3.971  16.330  0.00  0.00    +0.000 A 
ENDROOT
BRANCH   1  11
ATOM     10  C   UNL     1       6.843   4.750  14.361  0.00  0.00    +0.000 C 
ATOM     11  O   UNL     1       6.575   5.665  15.418  0.00  0.00    +0.000 OA
ENDBRANCH   1  11
BRANCH   8  12
ATOM     12  C   UNL     1       1.404   4.333  19.367  0.00  0.00    +0.000 C 
BRANCH  12  13
ATOM     13  C   UNL     1       1.735   4.341  20.861  0.00  0.00    +0.000 C 
BRANCH  13  14
ATOM     14  C   UNL     1       1.446   3.008  21.550  0.00  0.00    +0.000 C 
BRANCH  14  15
ATOM     15  N   UNL     1       2.701   2.411  22.001  0.00  0.00    +0.000 NA
ATOM     16  H   UNL     1       3.060   1.768  21.297  0.00  0.00    +0.000 HD
ATOM     17  H   UNL     1       2.534   1.857  22.840  0.00  0.00    +0.000 HD
ENDBRANCH  14  15
ENDBRANCH  13  14
ENDBRANCH  12  13
ENDBRANCH   8  12
TORSDOF 5
ENDMDL
MODEL 8
REMARK VINA RESULT:      -5.8      1.802      2.773
REMARK  Name = 
REMARK  6 active torsions:
REMARK  status: ('A' for Active; 'I' for Inactive)
REMARK    1  A    between atoms: C_1  and  O_2
REMARK    2  A    between atoms: O_2  and  C_3
REMARK    3  A    between atoms: N_10  and  C_11
REMARK    4  A    between atoms: C_11  and  C_12
REMARK    5  A    between atoms: C_12  and  C_13
REMARK    6  A    between atoms: C_13  and  N_14
REMARK                            x       y       z     vdW  Elec       q    Type
REMARK                         _______ _______ _______ _____ _____    ______ ____
ROOT
ATOM      1  C   UNL     1       5.187   5.987  17.002  0.00  0.00    +0.000 A 
ATOM      2  C   UNL     1       4.100   6.607  17.614  0.00  0.00    +0.000 A 
ATOM      3  C   UNL     1       3.053   5.856  18.165  0.00  0.00    +0.000 A 
ATOM      4  C   UNL     1       3.120   4.456  18.082  0.00  0.00    +0.000 A 
ATOM      5  C   UNL     1       4.186   3.815  17.442  0.00  0.00    +0.000 A 
ATOM      6  C   UNL     1       3.936   2.418  17.499  0.00  0.00    +0.000 A 
ATOM      7  C   UNL     1       2.745   2.234  18.159  0.00  0.00    +0.000 A 
ATOM      8  N   UNL     1       2.269   3.466  18.534  0.00  0.00    +0.000 N 
ATOM      9  C   UNL     1       5.225   4.593  16.893  0.00  0.00    +0.000 A 
ENDROOT
BRANCH   1  11
ATOM     10  C   UNL     1       7.175   7.211  17.358  0.00  0.00    +0.000 C 
ATOM     11  O   UNL     1       6.246   6.648  16.437  0.00  0.00    +0.000 OA
ENDBRANCH   1  11
BRANCH   8  12
ATOM     12  C   UNL     1       1.024   3.668  19.259  0.00  0.00    +0.000 C 
BRANCH  12  13
ATOM     13  C   UNL     1       1.177   4.386  20.602  0.00  0.00    +0.000 C 
BRANCH  13  14
ATOM     14  C   UNL     1       2.185   3.716  21.534  0.00  0.00    +0.000 C 
BRANCH  14  15
ATOM     15  N   UNL     1       1.623   2.468  22.044  0.00  0.00    +0.000 NA
ATOM     16  H   UNL     1       2.166   1.673  21.710  0.00  0.00    +0.000 HD
ATOM     17  H   UNL     1       0.678   2.346  21.683  0.00  0.00    +0.000 HD
ENDBRANCH  14  15
ENDBRANCH  13  14
ENDBRANCH  12  13
ENDBRANCH   8  12
TORSDOF 5
ENDMDL
MODEL 9
REMARK VINA RESULT:      -5.8      1.460      1.577
REMARK  Name = 
REMARK  6 active torsions:
REMARK  status: ('A' for Active; 'I' for Inactive)
REMARK    1  A    between atoms: C_1  and  O_2
REMARK    2  A    between atoms: O_2  and  C_3
REMARK    3  A    between atoms: N_10  and  C_11
REMARK    4  A    between atoms: C_11  and  C_12
REMARK    5  A    between atoms: C_12  and  C_13
REMARK    6  A    between atoms: C_13  and  N_14
REMARK                            x       y       z     vdW  Elec       q    Type
REMARK                         _______ _______ _______ _____ _____    ______ ____
ROOT
ATOM      1  C   UNL     1       6.374   6.311  17.269  0.00  0.00    +0.000 A 
ATOM      2  C   UNL     1       6.630   5.035  17.766  0.00  0.00    +0.000 A 
ATOM      3  C   UNL     1       5.602   4.244  18.295  0.00  0.00    +0.000 A 
ATOM      4  C   UNL     1       4.300   4.770  18.320  0.00  0.00    +0.000 A 
ATOM      5  C   UNL     1       4.028   6.062  17.858  0.00  0.00    +0.000 A 
ATOM      6  C   UNL     1       2.642   6.298  18.055  0.00  0.00    +0.000 A 
ATOM      7  C   UNL     1       2.102   5.170  18.623  0.00  0.00    +0.000 A 
ATOM      8  N   UNL     1       3.101   4.238  18.756  0.00  0.00    +0.000 N 
ATOM      9  C   UNL     1       5.081   6.839  17.333  0.00  0.00    +0.000 A 
ENDROOT
BRANCH   1  11
ATOM     10  C   UNL     1       7.793   8.165  17.618  0.00  0.00    +0.000 C 
ATOM     11  O   UNL     1       7.323   7.147  16.741  0.00  0.00    +0.000 OA
ENDBRANCH   1  11
BRANCH   8  12
ATOM     12  C   UNL     1       2.905   2.912  19.321  0.00  0.00    +0.000 C 
BRANCH  12  13
ATOM     13  C   UNL     1       1.483   2.633  19.815  0.00  0.00    +0.000 C 
BRANCH  13  14
ATOM     14  C   UNL     1       1.325   2.799  21.324  0.00  0.00    +0.000 C 
BRANCH  14  15
ATOM     15  N   UNL     1       2.628   2.660  21.970  0.00  0.00    +0.000 NA
ATOM     16  H   UNL     1       2.592   1.940  22.690  0.00  0.00    +0.000 HD
ATOM     17  H   UNL     1       2.870   3.530  22.443  0.00  0.00    +0.000 HD
ENDBRANCH  14  15
ENDBRANCH  13  14
ENDBRANCH  12  13
ENDBRANCH   8  12
TORSDOF 5
ENDMDL
