MODEL 1
REMARK VINA RESULT:      -6.3      0.000      0.000
REMARK  Name = 
REMARK  3 active torsions:
REMARK  status: ('A' for Active; 'I' for Inactive)
REMARK    1  A    between atoms: C_1  and  O_2
REMARK    2  A    between atoms: O_2  and  C_3
REMARK    3  A    between atoms: N_11  and  C_12
REMARK                            x       y       z     vdW  Elec       q    Type
REMARK                         _______ _______ _______ _____ _____    ______ ____
ROOT
ATOM      1  C   UNL     1       5.341   4.963  18.205  0.00  0.00    +0.000 A 
ATOM      2  C   UNL     1       5.344   6.273  17.716  0.00  0.00    +0.000 A 
ATOM      3  C   UNL     1       4.148   6.939  17.475  0.00  0.00    +0.000 A 
ATOM      4  C   UNL     1       2.937   6.293  17.685  0.00  0.00    +0.000 A 
ATOM      5  C   UNL     1       2.911   4.967  18.137  0.00  0.00    +0.000 A 
ATOM      6  C   UNL     1       4.118   4.288  18.403  0.00  0.00    +0.000 A 
ATOM      7  C   UNL     1       4.066   2.871  18.939  0.00  0.00    +0.000 C 
ATOM      8  C   UNL     1       3.419   2.782  20.334  0.00  0.00    +0.000 C 
ATOM      9  N   UNL     1       1.940   2.771  20.353  0.00  0.00    +0.000 NA
ATOM     10  C   UNL     1       1.467   2.507  21.716  0.00  0.00    +0.000 C 
ATOM     11  C   UNL     1       1.346   4.033  19.873  0.00  0.00    +0.000 C 
ATOM     12  C   UNL     1       1.578   4.303  18.382  0.00  0.00    +0.000 C 
ENDROOT
BRANCH   1  14
ATOM     13  C   UNL     1       7.612   4.614  17.678  0.00  0.00    +0.000 C 
ATOM     14  O   UNL     1       6.495   4.280  18.496  0.00  0.00    +0.000 OA
ENDBRANCH   1  14
TORSDOF 1
ENDMDL
MODEL 2
REMARK VINA RESULT:      -6.2      1.865      2.725
REMARK  Name = 
REMARK  3 active torsions:
REMARK  status: ('A' for Active; 'I' for Inactive)
REMARK    1  A    between atoms: C_1  and  O_2
REMARK    2  A    between atoms: O_2  and  C_3
REMARK    3  A    between atoms: N_11  and  C_12
REMARK                            x       y       z     vdW  Elec       q    Type
REMARK                         _______ _______ _______ _____ _____    ______ ____
ROOT
ATOM      1  C   UNL     1       6.274   4.234  16.625  0.00  0.00    +0.000 A 
ATOM      2  C   UNL     1       7.502   4.660  17.141  0.00  0.00    +0.000 A 
ATOM      3  C   UNL     1       7.574   5.245  18.399  0.00  0.00    +0.000 A 
ATOM      4  C   UNL     1       6.417   5.444  19.141  0.00  0.00    +0.000 A 
ATOM      5  C   UNL     1       5.171   5.061  18.628  0.00  0.00    +0.000 A 
ATOM      6  C   UNL     1       5.089   4.449  17.360  0.00  0.00    +0.000 A 
ATOM      7  C   UNL     1       3.737   3.996  16.844  0.00  0.00    +0.000 C 
ATOM      8  C   UNL     1       3.114   2.877  17.700  0.00  0.00    +0.000 C 
ATOM      9  N   UNL     1       2.420   3.323  18.928  0.00  0.00    +0.000 NA
ATOM     10  C   UNL     1       1.731   2.186  19.545  0.00  0.00    +0.000 C 
ATOM     11  C   UNL     1       3.330   3.930  19.918  0.00  0.00    +0.000 C 
ATOM     12  C   UNL     1       3.938   5.265  19.471  0.00  0.00    +0.000 C 
ENDROOT
BRANCH   1  14
ATOM     13  C   UNL     1       6.552   4.410  14.290  0.00  0.00    +0.000 C 
ATOM     14  O   UNL     1       6.159   3.616  15.406  0.00  0.00    +0.000 OA
ENDBRANCH   1  14
TORSDOF 1
ENDMDL
MODEL 3
REMARK VINA RESULT:      -6.1      2.517      4.667
REMARK  Name = 
REMARK  3 active torsions:
REMARK  status: ('A' for Active; 'I' for Inactive)
REMARK    1  A    between atoms: C_1  and  O_2
REMARK    2  A    between atoms: O_2  and  C_3
REMARK    3  A    between atoms: N_11  and  C_12
REMARK                            x       y       z     vdW  Elec       q    Type
REMARK                         _______ _______ _______ _____ _____    ______ ____
ROOT
ATOM      1  C   UNL     1       4.397   4.001  19.187  0.00  0.00    +0.000 A 
ATOM      2  C   UNL     1       3.044   4.184  19.492  0.00  0.00    +0.000 A 
ATOM      3  C   UNL     1       2.310   5.185  18.867  0.00  0.00    +0.000 A 
ATOM      4  C   UNL     1       2.925   6.036  17.960  0.00  0.00    +0.000 A 
ATOM      5  C   UNL     1       4.288   5.897  17.669  0.00  0.00    +0.000 A 
ATOM      6  C   UNL     1       5.039   4.872  18.282  0.00  0.00    +0.000 A 
ATOM      7  C   UNL     1       6.501   4.707  17.916  0.00  0.00    +0.000 C 
ATOM      8  C   UNL     1       6.708   4.315  16.441  0.00  0.00    +0.000 C 
ATOM      9  N   UNL     1       6.661   5.431  15.471  0.00  0.00    +0.000 NA
ATOM     10  C   UNL     1       7.046   4.945  14.142  0.00  0.00    +0.000 C 
ATOM     11  C   UNL     1       5.333   6.069  15.386  0.00  0.00    +0.000 C 
ATOM     12  C   UNL     1       4.920   6.820  16.657  0.00  0.00    +0.000 C 
ENDROOT
BRANCH   1  14
ATOM     13  C   UNL     1       4.408   2.010  20.450  0.00  0.00    +0.000 C 
ATOM     14  O   UNL     1       5.151   3.002  19.748  0.00  0.00    +0.000 OA
ENDBRANCH   1  14
TORSDOF 1
ENDMDL
MODEL 4
REMARK VINA RESULT:      -6.0      1.605      1.661
REMARK  Name = 
REMARK  3 active torsions:
REMARK  status: ('A' for Active; 'I' for Inactive)
REMARK    1  A    between atoms: C_1  and  O_2
REMARK    2  A    between atoms: O_2  and  C_3
REMARK    3  A    between atoms: N_11  and  C_12
REMARK                            x       y       z     vdW  Elec       q    Type
REMARK                         _______ _______ _______ _____ _____    ______ ____
ROOT
ATOM      1  C   UNL     1       4.963   4.663  16.441  0.00  0.00    +0.000 A 
ATOM      2  C   UNL     1       5.373   5.974  16.183  0.00  0.00    +0.000 A 
ATOM      3  C   UNL     1       4.751   7.045  16.814  0.00  0.00    +0.000 A 
ATOM      4  C   UNL     1       3.691   6.821  17.682  0.00  0.00    +0.000 A 
ATOM      5  C   UNL     1       3.237   5.519  17.925  0.00  0.00    +0.000 A 
ATOM      6  C   UNL     1       3.873   4.423  17.305  0.00  0.00    +0.000 A 
ATOM      7  C   UNL     1       3.399   3.018  17.621  0.00  0.00    +0.000 C 
ATOM      8  C   UNL     1       3.619   2.629  19.095  0.00  0.00    +0.000 C 
ATOM      9  N   UNL     1       2.593   3.115  20.043  0.00  0.00    +0.000 NA
ATOM     10  C   UNL     1       2.829   2.529  21.367  0.00  0.00    +0.000 C 
ATOM     11  C   UNL     1       2.568   4.586  20.165  0.00  0.00    +0.000 C 
ATOM     12  C   UNL     1       2.101   5.308  18.895  0.00  0.00    +0.000 C 
ENDROOT
BRANCH   1  14
ATOM     13  C   UNL     1       6.287   3.843  14.671  0.00  0.00    +0.000 C 
ATOM     14  O   UNL     1       5.572   3.573  15.873  0.00  0.00    +0.000 OA
ENDBRANCH   1  14
TORSDOF 1
ENDMDL
MODEL 5
REMARK VINA RESULT:      -6.0      2.543      4.739
REMARK  Name = 
REMARK  3 active torsions:
REMARK  status: ('A' for Active; 'I' for Inactive)
REMARK    1  A    between atoms: C_1  and  O_2
REMARK    2  A    between atoms: O_2  and  C_3
REMARK    3  A    between atoms: N_11  and  C_12
REMARK                            x       y       z     vdW  Elec       q    Type
REMARK                         _______ _______ _______ _____ _____    ______ ____
ROOT
ATOM      1  C   UNL     1       2.101   6.053  19.875  0.00  0.00    +0.000 A 
ATOM      2  C   UNL     1       1.353   5.244  20.736  0.00  0.00    +0.000 A 
ATOM      3  C   UNL     1       1.134   3.905  20.434  0.00  0.00    +0.000 A 
ATOM      4  C   UNL     1       1.629   3.368  19.254  0.00  0.00    +0.000 A 
ATOM      5  C   UNL     1       2.348   4.170  18.357  0.00  0.00    +0.000 A 
ATOM      6  C   UNL     1       2.592   5.525  18.662  0.00  0.00    +0.000 A 
ATOM      7  C   UNL     1       3.415   6.361  17.702  0.00  0.00    +0.000 C 
ATOM      8  C   UNL     1       4.869   5.871  17.575  0.00  0.00    +0.000 C 
ATOM      9  N   UNL     1       5.081   4.731  16.657  0.00  0.00    +0.000 NA
ATOM     10  C   UNL     1       6.518   4.486  16.498  0.00  0.00    +0.000 C 
ATOM     11  C   UNL     1       4.428   3.490  17.114  0.00  0.00    +0.000 C 
ATOM     12  C   UNL     1       2.896   3.549  17.096  0.00  0.00    +0.000 C 
ENDROOT
BRANCH   1  14
ATOM     13  C   UNL     1       1.359   8.057  20.870  0.00  0.00    +0.000 C 
ATOM     14  O   UNL     1       2.377   7.368  20.150  0.00  0.00    +0.000 OA
ENDBRANCH   1  14
TORSDOF 1
ENDMDL
MODEL 6
REMARK VINA RESULT:      -6.0      1.912      2.555
REMARK  Name = 
REMARK  3 active torsions:
REMARK  status: ('A' for Active; 'I' for Inactive)
REMARK    1  A    between atoms: C_1  and  O_2
REMARK    2  A    between atoms: O_2  and  C_3
REMARK    3  A    between atoms: N_11  and  C_12
REMARK                            x       y       z     vdW  Elec       q    Type
REMARK                         _______ _______ _______ _____ _____    ______ ____
ROOT
ATOM      1  C   UNL     1       6.882   4.599  17.434  0.00  0.00    +0.000 A 
ATOM      2  C   UNL     1       7.220   4.801  16.093  0.00  0.00    +0.000 A 
ATOM      3  C   UNL     1       6.256   4.689  15.098  0.00  0.00    +0.000 A 
ATOM      4  C   UNL     1       4.954   4.341  15.427  0.00  0.00    +0.000 A 
ATOM      5  C   UNL     1       4.602   4.095  16.761  0.00  0.00    +0.000 A 
ATOM      6  C   UNL     1       5.567   4.224  17.781  0.00  0.00    +0.000 A 
ATOM      7  C   UNL     1       5.153   4.003  19.222  0.00  0.00    +0.000 C 
ATOM      8  C   UNL     1       4.130   5.043  19.717  0.00  0.00    +0.000 C 
ATOM      9  N   UNL     1       2.723   4.782  19.345  0.00  0.00    +0.000 NA
ATOM     10  C   UNL     1       1.847   5.743  20.024  0.00  0.00    +0.000 C 
ATOM     11  C   UNL     1       2.486   4.859  17.890  0.00  0.00    +0.000 C 
ATOM     12  C   UNL     1       3.171   3.746  17.088  0.00  0.00    +0.000 C 
ENDROOT
BRANCH   1  14
ATOM     13  C   UNL     1       7.939   6.065  18.949  0.00  0.00    +0.000 C 
ATOM     14  O   UNL     1       7.790   4.738  18.454  0.00  0.00    +0.000 OA
ENDBRANCH   1  14
TORSDOF 1
ENDMDL
MODEL 7
REMARK VINA RESULT:      -5.9      1.549      1.811
REMARK  Name = 
REMARK  3 active torsions:
REMARK  status: ('A' for Active; 'I' for Inactive)
REMARK    1  A    between atoms: C_1  and  O_2
REMARK    2  A    between atoms: O_2  and  C_3
REMARK    3  A    between atoms: N_11  and  C_12
REMARK                            x       y       z     vdW  Elec       q    Type
REMARK                         _______ _______ _______ _____ _____    ______ ____
ROOT
ATOM      1  C   UNL     1       6.159   4.900  18.263  0.00  0.00    +0.000 A 
ATOM      2  C   UNL     1       6.539   5.568  17.095  0.00  0.00    +0.000 A 
ATOM      3  C   UNL     1       5.759   5.481  15.948  0.00  0.00    +0.000 A 
ATOM      4  C   UNL     1       4.612   4.700  15.943  0.00  0.00    +0.000 A 
ATOM      5  C   UNL     1       4.234   3.991  17.091  0.00  0.00    +0.000 A 
ATOM      6  C   UNL     1       5.007   4.086  18.267  0.00  0.00    +0.000 A 
ATOM      7  C   UNL     1       4.552   3.351  19.512  0.00  0.00    +0.000 C 
ATOM      8  C   UNL     1       3.208   3.871  20.057  0.00  0.00    +0.000 C 
ATOM      9  N   UNL     1       2.001   3.343  19.387  0.00  0.00    +0.000 NA
ATOM     10  C   UNL     1       0.804   3.779  20.114  0.00  0.00    +0.000 C 
ATOM     11  C   UNL     1       1.889   3.766  17.978  0.00  0.00    +0.000 C 
ATOM     12  C   UNL     1       2.966   3.173  17.062  0.00  0.00    +0.000 C 
ENDROOT
BRANCH   1  14
ATOM     13  C   UNL     1       8.032   5.817  19.364  0.00  0.00    +0.000 C 
ATOM     14  O   UNL     1       6.875   4.989  19.430  0.00  0.00    +0.000 OA
ENDBRANCH   1  14
TORSDOF 1
ENDMDL
MODEL 8
REMARK VINA RESULT:      -5.8      3.093      4.393
REMARK  Name = 
REMARK  3 active torsions:
REMARK  status: ('A' for Active; 'I' for Inactive)
REMARK    1  A    between atoms: C_1  and  O_2
REMARK    2  A    between atoms: O_2  and  C_3
REMARK    3  A    between atoms: N_11  and  C_12
REMARK                            x       y       z     vdW  Elec       q    Type
REMARK                         _______ _______ _______ _____ _____    ______ ____
ROOT
ATOM      1  C   UNL     1       1.544   8.045  20.240  0.00  0.00    +0.000 A 
ATOM      2  C   UNL     1       1.517   9.154  19.389  0.00  0.00    +0.000 A 
ATOM      3  C   UNL     1       1.972   9.050  18.080  0.00  0.00    +0.000 A 
ATOM      4  C   UNL     1       2.492   7.849  17.617  0.00  0.00    +0.000 A 
ATOM      5  C   UNL     1       2.566   6.736  18.464  0.00  0.00    +0.000 A 
ATOM      6  C   UNL     1       2.089   6.824  19.789  0.00  0.00    +0.000 A 
ATOM      7  C   UNL     1       2.133   5.594  20.673  0.00  0.00    +0.000 C 
ATOM      8  C   UNL     1       1.229   4.456  20.160  0.00  0.00    +0.000 C 
ATOM      9  N   UNL     1       1.804   3.620  19.085  0.00  0.00    +0.000 NA
ATOM     10  C   UNL     1       0.919   2.481  18.820  0.00  0.00    +0.000 C 
ATOM     11  C   UNL     1       2.023   4.362  17.828  0.00  0.00    +0.000 C 
ATOM     12  C   UNL     1       3.111   5.438  17.922  0.00  0.00    +0.000 C 
ENDROOT
BRANCH   1  14
ATOM     13  C   UNL     1      -0.194   8.730  21.678  0.00  0.00    +0.000 C 
ATOM     14  O   UNL     1       1.069   8.089  21.526  0.00  0.00    +0.000 OA
ENDBRANCH   1  14
TORSDOF 1
ENDMDL
MODEL 9
REMARK VINA RESULT:      -5.7      2.002      3.037
REMARK  Name = 
REMARK  3 active torsions:
REMARK  status: ('A' for Active; 'I' for Inactive)
REMARK    1  A    between atoms: C_1  and  O_2
REMARK    2  A    between atoms: O_2  and  C_3
REMARK    3  A    between atoms: N_11  and  C_12
REMARK                            x       y       z     vdW  Elec       q    Type
REMARK                         _______ _______ _______ _____ _____    ______ ____
ROOT
ATOM      1  C   UNL     1       4.200   6.541  17.422  0.00  0.00    +0.000 A 
ATOM      2  C   UNL     1       4.897   6.687  16.219  0.00  0.00    +0.000 A 
ATOM      3  C   UNL     1       5.315   5.569  15.507  0.00  0.00    +0.000 A 
ATOM      4  C   UNL     1       5.075   4.296  16.005  0.00  0.00    +0.000 A 
ATOM      5  C   UNL     1       4.413   4.127  17.228  0.00  0.00    +0.000 A 
ATOM      6  C   UNL     1       3.967   5.253  17.950  0.00  0.00    +0.000 A 
ATOM      7  C   UNL     1       3.208   5.047  19.246  0.00  0.00    +0.000 C 
ATOM      8  C   UNL     1       1.859   4.333  19.043  0.00  0.00    +0.000 C 
ATOM      9  N   UNL     1       1.927   2.860  18.928  0.00  0.00    +0.000 NA
ATOM     10  C   UNL     1       0.570   2.304  18.917  0.00  0.00    +0.000 C 
ATOM     11  C   UNL     1       2.643   2.407  17.720  0.00  0.00    +0.000 C 
ATOM     12  C   UNL     1       4.142   2.730  17.727  0.00  0.00    +0.000 C 
ENDROOT
BRANCH   1  14
ATOM     13  C   UNL     1       2.554   8.219  17.615  0.00  0.00    +0.000 C 
ATOM     14  O   UNL     1       3.732   7.613  18.140  0.00  0.00    +0.000 OA
ENDBRANCH   1  14
TORSDOF 1
ENDMDL
