MODEL 1
REMARK VINA RESULT:      -6.1      0.000      0.000
REMARK  Name = 
REMARK  8 active torsions:
REMARK  status: ('A' for Active; 'I' for Inactive)
REMARK    1  A    between atoms: C_1  and  O_2
REMARK    2  A    between atoms: O_2  and  C_3
REMARK    3  A    between atoms: C_6  and  C_7
REMARK    4  A    between atoms: C_7  and  C_8
REMARK    5  A    between atoms: C_8  and  N_9
REMARK    6  A    between atoms: N_9  and  C_10
REMARK    7  A    between atoms: C_10  and  C_11
REMARK    8  A    between atoms: C_11  and  N_12
REMARK                            x       y       z     vdW  Elec       q    Type
REMARK                         _______ _______ _______ _____ _____    ______ ____
ROOT
ATOM      1  C   UNL     1       2.631   5.553  17.994  0.00  0.00    +0.000 C 
ENDROOT
BRANCH   1   2
ATOM      2  N   UNL     1       3.158   4.743  19.112  0.00  0.00    +0.000 NA
ATOM      3  H   UNL     1       2.486   3.964  19.310  0.00  0.00    +0.000 HD
BRANCH   2   4
ATOM      4  C   UNL     1       4.487   4.152  18.877  0.00  0.00    +0.000 C 
BRANCH   4   5
ATOM      5  C   UNL     1       5.642   5.076  19.329  0.00  0.00    +0.000 C 
BRANCH   5   6
ATOM      6  N   UNL     1       6.927   4.753  18.657  0.00  0.00    +0.000 NA
ATOM      7  C   UNL     1       7.946   5.799  18.900  0.00  0.00    +0.000 C 
ATOM      8  C   UNL     1       7.688   7.061  18.050  0.00  0.00    +0.000 C 
ATOM      9  O   UNL     1       7.641   6.740  16.671  0.00  0.00    +0.000 OA
ATOM     10  C   UNL     1       6.583   5.835  16.432  0.00  0.00    +0.000 C 
ATOM     11  C   UNL     1       6.823   4.522  17.196  0.00  0.00    +0.000 C 
ENDBRANCH   5   6
ENDBRANCH   4   5
ENDBRANCH   2   4
ENDBRANCH   1   2
BRANCH   1  12
ATOM     12  C   UNL     1       3.163   7.006  17.953  0.00  0.00    +0.000 C 
BRANCH  12  16
ATOM     13  C   UNL     1       0.457   9.805  19.834  0.00  0.00    +0.000 A 
ATOM     14  C   UNL     1       0.764   9.900  18.477  0.00  0.00    +0.000 A 
ATOM     15  C   UNL     1       1.636   8.996  17.879  0.00  0.00    +0.000 A 
ATOM     16  C   UNL     1       2.234   7.979  18.635  0.00  0.00    +0.000 A 
ATOM     17  C   UNL     1       1.942   7.880  20.008  0.00  0.00    +0.000 A 
ATOM     18  C   UNL     1       1.057   8.788  20.607  0.00  0.00    +0.000 A 
BRANCH  13  20
ATOM     19  C   UNL     1      -0.966  11.779  19.667  0.00  0.00    +0.000 C 
ATOM     20  O   UNL     1      -0.418  10.710  20.341  0.00  0.00    +0.000 OA
ENDBRANCH  13  20
ENDBRANCH  12  16
ENDBRANCH   1  12
TORSDOF 7
ENDMDL
MODEL 2
REMARK VINA RESULT:      -5.9      1.622      2.477
REMARK  Name = 
REMARK  8 active torsions:
REMARK  status: ('A' for Active; 'I' for Inactive)
REMARK    1  A    between atoms: C_1  and  O_2
REMARK    2  A    between atoms: O_2  and  C_3
REMARK    3  A    between atoms: C_6  and  C_7
REMARK    4  A    between atoms: C_7  and  C_8
REMARK    5  A    between atoms: C_8  and  N_9
REMARK    6  A    between atoms: N_9  and  C_10
REMARK    7  A    between atoms: C_10  and  C_11
REMARK    8  A    between atoms: C_11  and  N_12
REMARK                            x       y       z     vdW  Elec       q    Type
REMARK                         _______ _______ _______ _____ _____    ______ ____
ROOT
ATOM      1  C   UNL     1       1.820   4.075  19.428  0.00  0.00    +0.000 C 
ENDROOT
BRANCH   1   2
ATOM      2  N   UNL     1       2.697   3.039  18.845  0.00  0.00    +0.000 NA
ATOM      3  H   UNL     1       2.298   2.737  17.925  0.00  0.00    +0.000 HD
BRANCH   2   4
ATOM      4  C   UNL     1       4.092   3.458  18.624  0.00  0.00    +0.000 C 
BRANCH   4   5
ATOM      5  C   UNL     1       4.443   3.610  17.125  0.00  0.00    +0.000 C 
BRANCH   5   6
ATOM      6  N   UNL     1       4.914   4.977  16.785  0.00  0.00    +0.000 NA
ATOM      7  C   UNL     1       5.358   5.064  15.375  0.00  0.00    +0.000 C 
ATOM      8  C   UNL     1       6.742   4.413  15.168  0.00  0.00    +0.000 C 
ATOM      9  O   UNL     1       7.710   5.000  16.019  0.00  0.00    +0.000 OA
ATOM     10  C   UNL     1       7.337   4.800  17.367  0.00  0.00    +0.000 C 
ATOM     11  C   UNL     1       5.996   5.495  17.656  0.00  0.00    +0.000 C 
ENDBRANCH   5   6
ENDBRANCH   4   5
ENDBRANCH   2   4
ENDBRANCH   1   2
BRANCH   1  12
ATOM     12  C   UNL     1       2.568   5.169  20.227  0.00  0.00    +0.000 C 
BRANCH  12  16
ATOM     13  C   UNL     1       1.530   9.189  19.022  0.00  0.00    +0.000 A 
ATOM     14  C   UNL     1       1.222   8.716  20.297  0.00  0.00    +0.000 A 
ATOM     15  C   UNL     1       1.558   7.421  20.677  0.00  0.00    +0.000 A 
ATOM     16  C   UNL     1       2.203   6.562  19.778  0.00  0.00    +0.000 A 
ATOM     17  C   UNL     1       2.509   7.023  18.484  0.00  0.00    +0.000 A 
ATOM     18  C   UNL     1       2.175   8.331  18.105  0.00  0.00    +0.000 A 
BRANCH  13  20
ATOM     19  C   UNL     1       0.358  11.280  19.473  0.00  0.00    +0.000 C 
ATOM     20  O   UNL     1       1.189  10.471  18.731  0.00  0.00    +0.000 OA
ENDBRANCH  13  20
ENDBRANCH  12  16
ENDBRANCH   1  12
TORSDOF 7
ENDMDL
MODEL 3
REMARK VINA RESULT:      -5.9      2.690      4.038
REMARK  Name = 
REMARK  8 active torsions:
REMARK  status: ('A' for Active; 'I' for Inactive)
REMARK    1  A    between atoms: C_1  and  O_2
REMARK    2  A    between atoms: O_2  and  C_3
REMARK    3  A    between atoms: C_6  and  C_7
REMARK    4  A    between atoms: C_7  and  C_8
REMARK    5  A    between atoms: C_8  and  N_9
REMARK    6  A    between atoms: N_9  and  C_10
REMARK    7  A    between atoms: C_10  and  C_11
REMARK    8  A    between atoms: C_11  and  N_12
REMARK                            x       y       z     vdW  Elec       q    Type
REMARK                         _______ _______ _______ _____ _____    ______ ____
ROOT
ATOM      1  C   UNL     1       3.152   6.214  18.144  0.00  0.00    +0.000 C 
ENDROOT
BRANCH   1   2
ATOM      2  N   UNL     1       4.584   5.880  18.297  0.00  0.00    +0.000 NA
ATOM      3  H   UNL     1       4.960   6.384  19.134  0.00  0.00    +0.000 HD
BRANCH   2   4
ATOM      4  C   UNL     1       4.873   4.444  18.458  0.00  0.00    +0.000 C 
BRANCH   4   5
ATOM      5  C   UNL     1       3.693   3.542  18.025  0.00  0.00    +0.000 C 
BRANCH   5   6
ATOM      6  N   UNL     1       3.373   2.499  19.032  0.00  0.00    +0.000 NA
ATOM      7  C   UNL     1       2.081   1.837  18.738  0.00  0.00    +0.000 C 
ATOM      8  C   UNL     1       0.880   2.730  19.114  0.00  0.00    +0.000 C 
ATOM      9  O   UNL     1       0.934   3.102  20.479  0.00  0.00    +0.000 OA
ATOM     10  C   UNL     1       2.114   3.843  20.721  0.00  0.00    +0.000 C 
ATOM     11  C   UNL     1       3.353   2.977  20.436  0.00  0.00    +0.000 C 
ENDBRANCH   5   6
ENDBRANCH   4   5
ENDBRANCH   2   4
ENDBRANCH   1   2
BRANCH   1  12
ATOM     12  C   UNL     1       2.871   7.712  17.878  0.00  0.00    +0.000 C 
BRANCH  12  16
ATOM     13  C   UNL     1       0.326   9.525  20.866  0.00  0.00    +0.000 A 
ATOM     14  C   UNL     1       0.490  10.106  19.609  0.00  0.00    +0.000 A 
ATOM     15  C   UNL     1       1.311   9.517  18.653  0.00  0.00    +0.000 A 
ATOM     16  C   UNL     1       2.001   8.333  18.942  0.00  0.00    +0.000 A 
ATOM     17  C   UNL     1       1.854   7.742  20.211  0.00  0.00    +0.000 A 
ATOM     18  C   UNL     1       1.020   8.334  21.171  0.00  0.00    +0.000 A 
BRANCH  13  20
ATOM     19  C   UNL     1      -0.558   9.944  23.100  0.00  0.00    +0.000 C 
ATOM     20  O   UNL     1      -0.508  10.146  21.739  0.00  0.00    +0.000 OA
ENDBRANCH  13  20
ENDBRANCH  12  16
ENDBRANCH   1  12
TORSDOF 7
ENDMDL
MODEL 4
REMARK VINA RESULT:      -5.9      3.893      7.144
REMARK  Name = 
REMARK  8 active torsions:
REMARK  status: ('A' for Active; 'I' for Inactive)
REMARK    1  A    between atoms: C_1  and  O_2
REMARK    2  A    between atoms: O_2  and  C_3
REMARK    3  A    between atoms: C_6  and  C_7
REMARK    4  A    between atoms: C_7  and  C_8
REMARK    5  A    between atoms: C_8  and  N_9
REMARK    6  A    between atoms: N_9  and  C_10
REMARK    7  A    between atoms: C_10  and  C_11
REMARK    8  A    between atoms: C_11  and  N_12
REMARK                            x       y       z     vdW  Elec       q    Type
REMARK                         _______ _______ _______ _____ _____    ______ ____
ROOT
ATOM      1  C   UNL     1       7.428   5.877  18.575  0.00  0.00    +0.000 C 
ENDROOT
BRANCH   1   2
ATOM      2  N   UNL     1       6.659   5.273  19.683  0.00  0.00    +0.000 NA
ATOM      3  H   UNL     1       6.857   5.808  20.562  0.00  0.00    +0.000 HD
BRANCH   2   4
ATOM      4  C   UNL     1       5.200   5.245  19.484  0.00  0.00    +0.000 C 
BRANCH   4   5
ATOM      5  C   UNL     1       4.651   3.814  19.270  0.00  0.00    +0.000 C 
BRANCH   5   6
ATOM      6  N   UNL     1       3.257   3.659  19.758  0.00  0.00    +0.000 NA
ATOM      7  C   UNL     1       2.673   2.366  19.334  0.00  0.00    +0.000 C 
ATOM      8  C   UNL     1       2.270   2.379  17.844  0.00  0.00    +0.000 C 
ATOM      9  O   UNL     1       1.363   3.433  17.575  0.00  0.00    +0.000 OA
ATOM     10  C   UNL     1       1.977   4.672  17.866  0.00  0.00    +0.000 C 
ATOM     11  C   UNL     1       2.335   4.749  19.361  0.00  0.00    +0.000 C 
ENDBRANCH   5   6
ENDBRANCH   4   5
ENDBRANCH   2   4
ENDBRANCH   1   2
BRANCH   1  12
ATOM     12  C   UNL     1       6.558   6.573  17.500  0.00  0.00    +0.000 C 
BRANCH  12  16
ATOM     13  C   UNL     1       5.980   4.179  13.947  0.00  0.00    +0.000 A 
ATOM     14  C   UNL     1       4.908   4.510  14.776  0.00  0.00    +0.000 A 
ATOM     15  C   UNL     1       5.103   5.280  15.918  0.00  0.00    +0.000 A 
ATOM     16  C   UNL     1       6.385   5.726  16.264  0.00  0.00    +0.000 A 
ATOM     17  C   UNL     1       7.476   5.390  15.442  0.00  0.00    +0.000 A 
ATOM     18  C   UNL     1       7.277   4.620  14.287  0.00  0.00    +0.000 A 
BRANCH  13  20
ATOM     19  C   UNL     1       6.620   3.038  11.888  0.00  0.00    +0.000 C 
ATOM     20  O   UNL     1       5.709   3.443  12.839  0.00  0.00    +0.000 OA
ENDBRANCH  13  20
ENDBRANCH  12  16
ENDBRANCH   1  12
TORSDOF 7
ENDMDL
MODEL 5
REMARK VINA RESULT:      -5.8      4.026      6.989
REMARK  Name = 
REMARK  8 active torsions:
REMARK  status: ('A' for Active; 'I' for Inactive)
REMARK    1  A    between atoms: C_1  and  O_2
REMARK    2  A    between atoms: O_2  and  C_3
REMARK    3  A    between atoms: C_6  and  C_7
REMARK    4  A    between atoms: C_7  and  C_8
REMARK    5  A    between atoms: C_8  and  N_9
REMARK    6  A    between atoms: N_9  and  C_10
REMARK    7  A    between atoms: C_10  and  C_11
REMARK    8  A    between atoms: C_11  and  N_12
REMARK                            x       y       z     vdW  Elec       q    Type
REMARK                         _______ _______ _______ _____ _____    ______ ____
ROOT
ATOM      1  C   UNL     1       7.648   5.728  18.661  0.00  0.00    +0.000 C 
ENDROOT
BRANCH   1   2
ATOM      2  N   UNL     1       6.709   5.400  19.753  0.00  0.00    +0.000 NA
ATOM      3  H   UNL     1       6.258   6.285  20.087  0.00  0.00    +0.000 HD
BRANCH   2   4
ATOM      4  C   UNL     1       5.641   4.452  19.391  0.00  0.00    +0.000 C 
BRANCH   4   5
ATOM      5  C   UNL     1       4.228   5.076  19.479  0.00  0.00    +0.000 C 
BRANCH   5   6
ATOM      6  N   UNL     1       3.179   4.071  19.780  0.00  0.00    +0.000 NA
ATOM      7  C   UNL     1       3.499   2.754  19.182  0.00  0.00    +0.000 C 
ATOM      8  C   UNL     1       3.240   2.735  17.661  0.00  0.00    +0.000 C 
ATOM      9  O   UNL     1       1.898   3.086  17.372  0.00  0.00    +0.000 OA
ATOM     10  C   UNL     1       1.640   4.395  17.838  0.00  0.00    +0.000 C 
ATOM     11  C   UNL     1       1.809   4.459  19.366  0.00  0.00    +0.000 C 
ENDBRANCH   5   6
ENDBRANCH   4   5
ENDBRANCH   2   4
ENDBRANCH   1   2
BRANCH   1  12
ATOM     12  C   UNL     1       7.055   6.641  17.561  0.00  0.00    +0.000 C 
BRANCH  12  16
ATOM     13  C   UNL     1       5.847   4.367  14.088  0.00  0.00    +0.000 A 
ATOM     14  C   UNL     1       7.194   4.537  14.406  0.00  0.00    +0.000 A 
ATOM     15  C   UNL     1       7.575   5.270  15.525  0.00  0.00    +0.000 A 
ATOM     16  C   UNL     1       6.609   5.866  16.347  0.00  0.00    +0.000 A 
ATOM     17  C   UNL     1       5.247   5.712  16.030  0.00  0.00    +0.000 A 
ATOM     18  C   UNL     1       4.864   4.966  14.906  0.00  0.00    +0.000 A 
BRANCH  13  20
ATOM     19  C   UNL     1       6.434   3.239  12.007  0.00  0.00    +0.000 C 
ATOM     20  O   UNL     1       5.552   3.620  12.993  0.00  0.00    +0.000 OA
ENDBRANCH  13  20
ENDBRANCH  12  16
ENDBRANCH   1  12
TORSDOF 7
ENDMDL
MODEL 6
REMARK VINA RESULT:      -5.8      1.242      1.456
REMARK  Name = 
REMARK  8 active torsions:
REMARK  status: ('A' for Active; 'I' for Inactive)
REMARK    1  A    between atoms: C_1  and  O_2
REMARK    2  A    between atoms: O_2  and  C_3
REMARK    3  A    between atoms: C_6  and  C_7
REMARK    4  A    between atoms: C_7  and  C_8
REMARK    5  A    between atoms: C_8  and  N_9
REMARK    6  A    between atoms: N_9  and  C_10
REMARK    7  A    between atoms: C_10  and  C_11
REMARK    8  A    between atoms: C_11  and  N_12
REMARK                            x       y       z     vdW  Elec       q    Type
REMARK                         _______ _______ _______ _____ _____    ______ ____
ROOT
ATOM      1  C   UNL     1       2.250   5.204  18.261  0.00  0.00    +0.000 C 
ENDROOT
BRANCH   1   2
ATOM      2  N   UNL     1       2.706   3.808  18.432  0.00  0.00    +0.000 NA
ATOM      3  H   UNL     1       1.880   3.170  18.344  0.00  0.00    +0.000 HD
BRANCH   2   4
ATOM      4  C   UNL     1       3.730   3.367  17.469  0.00  0.00    +0.000 C 
BRANCH   4   5
ATOM      5  C   UNL     1       5.154   3.838  17.848  0.00  0.00    +0.000 C 
BRANCH   5   6
ATOM      6  N   UNL     1       5.962   4.220  16.663  0.00  0.00    +0.000 NA
ATOM      7  C   UNL     1       7.308   4.701  17.054  0.00  0.00    +0.000 C 
ATOM      8  C   UNL     1       7.262   6.133  17.626  0.00  0.00    +0.000 C 
ATOM      9  O   UNL     1       6.678   7.029  16.699  0.00  0.00    +0.000 OA
ATOM     10  C   UNL     1       5.349   6.631  16.428  0.00  0.00    +0.000 C 
ATOM     11  C   UNL     1       5.334   5.234  15.783  0.00  0.00    +0.000 C 
ENDBRANCH   5   6
ENDBRANCH   4   5
ENDBRANCH   2   4
ENDBRANCH   1   2
BRANCH   1  12
ATOM     12  C   UNL     1       2.870   6.205  19.264  0.00  0.00    +0.000 C 
BRANCH  12  16
ATOM     13  C   UNL     1       0.971  10.081  19.008  0.00  0.00    +0.000 A 
ATOM     14  C   UNL     1       1.637   9.530  17.914  0.00  0.00    +0.000 A 
ATOM     15  C   UNL     1       2.246   8.283  18.004  0.00  0.00    +0.000 A 
ATOM     16  C   UNL     1       2.214   7.561  19.205  0.00  0.00    +0.000 A 
ATOM     17  C   UNL     1       1.555   8.111  20.320  0.00  0.00    +0.000 A 
ATOM     18  C   UNL     1       0.935   9.365  20.225  0.00  0.00    +0.000 A 
BRANCH  13  20
ATOM     19  C   UNL     1       0.270  12.283  19.788  0.00  0.00    +0.000 C 
ATOM     20  O   UNL     1       0.383  11.292  18.838  0.00  0.00    +0.000 OA
ENDBRANCH  13  20
ENDBRANCH  12  16
ENDBRANCH   1  12
TORSDOF 7
ENDMDL
MODEL 7
REMARK VINA RESULT:      -5.8      4.896      7.455
REMARK  Name = 
REMARK  8 active torsions:
REMARK  status: ('A' for Active; 'I' for Inactive)
REMARK    1  A    between atoms: C_1  and  O_2
REMARK    2  A    between atoms: O_2  and  C_3
REMARK    3  A    between atoms: C_6  and  C_7
REMARK    4  A    between atoms: C_7  and  C_8
REMARK    5  A    between atoms: C_8  and  N_9
REMARK    6  A    between atoms: N_9  and  C_10
REMARK    7  A    between atoms: C_10  and  C_11
REMARK    8  A    between atoms: C_11  and  N_12
REMARK                            x       y       z     vdW  Elec       q    Type
REMARK                         _______ _______ _______ _____ _____    ______ ____
ROOT
ATOM      1  C   UNL     1       8.124   9.303  17.624  0.00  0.00    +0.000 C 
ENDROOT
BRANCH   1   2
ATOM      2  N   UNL     1       7.549   7.983  17.291  0.00  0.00    +0.000 NA
ATOM      3  H   UNL     1       7.915   7.681  16.358  0.00  0.00    +0.000 HD
BRANCH   2   4
ATOM      4  C   UNL     1       7.841   6.916  18.264  0.00  0.00    +0.000 C 
BRANCH   4   5
ATOM      5  C   UNL     1       6.581   6.119  18.677  0.00  0.00    +0.000 C 
BRANCH   5   6
ATOM      6  N   UNL     1       6.690   4.673  18.354  0.00  0.00    +0.000 NA
ATOM      7  C   UNL     1       7.335   4.457  17.039  0.00  0.00    +0.000 C 
ATOM      8  C   UNL     1       6.373   4.761  15.871  0.00  0.00    +0.000 C 
ATOM      9  O   UNL     1       5.196   3.981  15.968  0.00  0.00    +0.000 OA
ATOM     10  C   UNL     1       4.523   4.288  17.172  0.00  0.00    +0.000 C 
ATOM     11  C   UNL     1       5.406   3.933  18.381  0.00  0.00    +0.000 C 
ENDBRANCH   5   6
ENDBRANCH   4   5
ENDBRANCH   2   4
ENDBRANCH   1   2
BRANCH   1  12
ATOM     12  C   UNL     1       8.891   9.346  18.967  0.00  0.00    +0.000 C 
BRANCH  12  16
ATOM     13  C   UNL     1      11.054  13.061  19.424  0.00  0.00    +0.000 A 
ATOM     14  C   UNL     1      10.833  12.505  18.164  0.00  0.00    +0.000 A 
ATOM     15  C   UNL     1      10.137  11.309  18.025  0.00  0.00    +0.000 A 
ATOM     16  C   UNL     1       9.655  10.632  19.154  0.00  0.00    +0.000 A 
ATOM     17  C   UNL     1       9.881  11.177  20.431  0.00  0.00    +0.000 A 
ATOM     18  C   UNL     1      10.577  12.387  20.568  0.00  0.00    +0.000 A 
BRANCH  13  20
ATOM     19  C   UNL     1      11.379  15.336  20.239  0.00  0.00    +0.000 C 
ATOM     20  O   UNL     1      11.723  14.241  19.478  0.00  0.00    +0.000 OA
ENDBRANCH  13  20
ENDBRANCH  12  16
ENDBRANCH   1  12
TORSDOF 7
ENDMDL
MODEL 8
REMARK VINA RESULT:      -5.8      2.905      4.213
REMARK  Name = 
REMARK  8 active torsions:
REMARK  status: ('A' for Active; 'I' for Inactive)
REMARK    1  A    between atoms: C_1  and  O_2
REMARK    2  A    between atoms: O_2  and  C_3
REMARK    3  A    between atoms: C_6  and  C_7
REMARK    4  A    between atoms: C_7  and  C_8
REMARK    5  A    between atoms: C_8  and  N_9
REMARK    6  A    between atoms: N_9  and  C_10
REMARK    7  A    between atoms: C_10  and  C_11
REMARK    8  A    between atoms: C_11  and  N_12
REMARK                            x       y       z     vdW  Elec       q    Type
REMARK                         _______ _______ _______ _____ _____    ______ ____
ROOT
ATOM      1  C   UNL     1       3.590   6.226  18.270  0.00  0.00    +0.000 C 
ENDROOT
BRANCH   1   2
ATOM      2  N   UNL     1       4.372   5.466  17.272  0.00  0.00    +0.000 NA
ATOM      3  H   UNL     1       5.367   5.407  17.596  0.00  0.00    +0.000 HD
BRANCH   2   4
ATOM      4  C   UNL     1       3.892   4.096  17.019  0.00  0.00    +0.000 C 
BRANCH   4   5
ATOM      5  C   UNL     1       2.445   3.866  17.516  0.00  0.00    +0.000 C 
BRANCH   5   6
ATOM      6  N   UNL     1       2.237   2.496  18.049  0.00  0.00    +0.000 NA
ATOM      7  C   UNL     1       0.941   2.379  18.757  0.00  0.00    +0.000 C 
ATOM      8  C   UNL     1       0.988   3.037  20.153  0.00  0.00    +0.000 C 
ATOM      9  O   UNL     1       2.023   2.479  20.940  0.00  0.00    +0.000 OA
ATOM     10  C   UNL     1       3.269   2.707  20.315  0.00  0.00    +0.000 C 
ATOM     11  C   UNL     1       3.312   2.007  18.945  0.00  0.00    +0.000 C 
ENDBRANCH   5   6
ENDBRANCH   4   5
ENDBRANCH   2   4
ENDBRANCH   1   2
BRANCH   1  12
ATOM     12  C   UNL     1       2.892   7.486  17.707  0.00  0.00    +0.000 C 
BRANCH  12  16
ATOM     13  C   UNL     1       0.635   9.538  20.772  0.00  0.00    +0.000 A 
ATOM     14  C   UNL     1       1.212   8.292  21.013  0.00  0.00    +0.000 A 
ATOM     15  C   UNL     1       1.936   7.637  20.022  0.00  0.00    +0.000 A 
ATOM     16  C   UNL     1       2.087   8.215  18.754  0.00  0.00    +0.000 A 
ATOM     17  C   UNL     1       1.500   9.466  18.494  0.00  0.00    +0.000 A 
ATOM     18  C   UNL     1       0.776  10.128  19.497  0.00  0.00    +0.000 A 
BRANCH  13  20
ATOM     19  C   UNL     1      -0.817  11.257  21.711  0.00  0.00    +0.000 C 
ATOM     20  O   UNL     1      -0.039  10.124  21.794  0.00  0.00    +0.000 OA
ENDBRANCH  13  20
ENDBRANCH  12  16
ENDBRANCH   1  12
TORSDOF 7
ENDMDL
MODEL 9
REMARK VINA RESULT:      -5.8      2.636      3.992
REMARK  Name = 
REMARK  8 active torsions:
REMARK  status: ('A' for Active; 'I' for Inactive)
REMARK    1  A    between atoms: C_1  and  O_2
REMARK    2  A    between atoms: O_2  and  C_3
REMARK    3  A    between atoms: C_6  and  C_7
REMARK    4  A    between atoms: C_7  and  C_8
REMARK    5  A    between atoms: C_8  and  N_9
REMARK    6  A    between atoms: N_9  and  C_10
REMARK    7  A    between atoms: C_10  and  C_11
REMARK    8  A    between atoms: C_11  and  N_12
REMARK                            x       y       z     vdW  Elec       q    Type
REMARK                         _______ _______ _______ _____ _____    ______ ____
ROOT
ATOM      1  C   UNL     1       4.747   6.270  17.718  0.00  0.00    +0.000 C 
ENDROOT
BRANCH   1   2
ATOM      2  N   UNL     1       4.649   4.832  17.393  0.00  0.00    +0.000 NA
ATOM      3  H   UNL     1       5.245   4.634  16.554  0.00  0.00    +0.000 HD
BRANCH   2   4
ATOM      4  C   UNL     1       5.065   3.921  18.473  0.00  0.00    +0.000 C 
BRANCH   4   5
ATOM      5  C   UNL     1       4.146   4.005  19.715  0.00  0.00    +0.000 C 
BRANCH   5   6
ATOM      6  N   UNL     1       3.486   2.711  20.025  0.00  0.00    +0.000 NA
ATOM      7  C   UNL     1       2.762   2.175  18.849  0.00  0.00    +0.000 C 
ATOM      8  C   UNL     1       1.434   2.922  18.602  0.00  0.00    +0.000 C 
ATOM      9  O   UNL     1       0.604   2.871  19.748  0.00  0.00    +0.000 OA
ATOM     10  C   UNL     1       1.257   3.498  20.834  0.00  0.00    +0.000 C 
ATOM     11  C   UNL     1       2.555   2.749  21.178  0.00  0.00    +0.000 C 
ENDBRANCH   5   6
ENDBRANCH   4   5
ENDBRANCH   2   4
ENDBRANCH   1   2
BRANCH   1  12
ATOM     12  C   UNL     1       3.637   7.144  17.086  0.00  0.00    +0.000 C 
BRANCH  12  16
ATOM     13  C   UNL     1       1.044   9.020  19.993  0.00  0.00    +0.000 A 
ATOM     14  C   UNL     1       1.265   9.599  18.744  0.00  0.00    +0.000 A 
ATOM     15  C   UNL     1       2.102   8.990  17.814  0.00  0.00    +0.000 A 
ATOM     16  C   UNL     1       2.750   7.786  18.123  0.00  0.00    +0.000 A 
ATOM     17  C   UNL     1       2.544   7.198  19.384  0.00  0.00    +0.000 A 
ATOM     18  C   UNL     1       1.695   7.810  20.317  0.00  0.00    +0.000 A 
BRANCH  13  20
ATOM     19  C   UNL     1      -0.439  10.858  20.599  0.00  0.00    +0.000 C 
ATOM     20  O   UNL     1       0.198   9.662  20.839  0.00  0.00    +0.000 OA
ENDBRANCH  13  20
ENDBRANCH  12  16
ENDBRANCH   1  12
TORSDOF 7
ENDMDL
