MODEL 1
REMARK VINA RESULT:      -8.6      0.000      0.000
REMARK  Name = 
REMARK  5 active torsions:
REMARK  status: ('A' for Active; 'I' for Inactive)
REMARK    1  A    between atoms: C_1  and  C_2
REMARK    2  A    between atoms: N_12  and  C_13
REMARK    3  A    between atoms: C_18  and  N_19
REMARK    4  A    between atoms: N_19  and  S_20
REMARK    5  A    between atoms: S_20  and  C_23
REMARK                            x       y       z     vdW  Elec       q    Type
REMARK                         _______ _______ _______ _____ _____    ______ ____
ROOT
ATOM      1  C   UNL     1       2.788   5.906  18.899  0.00  0.00    +0.000 A 
ATOM      2  C   UNL     1       2.027   4.946  18.214  0.00  0.00    +0.000 A 
ATOM      3  C   UNL     1       2.621   3.764  17.768  0.00  0.00    +0.000 A 
ATOM      4  C   UNL     1       3.970   3.541  18.018  0.00  0.00    +0.000 A 
ATOM      5  F   UNL     1       4.534   2.407  17.576  0.00  0.00    +0.000 F 
ATOM      6  C   UNL     1       4.735   4.471  18.727  0.00  0.00    +0.000 A 
ATOM      7  C   UNL     1       4.139   5.652  19.175  0.00  0.00    +0.000 A 
ENDROOT
BRANCH   1  19
ATOM      8  C   UNL     1       2.802   8.243  17.199  0.00  0.00    +0.000 C 
ATOM      9  C   UNL     1       2.177   8.267  18.578  0.00  0.00    +0.000 A 
ATOM     10  N   UNL     1       1.630   9.382  18.951  0.00  0.00    +0.000 NA
ATOM     11  C   UNL     1       1.017   9.446  20.204  0.00  0.00    +0.000 A 
ATOM     12  C   UNL     1       0.466  10.660  20.626  0.00  0.00    +0.000 A 
ATOM     13  C   UNL     1      -0.115  10.777  21.892  0.00  0.00    +0.000 A 
ATOM     14  C   UNL     1      -0.155   9.676  22.746  0.00  0.00    +0.000 A 
ATOM     15  C   UNL     1       0.367   8.453  22.326  0.00  0.00    +0.000 A 
ATOM     16  C   UNL     1       0.943   8.347  21.053  0.00  0.00    +0.000 A 
ATOM     17  C   UNL     1       1.504   7.070  20.576  0.00  0.00    +0.000 A 
ATOM     18  O   UNL     1       1.372   6.069  21.277  0.00  0.00    +0.000 OA
ATOM     19  N   UNL     1       2.169   7.111  19.348  0.00  0.00    +0.000 N 
ENDBRANCH   1  19
BRANCH   6  20
ATOM     20  N   UNL     1       6.108   4.212  19.045  0.00  0.00    +0.000 N 
ATOM     21  H   UNL     1       6.360   4.302  20.030  0.00  0.00    +0.000 HD
BRANCH  20  22
ATOM     22  S   UNL     1       7.300   4.940  18.071  0.00  0.00    +0.000 S 
ATOM     23  O   UNL     1       7.432   6.305  18.527  0.00  0.00    +0.000 OA
ATOM     24  O   UNL     1       8.452   4.062  18.041  0.00  0.00    +0.000 OA
BRANCH  22  25
ATOM     25  C   UNL     1       6.589   4.949  16.453  0.00  0.00    +0.000 A 
ATOM     26  C   UNL     1       6.756   3.843  15.609  0.00  0.00    +0.000 A 
ATOM     27  C   UNL     1       6.161   3.844  14.345  0.00  0.00    +0.000 A 
ATOM     28  C   UNL     1       5.432   4.953  13.914  0.00  0.00    +0.000 A 
ATOM     29  C   UNL     1       5.301   6.067  14.745  0.00  0.00    +0.000 A 
ATOM     30  C   UNL     1       5.879   6.060  16.014  0.00  0.00    +0.000 A 
ATOM     31  F   UNL     1       5.691   7.129  16.799  0.00  0.00    +0.000 F 
ENDBRANCH  22  25
ENDBRANCH  20  22
ENDBRANCH   6  20
TORSDOF 4
ENDMDL
MODEL 2
REMARK VINA RESULT:      -8.3      1.205      1.978
REMARK  Name = 
REMARK  5 active torsions:
REMARK  status: ('A' for Active; 'I' for Inactive)
REMARK    1  A    between atoms: C_1  and  C_2
REMARK    2  A    between atoms: N_12  and  C_13
REMARK    3  A    between atoms: C_18  and  N_19
REMARK    4  A    between atoms: N_19  and  S_20
REMARK    5  A    between atoms: S_20  and  C_23
REMARK                            x       y       z     vdW  Elec       q    Type
REMARK                         _______ _______ _______ _____ _____    ______ ____
ROOT
ATOM      1  C   UNL     1       2.824   5.730  18.771  0.00  0.00    +0.000 A 
ATOM      2  C   UNL     1       2.072   4.805  18.031  0.00  0.00    +0.000 A 
ATOM      3  C   UNL     1       2.676   3.655  17.521  0.00  0.00    +0.000 A 
ATOM      4  C   UNL     1       4.026   3.426  17.762  0.00  0.00    +0.000 A 
ATOM      5  F   UNL     1       4.600   2.324  17.258  0.00  0.00    +0.000 F 
ATOM      6  C   UNL     1       4.782   4.321  18.524  0.00  0.00    +0.000 A 
ATOM      7  C   UNL     1       4.177   5.470  19.037  0.00  0.00    +0.000 A 
ENDROOT
BRANCH   1  19
ATOM      8  C   UNL     1       1.610   5.671  21.393  0.00  0.00    +0.000 C 
ATOM      9  C   UNL     1       1.575   6.914  20.528  0.00  0.00    +0.000 A 
ATOM     10  N   UNL     1       0.990   7.957  21.029  0.00  0.00    +0.000 NA
ATOM     11  C   UNL     1       0.955   9.136  20.280  0.00  0.00    +0.000 A 
ATOM     12  C   UNL     1       0.285  10.247  20.800  0.00  0.00    +0.000 A 
ATOM     13  C   UNL     1       0.188  11.430  20.062  0.00  0.00    +0.000 A 
ATOM     14  C   UNL     1       0.765  11.512  18.795  0.00  0.00    +0.000 A 
ATOM     15  C   UNL     1       1.457  10.418  18.277  0.00  0.00    +0.000 A 
ATOM     16  C   UNL     1       1.553   9.239  19.029  0.00  0.00    +0.000 A 
ATOM     17  C   UNL     1       2.277   8.064  18.513  0.00  0.00    +0.000 A 
ATOM     18  O   UNL     1       2.883   8.165  17.448  0.00  0.00    +0.000 OA
ATOM     19  N   UNL     1       2.196   6.903  19.286  0.00  0.00    +0.000 N 
ENDBRANCH   1  19
BRANCH   6  20
ATOM     20  N   UNL     1       6.156   4.054  18.832  0.00  0.00    +0.000 N 
ATOM     21  H   UNL     1       6.407   4.097  19.821  0.00  0.00    +0.000 HD
BRANCH  20  22
ATOM     22  S   UNL     1       7.345   4.834  17.896  0.00  0.00    +0.000 S 
ATOM     23  O   UNL     1       7.455   6.183  18.404  0.00  0.00    +0.000 OA
ATOM     24  O   UNL     1       8.510   3.974  17.842  0.00  0.00    +0.000 OA
BRANCH  22  25
ATOM     25  C   UNL     1       6.648   4.896  16.274  0.00  0.00    +0.000 A 
ATOM     26  C   UNL     1       6.849   3.832  15.384  0.00  0.00    +0.000 A 
ATOM     27  C   UNL     1       6.264   3.873  14.116  0.00  0.00    +0.000 A 
ATOM     28  C   UNL     1       5.510   4.981  13.728  0.00  0.00    +0.000 A 
ATOM     29  C   UNL     1       5.344   6.054  14.604  0.00  0.00    +0.000 A 
ATOM     30  C   UNL     1       5.913   6.007  15.877  0.00  0.00    +0.000 A 
ATOM     31  F   UNL     1       5.692   7.035  16.705  0.00  0.00    +0.000 F 
ENDBRANCH  22  25
ENDBRANCH  20  22
ENDBRANCH   6  20
TORSDOF 4
ENDMDL
MODEL 3
REMARK VINA RESULT:      -8.2      1.542      2.166
REMARK  Name = 
REMARK  5 active torsions:
REMARK  status: ('A' for Active; 'I' for Inactive)
REMARK    1  A    between atoms: C_1  and  C_2
REMARK    2  A    between atoms: N_12  and  C_13
REMARK    3  A    between atoms: C_18  and  N_19
REMARK    4  A    between atoms: N_19  and  S_20
REMARK    5  A    between atoms: S_20  and  C_23
REMARK                            x       y       z     vdW  Elec       q    Type
REMARK                         _______ _______ _______ _____ _____    ______ ____
ROOT
ATOM      1  C   UNL     1       2.739   5.924  18.786  0.00  0.00    +0.000 A 
ATOM      2  C   UNL     1       1.943   4.974  18.128  0.00  0.00    +0.000 A 
ATOM      3  C   UNL     1       2.510   3.794  17.645  0.00  0.00    +0.000 A 
ATOM      4  C   UNL     1       3.868   3.560  17.833  0.00  0.00    +0.000 A 
ATOM      5  F   UNL     1       4.405   2.428  17.356  0.00  0.00    +0.000 F 
ATOM      6  C   UNL     1       4.668   4.480  18.515  0.00  0.00    +0.000 A 
ATOM      7  C   UNL     1       4.100   5.660  19.000  0.00  0.00    +0.000 A 
ENDROOT
BRANCH   1  19
ATOM      8  C   UNL     1       2.805   8.311  17.158  0.00  0.00    +0.000 C 
ATOM      9  C   UNL     1       2.181   8.307  18.539  0.00  0.00    +0.000 A 
ATOM     10  N   UNL     1       1.660   9.421  18.947  0.00  0.00    +0.000 NA
ATOM     11  C   UNL     1       1.049   9.461  20.203  0.00  0.00    +0.000 A 
ATOM     12  C   UNL     1       0.527  10.673  20.662  0.00  0.00    +0.000 A 
ATOM     13  C   UNL     1      -0.050  10.764  21.932  0.00  0.00    +0.000 A 
ATOM     14  C   UNL     1      -0.114   9.639  22.753  0.00  0.00    +0.000 A 
ATOM     15  C   UNL     1       0.380   8.418  22.294  0.00  0.00    +0.000 A 
ATOM     16  C   UNL     1       0.952   8.338  21.017  0.00  0.00    +0.000 A 
ATOM     17  C   UNL     1       1.484   7.065  20.501  0.00  0.00    +0.000 A 
ATOM     18  O   UNL     1       1.330   6.045  21.171  0.00  0.00    +0.000 OA
ATOM     19  N   UNL     1       2.149   7.128  19.273  0.00  0.00    +0.000 N 
ENDBRANCH   1  19
BRANCH   6  20
ATOM     20  N   UNL     1       6.053   4.211  18.769  0.00  0.00    +0.000 N 
ATOM     21  H   UNL     1       6.402   4.503  19.683  0.00  0.00    +0.000 HD
BRANCH  20  22
ATOM     22  S   UNL     1       7.177   4.622  17.559  0.00  0.00    +0.000 S 
ATOM     23  O   UNL     1       8.418   3.968  17.906  0.00  0.00    +0.000 OA
ATOM     24  O   UNL     1       6.557   4.384  16.271  0.00  0.00    +0.000 OA
BRANCH  22  25
ATOM     25  C   UNL     1       7.387   6.367  17.738  0.00  0.00    +0.000 A 
ATOM     26  C   UNL     1       8.361   6.870  18.611  0.00  0.00    +0.000 A 
ATOM     27  C   UNL     1       8.544   8.250  18.720  0.00  0.00    +0.000 A 
ATOM     28  C   UNL     1       7.740   9.124  17.987  0.00  0.00    +0.000 A 
ATOM     29  C   UNL     1       6.747   8.619  17.147  0.00  0.00    +0.000 A 
ATOM     30  C   UNL     1       6.575   7.241  17.024  0.00  0.00    +0.000 A 
ATOM     31  F   UNL     1       5.643   6.795  16.172  0.00  0.00    +0.000 F 
ENDBRANCH  22  25
ENDBRANCH  20  22
ENDBRANCH   6  20
TORSDOF 4
ENDMDL
MODEL 4
REMARK VINA RESULT:      -8.1      1.932      2.925
REMARK  Name = 
REMARK  5 active torsions:
REMARK  status: ('A' for Active; 'I' for Inactive)
REMARK    1  A    between atoms: C_1  and  C_2
REMARK    2  A    between atoms: N_12  and  C_13
REMARK    3  A    between atoms: C_18  and  N_19
REMARK    4  A    between atoms: N_19  and  S_20
REMARK    5  A    between atoms: S_20  and  C_23
REMARK                            x       y       z     vdW  Elec       q    Type
REMARK                         _______ _______ _______ _____ _____    ______ ____
ROOT
ATOM      1  C   UNL     1       2.825   5.786  18.599  0.00  0.00    +0.000 A 
ATOM      2  C   UNL     1       2.043   4.888  17.856  0.00  0.00    +0.000 A 
ATOM      3  C   UNL     1       2.618   3.738  17.312  0.00  0.00    +0.000 A 
ATOM      4  C   UNL     1       3.968   3.483  17.523  0.00  0.00    +0.000 A 
ATOM      5  F   UNL     1       4.513   2.381  16.987  0.00  0.00    +0.000 F 
ATOM      6  C   UNL     1       4.754   4.350  18.287  0.00  0.00    +0.000 A 
ATOM      7  C   UNL     1       4.178   5.499  18.833  0.00  0.00    +0.000 A 
ENDROOT
BRANCH   1  19
ATOM      8  C   UNL     1       1.667   5.699  21.246  0.00  0.00    +0.000 C 
ATOM      9  C   UNL     1       1.632   6.957  20.403  0.00  0.00    +0.000 A 
ATOM     10  N   UNL     1       1.075   8.000  20.935  0.00  0.00    +0.000 NA
ATOM     11  C   UNL     1       1.041   9.192  20.207  0.00  0.00    +0.000 A 
ATOM     12  C   UNL     1       0.401  10.305  20.762  0.00  0.00    +0.000 A 
ATOM     13  C   UNL     1       0.305  11.501  20.046  0.00  0.00    +0.000 A 
ATOM     14  C   UNL     1       0.855  11.597  18.769  0.00  0.00    +0.000 A 
ATOM     15  C   UNL     1       1.519  10.502  18.216  0.00  0.00    +0.000 A 
ATOM     16  C   UNL     1       1.613   9.309  18.945  0.00  0.00    +0.000 A 
ATOM     17  C   UNL     1       2.307   8.132  18.393  0.00  0.00    +0.000 A 
ATOM     18  O   UNL     1       2.891   8.243  17.316  0.00  0.00    +0.000 OA
ATOM     19  N   UNL     1       2.226   6.959  19.147  0.00  0.00    +0.000 N 
ENDBRANCH   1  19
BRANCH   6  20
ATOM     20  N   UNL     1       6.128   4.055  18.563  0.00  0.00    +0.000 N 
ATOM     21  H   UNL     1       6.452   4.282  19.504  0.00  0.00    +0.000 HD
BRANCH  20  22
ATOM     22  S   UNL     1       7.290   4.539  17.416  0.00  0.00    +0.000 S 
ATOM     23  O   UNL     1       8.539   3.925  17.805  0.00  0.00    +0.000 OA
ATOM     24  O   UNL     1       6.740   4.310  16.095  0.00  0.00    +0.000 OA
BRANCH  22  25
ATOM     25  C   UNL     1       7.422   6.286  17.646  0.00  0.00    +0.000 A 
ATOM     26  C   UNL     1       8.355   6.805  18.553  0.00  0.00    +0.000 A 
ATOM     27  C   UNL     1       8.478   8.189  18.702  0.00  0.00    +0.000 A 
ATOM     28  C   UNL     1       7.653   9.047  17.976  0.00  0.00    +0.000 A 
ATOM     29  C   UNL     1       6.699   8.524  17.101  0.00  0.00    +0.000 A 
ATOM     30  C   UNL     1       6.588   7.144  16.938  0.00  0.00    +0.000 A 
ATOM     31  F   UNL     1       5.693   6.683  16.055  0.00  0.00    +0.000 F 
ENDBRANCH  22  25
ENDBRANCH  20  22
ENDBRANCH   6  20
TORSDOF 4
ENDMDL
MODEL 5
REMARK VINA RESULT:      -8.0      2.240      3.215
REMARK  Name = 
REMARK  5 active torsions:
REMARK  status: ('A' for Active; 'I' for Inactive)
REMARK    1  A    between atoms: C_1  and  C_2
REMARK    2  A    between atoms: N_12  and  C_13
REMARK    3  A    between atoms: C_18  and  N_19
REMARK    4  A    between atoms: N_19  and  S_20
REMARK    5  A    between atoms: S_20  and  C_23
REMARK                            x       y       z     vdW  Elec       q    Type
REMARK                         _______ _______ _______ _____ _____    ______ ____
ROOT
ATOM      1  C   UNL     1       2.731   5.809  18.573  0.00  0.00    +0.000 A 
ATOM      2  C   UNL     1       1.899   4.850  17.974  0.00  0.00    +0.000 A 
ATOM      3  C   UNL     1       2.447   3.698  17.408  0.00  0.00    +0.000 A 
ATOM      4  C   UNL     1       3.823   3.501  17.453  0.00  0.00    +0.000 A 
ATOM      5  F   UNL     1       4.340   2.396  16.897  0.00  0.00    +0.000 F 
ATOM      6  C   UNL     1       4.662   4.430  18.074  0.00  0.00    +0.000 A 
ATOM      7  C   UNL     1       4.113   5.582  18.643  0.00  0.00    +0.000 A 
ENDROOT
BRANCH   1  19
ATOM      8  C   UNL     1       1.726   5.738  21.282  0.00  0.00    +0.000 C 
ATOM      9  C   UNL     1       1.637   6.989  20.433  0.00  0.00    +0.000 A 
ATOM     10  N   UNL     1       1.106   8.033  20.988  0.00  0.00    +0.000 NA
ATOM     11  C   UNL     1       1.025   9.220  20.255  0.00  0.00    +0.000 A 
ATOM     12  C   UNL     1       0.412  10.334  20.836  0.00  0.00    +0.000 A 
ATOM     13  C   UNL     1       0.270  11.524  20.118  0.00  0.00    +0.000 A 
ATOM     14  C   UNL     1       0.746  11.612  18.811  0.00  0.00    +0.000 A 
ATOM     15  C   UNL     1       1.383  10.516  18.230  0.00  0.00    +0.000 A 
ATOM     16  C   UNL     1       1.524   9.329  18.961  0.00  0.00    +0.000 A 
ATOM     17  C   UNL     1       2.191   8.151  18.379  0.00  0.00    +0.000 A 
ATOM     18  O   UNL     1       2.713   8.256  17.270  0.00  0.00    +0.000 OA
ATOM     19  N   UNL     1       2.159   6.983  19.146  0.00  0.00    +0.000 N 
ENDBRANCH   1  19
BRANCH   6  20
ATOM     20  N   UNL     1       6.072   4.197  18.183  0.00  0.00    +0.000 N 
ATOM     21  H   UNL     1       6.483   4.374  19.100  0.00  0.00    +0.000 HD
BRANCH  20  22
ATOM     22  S   UNL     1       7.077   4.832  16.964  0.00  0.00    +0.000 S 
ATOM     23  O   UNL     1       8.230   3.965  16.883  0.00  0.00    +0.000 OA
ATOM     24  O   UNL     1       6.261   5.080  15.792  0.00  0.00    +0.000 OA
BRANCH  22  25
ATOM     25  C   UNL     1       7.591   6.399  17.600  0.00  0.00    +0.000 A 
ATOM     26  C   UNL     1       7.364   7.565  16.857  0.00  0.00    +0.000 A 
ATOM     27  C   UNL     1       7.741   8.803  17.383  0.00  0.00    +0.000 A 
ATOM     28  C   UNL     1       8.368   8.874  18.627  0.00  0.00    +0.000 A 
ATOM     29  C   UNL     1       8.625   7.706  19.346  0.00  0.00    +0.000 A 
ATOM     30  C   UNL     1       8.233   6.471  18.830  0.00  0.00    +0.000 A 
ATOM     31  F   UNL     1       8.455   5.378  19.572  0.00  0.00    +0.000 F 
ENDBRANCH  22  25
ENDBRANCH  20  22
ENDBRANCH   6  20
TORSDOF 4
ENDMDL
MODEL 6
REMARK VINA RESULT:      -7.9      2.034      2.726
REMARK  Name = 
REMARK  5 active torsions:
REMARK  status: ('A' for Active; 'I' for Inactive)
REMARK    1  A    between atoms: C_1  and  C_2
REMARK    2  A    between atoms: N_12  and  C_13
REMARK    3  A    between atoms: C_18  and  N_19
REMARK    4  A    between atoms: N_19  and  S_20
REMARK    5  A    between atoms: S_20  and  C_23
REMARK                            x       y       z     vdW  Elec       q    Type
REMARK                         _______ _______ _______ _____ _____    ______ ____
ROOT
ATOM      1  C   UNL     1       2.735   5.740  18.377  0.00  0.00    +0.000 A 
ATOM      2  C   UNL     1       1.948   4.592  18.200  0.00  0.00    +0.000 A 
ATOM      3  C   UNL     1       2.469   3.478  17.539  0.00  0.00    +0.000 A 
ATOM      4  C   UNL     1       3.777   3.511  17.069  0.00  0.00    +0.000 A 
ATOM      5  F   UNL     1       4.264   2.440  16.426  0.00  0.00    +0.000 F 
ATOM      6  C   UNL     1       4.584   4.634  17.266  0.00  0.00    +0.000 A 
ATOM      7  C   UNL     1       4.064   5.748  17.929  0.00  0.00    +0.000 A 
ENDROOT
BRANCH   1  19
ATOM      8  C   UNL     1       1.960   5.518  21.153  0.00  0.00    +0.000 C 
ATOM      9  C   UNL     1       1.778   6.806  20.377  0.00  0.00    +0.000 A 
ATOM     10  N   UNL     1       1.275   7.810  21.024  0.00  0.00    +0.000 NA
ATOM     11  C   UNL     1       1.112   9.028  20.359  0.00  0.00    +0.000 A 
ATOM     12  C   UNL     1       0.529  10.099  21.043  0.00  0.00    +0.000 A 
ATOM     13  C   UNL     1       0.306  11.319  20.398  0.00  0.00    +0.000 A 
ATOM     14  C   UNL     1       0.670  11.480  19.062  0.00  0.00    +0.000 A 
ATOM     15  C   UNL     1       1.277  10.427  18.378  0.00  0.00    +0.000 A 
ATOM     16  C   UNL     1       1.499   9.210  19.036  0.00  0.00    +0.000 A 
ATOM     17  C   UNL     1       2.138   8.077  18.344  0.00  0.00    +0.000 A 
ATOM     18  O   UNL     1       2.564   8.246  17.202  0.00  0.00    +0.000 OA
ATOM     19  N   UNL     1       2.191   6.873  19.052  0.00  0.00    +0.000 N 
ENDBRANCH   1  19
BRANCH   6  20
ATOM     20  N   UNL     1       5.953   4.645  16.843  0.00  0.00    +0.000 N 
ATOM     21  H   UNL     1       6.650   4.630  17.589  0.00  0.00    +0.000 HD
BRANCH  20  22
ATOM     22  S   UNL     1       6.407   5.771  15.649  0.00  0.00    +0.000 S 
ATOM     23  O   UNL     1       5.338   6.740  15.565  0.00  0.00    +0.000 OA
ATOM     24  O   UNL     1       7.764   6.198  15.926  0.00  0.00    +0.000 OA
BRANCH  22  25
ATOM     25  C   UNL     1       6.436   4.829  14.155  0.00  0.00    +0.000 A 
ATOM     26  C   UNL     1       5.402   3.925  13.876  0.00  0.00    +0.000 A 
ATOM     27  C   UNL     1       5.414   3.211  12.676  0.00  0.00    +0.000 A 
ATOM     28  C   UNL     1       6.467   3.373  11.774  0.00  0.00    +0.000 A 
ATOM     29  C   UNL     1       7.512   4.248  12.074  0.00  0.00    +0.000 A 
ATOM     30  C   UNL     1       7.492   4.975  13.264  0.00  0.00    +0.000 A 
ATOM     31  F   UNL     1       8.490   5.838  13.493  0.00  0.00    +0.000 F 
ENDBRANCH  22  25
ENDBRANCH  20  22
ENDBRANCH   6  20
TORSDOF 4
ENDMDL
MODEL 7
REMARK VINA RESULT:      -7.9      1.885      2.527
REMARK  Name = 
REMARK  5 active torsions:
REMARK  status: ('A' for Active; 'I' for Inactive)
REMARK    1  A    between atoms: C_1  and  C_2
REMARK    2  A    between atoms: N_12  and  C_13
REMARK    3  A    between atoms: C_18  and  N_19
REMARK    4  A    between atoms: N_19  and  S_20
REMARK    5  A    between atoms: S_20  and  C_23
REMARK                            x       y       z     vdW  Elec       q    Type
REMARK                         _______ _______ _______ _____ _____    ______ ____
ROOT
ATOM      1  C   UNL     1       2.707   5.819  18.932  0.00  0.00    +0.000 A 
ATOM      2  C   UNL     1       1.868   4.752  18.579  0.00  0.00    +0.000 A 
ATOM      3  C   UNL     1       2.413   3.536  18.164  0.00  0.00    +0.000 A 
ATOM      4  C   UNL     1       3.794   3.386  18.115  0.00  0.00    +0.000 A 
ATOM      5  F   UNL     1       4.308   2.218  17.705  0.00  0.00    +0.000 F 
ATOM      6  C   UNL     1       4.644   4.428  18.494  0.00  0.00    +0.000 A 
ATOM      7  C   UNL     1       4.099   5.644  18.912  0.00  0.00    +0.000 A 
ENDROOT
BRANCH   1  19
ATOM      8  C   UNL     1       2.834   8.119  17.186  0.00  0.00    +0.000 C 
ATOM      9  C   UNL     1       2.200   8.197  18.560  0.00  0.00    +0.000 A 
ATOM     10  N   UNL     1       1.700   9.342  18.907  0.00  0.00    +0.000 NA
ATOM     11  C   UNL     1       1.081   9.457  20.154  0.00  0.00    +0.000 A 
ATOM     12  C   UNL     1       0.580  10.702  20.548  0.00  0.00    +0.000 A 
ATOM     13  C   UNL     1      -0.004  10.869  21.806  0.00  0.00    +0.000 A 
ATOM     14  C   UNL     1      -0.097   9.788  22.682  0.00  0.00    +0.000 A 
ATOM     15  C   UNL     1       0.375   8.536  22.290  0.00  0.00    +0.000 A 
ATOM     16  C   UNL     1       0.954   8.380  21.024  0.00  0.00    +0.000 A 
ATOM     17  C   UNL     1       1.463   7.071  20.576  0.00  0.00    +0.000 A 
ATOM     18  O   UNL     1       1.283   6.090  21.296  0.00  0.00    +0.000 OA
ATOM     19  N   UNL     1       2.138   7.058  19.353  0.00  0.00    +0.000 N 
ENDBRANCH   1  19
BRANCH   6  20
ATOM     20  N   UNL     1       6.067   4.255  18.511  0.00  0.00    +0.000 N 
ATOM     21  H   UNL     1       6.536   4.508  19.381  0.00  0.00    +0.000 HD
BRANCH  20  22
ATOM     22  S   UNL     1       6.953   4.842  17.181  0.00  0.00    +0.000 S 
ATOM     23  O   UNL     1       8.101   3.977  17.032  0.00  0.00    +0.000 OA
ATOM     24  O   UNL     1       6.033   5.036  16.078  0.00  0.00    +0.000 OA
BRANCH  22  25
ATOM     25  C   UNL     1       7.509   6.436  17.702  0.00  0.00    +0.000 A 
ATOM     26  C   UNL     1       7.214   7.568  16.931  0.00  0.00    +0.000 A 
ATOM     27  C   UNL     1       7.627   8.829  17.369  0.00  0.00    +0.000 A 
ATOM     28  C   UNL     1       8.357   8.955  18.551  0.00  0.00    +0.000 A 
ATOM     29  C   UNL     1       8.680   7.820  19.296  0.00  0.00    +0.000 A 
ATOM     30  C   UNL     1       8.253   6.563  18.869  0.00  0.00    +0.000 A 
ATOM     31  F   UNL     1       8.544   5.504  19.636  0.00  0.00    +0.000 F 
ENDBRANCH  22  25
ENDBRANCH  20  22
ENDBRANCH   6  20
TORSDOF 4
ENDMDL
MODEL 8
REMARK VINA RESULT:      -7.9      5.825     10.323
REMARK  Name = 
REMARK  5 active torsions:
REMARK  status: ('A' for Active; 'I' for Inactive)
REMARK    1  A    between atoms: C_1  and  C_2
REMARK    2  A    between atoms: N_12  and  C_13
REMARK    3  A    between atoms: C_18  and  N_19
REMARK    4  A    between atoms: N_19  and  S_20
REMARK    5  A    between atoms: S_20  and  C_23
REMARK                            x       y       z     vdW  Elec       q    Type
REMARK                         _______ _______ _______ _____ _____    ______ ____
ROOT
ATOM      1  C   UNL     1       0.662  10.891  19.570  0.00  0.00    +0.000 A 
ATOM      2  C   UNL     1       1.537  11.977  19.725  0.00  0.00    +0.000 A 
ATOM      3  C   UNL     1       1.054  13.285  19.653  0.00  0.00    +0.000 A 
ATOM      4  C   UNL     1      -0.302  13.503  19.438  0.00  0.00    +0.000 A 
ATOM      5  F   UNL     1      -0.754  14.763  19.359  0.00  0.00    +0.000 F 
ATOM      6  C   UNL     1      -1.192  12.432  19.314  0.00  0.00    +0.000 A 
ATOM      7  C   UNL     1      -0.709  11.124  19.389  0.00  0.00    +0.000 A 
ENDROOT
BRANCH   1  19
ATOM      8  C   UNL     1       0.211   9.317  21.952  0.00  0.00    +0.000 C 
ATOM      9  C   UNL     1       1.000   8.775  20.779  0.00  0.00    +0.000 A 
ATOM     10  N   UNL     1       1.448   7.564  20.887  0.00  0.00    +0.000 NA
ATOM     11  C   UNL     1       2.160   7.009  19.820  0.00  0.00    +0.000 A 
ATOM     12  C   UNL     1       2.681   5.719  19.953  0.00  0.00    +0.000 A 
ATOM     13  C   UNL     1       3.439   5.148  18.927  0.00  0.00    +0.000 A 
ATOM     14  C   UNL     1       3.678   5.863  17.754  0.00  0.00    +0.000 A 
ATOM     15  C   UNL     1       3.141   7.140  17.600  0.00  0.00    +0.000 A 
ATOM     16  C   UNL     1       2.379   7.701  18.633  0.00  0.00    +0.000 A 
ATOM     17  C   UNL     1       1.796   9.048  18.505  0.00  0.00    +0.000 A 
ATOM     18  O   UNL     1       1.907   9.639  17.432  0.00  0.00    +0.000 OA
ATOM     19  N   UNL     1       1.168   9.559  19.644  0.00  0.00    +0.000 N 
ENDBRANCH   1  19
BRANCH   6  20
ATOM     20  N   UNL     1      -2.599  12.653  19.161  0.00  0.00    +0.000 N 
ATOM     21  H   UNL     1      -2.873  13.251  18.380  0.00  0.00    +0.000 HD
BRANCH  20  22
ATOM     22  S   UNL     1      -3.494  13.065  20.549  0.00  0.00    +0.000 S 
ATOM     23  O   UNL     1      -2.849  12.413  21.667  0.00  0.00    +0.000 OA
ATOM     24  O   UNL     1      -3.688  14.501  20.550  0.00  0.00    +0.000 OA
BRANCH  22  25
ATOM     25  C   UNL     1      -5.070  12.311  20.287  0.00  0.00    +0.000 A 
ATOM     26  C   UNL     1      -5.354  11.687  19.065  0.00  0.00    +0.000 A 
ATOM     27  C   UNL     1      -6.590  11.063  18.880  0.00  0.00    +0.000 A 
ATOM     28  C   UNL     1      -7.547  11.088  19.894  0.00  0.00    +0.000 A 
ATOM     29  C   UNL     1      -7.273  11.743  21.096  0.00  0.00    +0.000 A 
ATOM     30  C   UNL     1      -6.033  12.351  21.289  0.00  0.00    +0.000 A 
ATOM     31  F   UNL     1      -5.792  12.929  22.473  0.00  0.00    +0.000 F 
ENDBRANCH  22  25
ENDBRANCH  20  22
ENDBRANCH   6  20
TORSDOF 4
ENDMDL
MODEL 9
REMARK VINA RESULT:      -7.8      3.159      7.030
REMARK  Name = 
REMARK  5 active torsions:
REMARK  status: ('A' for Active; 'I' for Inactive)
REMARK    1  A    between atoms: C_1  and  C_2
REMARK    2  A    between atoms: N_12  and  C_13
REMARK    3  A    between atoms: C_18  and  N_19
REMARK    4  A    between atoms: N_19  and  S_20
REMARK    5  A    between atoms: S_20  and  C_23
REMARK                            x       y       z     vdW  Elec       q    Type
REMARK                         _______ _______ _______ _____ _____    ______ ____
ROOT
ATOM      1  C   UNL     1       4.153   6.292  17.738  0.00  0.00    +0.000 A 
ATOM      2  C   UNL     1       3.421   7.480  17.586  0.00  0.00    +0.000 A 
ATOM      3  C   UNL     1       2.504   7.871  18.563  0.00  0.00    +0.000 A 
ATOM      4  C   UNL     1       2.330   7.081  19.694  0.00  0.00    +0.000 A 
ATOM      5  F   UNL     1       1.439   7.461  20.622  0.00  0.00    +0.000 F 
ATOM      6  C   UNL     1       3.075   5.913  19.877  0.00  0.00    +0.000 A 
ATOM      7  C   UNL     1       3.994   5.523  18.901  0.00  0.00    +0.000 A 
ENDROOT
BRANCH   1  19
ATOM      8  C   UNL     1       6.822   7.401  17.751  0.00  0.00    +0.000 C 
ATOM      9  C   UNL     1       6.369   6.429  16.681  0.00  0.00    +0.000 A 
ATOM     10  N   UNL     1       7.244   6.104  15.781  0.00  0.00    +0.000 NA
ATOM     11  C   UNL     1       6.882   5.190  14.788  0.00  0.00    +0.000 A 
ATOM     12  C   UNL     1       7.810   4.873  13.791  0.00  0.00    +0.000 A 
ATOM     13  C   UNL     1       7.471   4.000  12.754  0.00  0.00    +0.000 A 
ATOM     14  C   UNL     1       6.198   3.431  12.708  0.00  0.00    +0.000 A 
ATOM     15  C   UNL     1       5.274   3.720  13.711  0.00  0.00    +0.000 A 
ATOM     16  C   UNL     1       5.627   4.593  14.748  0.00  0.00    +0.000 A 
ATOM     17  C   UNL     1       4.675   4.921  15.824  0.00  0.00    +0.000 A 
ATOM     18  O   UNL     1       3.593   4.338  15.853  0.00  0.00    +0.000 OA
ATOM     19  N   UNL     1       5.085   5.902  16.732  0.00  0.00    +0.000 N 
ENDBRANCH   1  19
BRANCH   6  20
ATOM     20  N   UNL     1       2.948   5.133  21.073  0.00  0.00    +0.000 N 
ATOM     21  H   UNL     1       3.822   4.896  21.544  0.00  0.00    +0.000 HD
BRANCH  20  22
ATOM     22  S   UNL     1       1.923   3.774  21.030  0.00  0.00    +0.000 S 
ATOM     23  O   UNL     1       2.090   3.088  22.291  0.00  0.00    +0.000 OA
ATOM     24  O   UNL     1       0.611   4.215  20.602  0.00  0.00    +0.000 OA
BRANCH  22  25
ATOM     25  C   UNL     1       2.596   2.767  19.743  0.00  0.00    +0.000 A 
ATOM     26  C   UNL     1       1.905   2.623  18.533  0.00  0.00    +0.000 A 
ATOM     27  C   UNL     1       2.461   1.853  17.508  0.00  0.00    +0.000 A 
ATOM     28  C   UNL     1       3.682   1.206  17.702  0.00  0.00    +0.000 A 
ATOM     29  C   UNL     1       4.348   1.323  18.923  0.00  0.00    +0.000 A 
ATOM     30  C   UNL     1       3.802   2.105  19.940  0.00  0.00    +0.000 A 
ATOM     31  F   UNL     1       4.494   2.230  21.079  0.00  0.00    +0.000 F 
ENDBRANCH  22  25
ENDBRANCH  20  22
ENDBRANCH   6  20
TORSDOF 4
ENDMDL
