MODEL 1
REMARK VINA RESULT:      -9.9      0.000      0.000
REMARK  Name = 
REMARK  5 active torsions:
REMARK  status: ('A' for Active; 'I' for Inactive)
REMARK    1  A    between atoms: C_1  and  O_2
REMARK    2  A    between atoms: O_2  and  C_3
REMARK    3  A    between atoms: C_6  and  C_7
REMARK    4  A    between atoms: N_12  and  C_13
REMARK    5  A    between atoms: C_23  and  C_24
REMARK                            x       y       z     vdW  Elec       q    Type
REMARK                         _______ _______ _______ _____ _____    ______ ____
ROOT
ATOM      1  C   UNL     1       6.196   6.633  17.203  0.00  0.00    +0.000 A 
ATOM      2  C   UNL     1       6.315   5.954  15.997  0.00  0.00    +0.000 A 
ATOM      3  C   UNL     1       5.378   4.854  15.662  0.00  0.00    +0.000 A 
ATOM      4  C   UNL     1       4.689   4.040  16.596  0.00  0.00    +0.000 A 
ATOM      5  C   UNL     1       4.853   4.949  17.660  0.00  0.00    +0.000 A 
ATOM      6  C   UNL     1       5.410   6.146  18.091  0.00  0.00    +0.000 A 
ATOM      7  N   UNL     1       4.404   4.681  18.852  0.00  0.00    +0.000 N 
ATOM      8  C   UNL     1       4.136   3.444  19.248  0.00  0.00    +0.000 C 
ATOM      9  O   UNL     1       3.643   3.961  20.283  0.00  0.00    +0.000 OA
ATOM     10  C   UNL     1       3.969   3.192  17.623  0.00  0.00    +0.000 C 
ATOM     11  C   UNL     1       3.027   2.323  17.264  0.00  0.00    +0.000 C 
ATOM     12  H   UNL     1       3.495   5.085  18.862  0.00  0.00    +0.000 HD
ENDROOT
BRANCH   1  18
ATOM     13  C   UNL     1       8.734   9.691  18.399  0.00  0.00    +0.000 C 
ATOM     14  O   UNL     1       7.766   9.988  17.679  0.00  0.00    +0.000 OA
ATOM     15  N   UNL     1       8.898   8.408  18.903  0.00  0.00    +0.000 N 
ATOM     16  C   UNL     1       8.092   7.343  18.590  0.00  0.00    +0.000 C 
ATOM     17  O   UNL     1       8.316   6.235  19.083  0.00  0.00    +0.000 OA
ATOM     18  N   UNL     1       7.093   7.602  17.717  0.00  0.00    +0.000 N 
ATOM     19  H   UNL     1       9.651   8.149  19.525  0.00  0.00    +0.000 HD
ATOM     20  H   UNL     1       6.925   8.585  17.422  0.00  0.00    +0.000 HD
BRANCH  13  24
ATOM     21  C   UNL     1      11.355  12.986  19.313  0.00  0.00    +0.000 A 
ATOM     22  C   UNL     1      10.639  12.328  20.307  0.00  0.00    +0.000 A 
ATOM     23  C   UNL     1       9.904  11.173  19.999  0.00  0.00    +0.000 A 
ATOM     24  C   UNL     1       9.738  10.751  18.667  0.00  0.00    +0.000 A 
ATOM     25  C   UNL     1      10.417  11.444  17.671  0.00  0.00    +0.000 A 
ATOM     26  C   UNL     1      11.224  12.542  17.999  0.00  0.00    +0.000 A 
BRANCH  21  28
ATOM     27  C   UNL     1      11.486  15.189  20.123  0.00  0.00    +0.000 C 
ATOM     28  O   UNL     1      12.178  14.006  19.708  0.00  0.00    +0.000 OA
ENDBRANCH  21  28
ENDBRANCH  13  24
ENDBRANCH   1  18
BRANCH  11  29
ATOM     29  C   UNL     1       1.900   2.373  18.070  0.00  0.00    +0.000 A 
ATOM     30  C   UNL     1       1.126   3.441  18.261  0.00  0.00    +0.000 A 
ATOM     31  C   UNL     1       0.704   3.387  19.579  0.00  0.00    +0.000 A 
ATOM     32  C   UNL     1       1.221   2.244  20.145  0.00  0.00    +0.000 A 
ATOM     33  N   UNL     1       1.843   1.522  19.163  0.00  0.00    +0.000 N 
ATOM     34  H   UNL     1       2.580   0.869  19.372  0.00  0.00    +0.000 HD
ENDBRANCH  11  29
TORSDOF 4
ENDMDL
MODEL 2
REMARK VINA RESULT:      -9.5      7.456     10.169
REMARK  Name = 
REMARK  5 active torsions:
REMARK  status: ('A' for Active; 'I' for Inactive)
REMARK    1  A    between atoms: C_1  and  O_2
REMARK    2  A    between atoms: O_2  and  C_3
REMARK    3  A    between atoms: C_6  and  C_7
REMARK    4  A    between atoms: N_12  and  C_13
REMARK    5  A    between atoms: C_23  and  C_24
REMARK                            x       y       z     vdW  Elec       q    Type
REMARK                         _______ _______ _______ _____ _____    ______ ____
ROOT
ATOM      1  C   UNL     1       0.518   8.917  20.942  0.00  0.00    +0.000 A 
ATOM      2  C   UNL     1       0.752   8.969  22.310  0.00  0.00    +0.000 A 
ATOM      3  C   UNL     1      -0.072   9.846  23.178  0.00  0.00    +0.000 A 
ATOM      4  C   UNL     1      -0.736  11.030  22.767  0.00  0.00    +0.000 A 
ATOM      5  C   UNL     1      -0.700  10.694  21.399  0.00  0.00    +0.000 A 
ATOM      6  C   UNL     1      -0.267   9.795  20.433  0.00  0.00    +0.000 A 
ATOM      7  N   UNL     1      -1.182  11.496  20.494  0.00  0.00    +0.000 N 
ATOM      8  C   UNL     1      -1.365  12.790  20.718  0.00  0.00    +0.000 C 
ATOM      9  O   UNL     1      -1.949  12.825  19.605  0.00  0.00    +0.000 OA
ATOM     10  C   UNL     1      -1.431  12.288  22.291  0.00  0.00    +0.000 C 
ATOM     11  C   UNL     1      -2.278  12.948  23.077  0.00  0.00    +0.000 C 
ATOM     12  H   UNL     1      -2.121  11.189  20.379  0.00  0.00    +0.000 HD
ENDROOT
BRANCH   1  18
ATOM     13  C   UNL     1       2.892   6.665  18.390  0.00  0.00    +0.000 C 
ATOM     14  O   UNL     1       2.324   6.076  19.327  0.00  0.00    +0.000 OA
ATOM     15  N   UNL     1       2.644   8.003  18.116  0.00  0.00    +0.000 N 
ATOM     16  C   UNL     1       1.850   8.817  18.883  0.00  0.00    +0.000 C 
ATOM     17  O   UNL     1       1.689   9.997  18.565  0.00  0.00    +0.000 OA
ATOM     18  N   UNL     1       1.305   8.241  19.978  0.00  0.00    +0.000 N 
ATOM     19  H   UNL     1       3.058   8.494  17.336  0.00  0.00    +0.000 HD
ATOM     20  H   UNL     1       1.422   7.217  20.118  0.00  0.00    +0.000 HD
BRANCH  13  24
ATOM     21  C   UNL     1       5.578   4.546  15.772  0.00  0.00    +0.000 A 
ATOM     22  C   UNL     1       5.456   5.930  15.723  0.00  0.00    +0.000 A 
ATOM     23  C   UNL     1       4.680   6.603  16.680  0.00  0.00    +0.000 A 
ATOM     24  C   UNL     1       3.883   5.894  17.598  0.00  0.00    +0.000 A 
ATOM     25  C   UNL     1       3.971   4.506  17.607  0.00  0.00    +0.000 A 
ATOM     26  C   UNL     1       4.821   3.847  16.709  0.00  0.00    +0.000 A 
BRANCH  21  28
ATOM     27  C   UNL     1       6.025   3.897  13.557  0.00  0.00    +0.000 C 
ATOM     28  O   UNL     1       6.475   3.968  14.914  0.00  0.00    +0.000 OA
ENDBRANCH  21  28
ENDBRANCH  13  24
ENDBRANCH   1  18
BRANCH  11  29
ATOM     29  C   UNL     1      -3.443  13.328  22.428  0.00  0.00    +0.000 A 
ATOM     30  C   UNL     1      -3.940  14.563  22.379  0.00  0.00    +0.000 A 
ATOM     31  C   UNL     1      -5.319  14.431  22.410  0.00  0.00    +0.000 A 
ATOM     32  C   UNL     1      -5.617  13.088  22.442  0.00  0.00    +0.000 A 
ATOM     33  N   UNL     1      -4.451  12.386  22.296  0.00  0.00    +0.000 N 
ATOM     34  H   UNL     1      -4.353  11.445  22.639  0.00  0.00    +0.000 HD
ENDBRANCH  11  29
TORSDOF 4
ENDMDL
MODEL 3
REMARK VINA RESULT:      -9.4      7.138      9.879
REMARK  Name = 
REMARK  5 active torsions:
REMARK  status: ('A' for Active; 'I' for Inactive)
REMARK    1  A    between atoms: C_1  and  O_2
REMARK    2  A    between atoms: O_2  and  C_3
REMARK    3  A    between atoms: C_6  and  C_7
REMARK    4  A    between atoms: N_12  and  C_13
REMARK    5  A    between atoms: C_23  and  C_24
REMARK                            x       y       z     vdW  Elec       q    Type
REMARK                         _______ _______ _______ _____ _____    ______ ____
ROOT
ATOM      1  C   UNL     1       0.855   8.693  20.914  0.00  0.00    +0.000 A 
ATOM      2  C   UNL     1       0.976   8.897  22.284  0.00  0.00    +0.000 A 
ATOM      3  C   UNL     1       0.074   9.845  22.981  0.00  0.00    +0.000 A 
ATOM      4  C   UNL     1      -0.567  10.964  22.392  0.00  0.00    +0.000 A 
ATOM      5  C   UNL     1      -0.416  10.483  21.076  0.00  0.00    +0.000 A 
ATOM      6  C   UNL     1       0.105   9.494  20.252  0.00  0.00    +0.000 A 
ATOM      7  N   UNL     1      -0.832  11.173  20.054  0.00  0.00    +0.000 N 
ATOM      8  C   UNL     1      -1.047  12.481  20.120  0.00  0.00    +0.000 C 
ATOM      9  O   UNL     1      -1.538  12.384  18.967  0.00  0.00    +0.000 OA
ATOM     10  C   UNL     1      -1.235  12.149  21.728  0.00  0.00    +0.000 C 
ATOM     11  C   UNL     1      -2.152  12.873  22.367  0.00  0.00    +0.000 C 
ATOM     12  H   UNL     1      -1.755  10.837  19.898  0.00  0.00    +0.000 HD
ENDROOT
BRANCH   1  18
ATOM     13  C   UNL     1       3.355   6.736  18.242  0.00  0.00    +0.000 C 
ATOM     14  O   UNL     1       3.219   7.966  18.117  0.00  0.00    +0.000 OA
ATOM     15  N   UNL     1       2.802   6.049  19.313  0.00  0.00    +0.000 N 
ATOM     16  C   UNL     1       1.990   6.617  20.263  0.00  0.00    +0.000 C 
ATOM     17  O   UNL     1       1.539   5.927  21.180  0.00  0.00    +0.000 OA
ATOM     18  N   UNL     1       1.726   7.932  20.096  0.00  0.00    +0.000 N 
ATOM     19  H   UNL     1       2.932   5.058  19.463  0.00  0.00    +0.000 HD
ATOM     20  H   UNL     1       2.222   8.454  19.345  0.00  0.00    +0.000 HD
BRANCH  13  24
ATOM     21  C   UNL     1       5.737   4.507  15.428  0.00  0.00    +0.000 A 
ATOM     22  C   UNL     1       5.002   3.872  16.422  0.00  0.00    +0.000 A 
ATOM     23  C   UNL     1       4.127   4.612  17.233  0.00  0.00    +0.000 A 
ATOM     24  C   UNL     1       4.097   6.018  17.175  0.00  0.00    +0.000 A 
ATOM     25  C   UNL     1       4.874   6.651  16.211  0.00  0.00    +0.000 A 
ATOM     26  C   UNL     1       5.674   5.896  15.343  0.00  0.00    +0.000 A 
BRANCH  21  28
ATOM     27  C   UNL     1       5.978   3.751  13.215  0.00  0.00    +0.000 C 
ATOM     28  O   UNL     1       6.444   3.710  14.568  0.00  0.00    +0.000 OA
ENDBRANCH  21  28
ENDBRANCH  13  24
ENDBRANCH   1  18
BRANCH  11  29
ATOM     29  C   UNL     1      -3.264  13.158  21.589  0.00  0.00    +0.000 A 
ATOM     30  C   UNL     1      -3.668  14.373  21.224  0.00  0.00    +0.000 A 
ATOM     31  C   UNL     1      -5.053  14.338  21.217  0.00  0.00    +0.000 A 
ATOM     32  C   UNL     1      -5.448  13.063  21.553  0.00  0.00    +0.000 A 
ATOM     33  N   UNL     1      -4.332  12.276  21.635  0.00  0.00    +0.000 N 
ATOM     34  H   UNL     1      -4.314  11.441  22.196  0.00  0.00    +0.000 HD
ENDBRANCH  11  29
TORSDOF 4
ENDMDL
MODEL 4
REMARK VINA RESULT:      -9.3      7.530     10.072
REMARK  Name = 
REMARK  5 active torsions:
REMARK  status: ('A' for Active; 'I' for Inactive)
REMARK    1  A    between atoms: C_1  and  O_2
REMARK    2  A    between atoms: O_2  and  C_3
REMARK    3  A    between atoms: C_6  and  C_7
REMARK    4  A    between atoms: N_12  and  C_13
REMARK    5  A    between atoms: C_23  and  C_24
REMARK                            x       y       z     vdW  Elec       q    Type
REMARK                         _______ _______ _______ _____ _____    ______ ____
ROOT
ATOM      1  C   UNL     1       0.444   9.930  20.133  0.00  0.00    +0.000 A 
ATOM      2  C   UNL     1       0.744  11.080  20.853  0.00  0.00    +0.000 A 
ATOM      3  C   UNL     1      -0.320  12.066  21.166  0.00  0.00    +0.000 A 
ATOM      4  C   UNL     1      -1.502  12.276  20.412  0.00  0.00    +0.000 A 
ATOM      5  C   UNL     1      -1.431  11.026  19.765  0.00  0.00    +0.000 A 
ATOM      6  C   UNL     1      -0.706   9.857  19.571  0.00  0.00    +0.000 A 
ATOM      7  N   UNL     1      -2.315  10.673  18.878  0.00  0.00    +0.000 N 
ATOM      8  C   UNL     1      -3.074  11.556  18.243  0.00  0.00    +0.000 C 
ATOM      9  O   UNL     1      -3.699  10.571  17.773  0.00  0.00    +0.000 OA
ATOM     10  C   UNL     1      -2.753  12.471  19.582  0.00  0.00    +0.000 C 
ATOM     11  C   UNL     1      -3.741  13.261  19.996  0.00  0.00    +0.000 C 
ATOM     12  H   UNL     1      -2.998  10.179  19.405  0.00  0.00    +0.000 HD
ENDROOT
BRANCH   1  18
ATOM     13  C   UNL     1       3.075   7.267  18.344  0.00  0.00    +0.000 C 
ATOM     14  O   UNL     1       2.811   8.319  17.737  0.00  0.00    +0.000 OA
ATOM     15  N   UNL     1       2.618   7.038  19.634  0.00  0.00    +0.000 N 
ATOM     16  C   UNL     1       1.773   7.875  20.317  0.00  0.00    +0.000 C 
ATOM     17  O   UNL     1       1.414   7.590  21.461  0.00  0.00    +0.000 OA
ATOM     18  N   UNL     1       1.371   8.977  19.645  0.00  0.00    +0.000 N 
ATOM     19  H   UNL     1       2.853   6.212  20.167  0.00  0.00    +0.000 HD
ATOM     20  H   UNL     1       1.794   9.183  18.717  0.00  0.00    +0.000 HD
BRANCH  13  24
ATOM     21  C   UNL     1       5.243   4.450  15.910  0.00  0.00    +0.000 A 
ATOM     22  C   UNL     1       5.529   5.810  15.878  0.00  0.00    +0.000 A 
ATOM     23  C   UNL     1       4.904   6.683  16.782  0.00  0.00    +0.000 A 
ATOM     24  C   UNL     1       3.864   6.239  17.620  0.00  0.00    +0.000 A 
ATOM     25  C   UNL     1       3.548   4.884  17.610  0.00  0.00    +0.000 A 
ATOM     26  C   UNL     1       4.242   4.003  16.770  0.00  0.00    +0.000 A 
BRANCH  21  28
ATOM     27  C   UNL     1       5.977   3.979  13.727  0.00  0.00    +0.000 C 
ATOM     28  O   UNL     1       6.003   3.633  15.116  0.00  0.00    +0.000 OA
ENDBRANCH  21  28
ENDBRANCH  13  24
ENDBRANCH   1  18
BRANCH  11  29
ATOM     29  C   UNL     1      -4.997  12.698  19.834  0.00  0.00    +0.000 A 
ATOM     30  C   UNL     1      -5.980  13.189  19.081  0.00  0.00    +0.000 A 
ATOM     31  C   UNL     1      -7.161  12.906  19.748  0.00  0.00    +0.000 A 
ATOM     32  C   UNL     1      -6.848  12.206  20.890  0.00  0.00    +0.000 A 
ATOM     33  N   UNL     1      -5.507  11.935  20.873  0.00  0.00    +0.000 N 
ATOM     34  H   UNL     1      -4.989  11.769  21.720  0.00  0.00    +0.000 HD
ENDBRANCH  11  29
TORSDOF 4
ENDMDL
MODEL 5
REMARK VINA RESULT:      -9.2      7.750     10.265
REMARK  Name = 
REMARK  5 active torsions:
REMARK  status: ('A' for Active; 'I' for Inactive)
REMARK    1  A    between atoms: C_1  and  O_2
REMARK    2  A    between atoms: O_2  and  C_3
REMARK    3  A    between atoms: C_6  and  C_7
REMARK    4  A    between atoms: N_12  and  C_13
REMARK    5  A    between atoms: C_23  and  C_24
REMARK                            x       y       z     vdW  Elec       q    Type
REMARK                         _______ _______ _______ _____ _____    ______ ____
ROOT
ATOM      1  C   UNL     1       0.498  10.008  20.056  0.00  0.00    +0.000 A 
ATOM      2  C   UNL     1       0.985  10.929  20.976  0.00  0.00    +0.000 A 
ATOM      3  C   UNL     1       0.072  11.915  21.603  0.00  0.00    +0.000 A 
ATOM      4  C   UNL     1      -1.133  12.404  21.037  0.00  0.00    +0.000 A 
ATOM      5  C   UNL     1      -1.258  11.335  20.129  0.00  0.00    +0.000 A 
ATOM      6  C   UNL     1      -0.693  10.176  19.612  0.00  0.00    +0.000 A 
ATOM      7  N   UNL     1      -2.244  11.281  19.281  0.00  0.00    +0.000 N 
ATOM      8  C   UNL     1      -2.942  12.355  18.935  0.00  0.00    +0.000 C 
ATOM      9  O   UNL     1      -3.712  11.568  18.328  0.00  0.00    +0.000 OA
ATOM     10  C   UNL     1      -2.413  12.904  20.402  0.00  0.00    +0.000 C 
ATOM     11  C   UNL     1      -3.266  13.671  21.077  0.00  0.00    +0.000 C 
ATOM     12  H   UNL     1      -2.938  10.748  19.754  0.00  0.00    +0.000 HD
ENDROOT
BRANCH   1  18
ATOM     13  C   UNL     1       2.780   7.147  18.100  0.00  0.00    +0.000 C 
ATOM     14  O   UNL     1       2.121   6.787  19.090  0.00  0.00    +0.000 OA
ATOM     15  N   UNL     1       2.663   8.427  17.575  0.00  0.00    +0.000 N 
ATOM     16  C   UNL     1       1.909   9.428  18.134  0.00  0.00    +0.000 C 
ATOM     17  O   UNL     1       1.866  10.538  17.600  0.00  0.00    +0.000 OA
ATOM     18  N   UNL     1       1.266   9.107  19.279  0.00  0.00    +0.000 N 
ATOM     19  H   UNL     1       3.153   8.733  16.746  0.00  0.00    +0.000 HD
ATOM     20  H   UNL     1       1.287   8.120  19.608  0.00  0.00    +0.000 HD
BRANCH  13  24
ATOM     21  C   UNL     1       5.438   4.433  16.067  0.00  0.00    +0.000 A 
ATOM     22  C   UNL     1       5.564   5.811  15.934  0.00  0.00    +0.000 A 
ATOM     23  C   UNL     1       4.776   6.670  16.716  0.00  0.00    +0.000 A 
ATOM     24  C   UNL     1       3.735   6.169  17.521  0.00  0.00    +0.000 A 
ATOM     25  C   UNL     1       3.582   4.790  17.610  0.00  0.00    +0.000 A 
ATOM     26  C   UNL     1       4.435   3.937  16.897  0.00  0.00    +0.000 A 
BRANCH  21  28
ATOM     27  C   UNL     1       6.352   3.852  13.981  0.00  0.00    +0.000 C 
ATOM     28  O   UNL     1       6.345   3.655  15.399  0.00  0.00    +0.000 OA
ENDBRANCH  21  28
ENDBRANCH  13  24
ENDBRANCH   1  18
BRANCH  11  29
ATOM     29  C   UNL     1      -4.588  13.283  20.925  0.00  0.00    +0.000 A 
ATOM     30  C   UNL     1      -5.566  14.032  20.416  0.00  0.00    +0.000 A 
ATOM     31  C   UNL     1      -6.713  13.708  21.121  0.00  0.00    +0.000 A 
ATOM     32  C   UNL     1      -6.392  12.728  22.031  0.00  0.00    +0.000 A 
ATOM     33  N   UNL     1      -5.097  12.344  21.807  0.00  0.00    +0.000 N 
ATOM     34  H   UNL     1      -4.535  11.931  22.533  0.00  0.00    +0.000 HD
ENDBRANCH  11  29
TORSDOF 4
ENDMDL
MODEL 6
REMARK VINA RESULT:      -9.2      6.867      9.710
REMARK  Name = 
REMARK  5 active torsions:
REMARK  status: ('A' for Active; 'I' for Inactive)
REMARK    1  A    between atoms: C_1  and  O_2
REMARK    2  A    between atoms: O_2  and  C_3
REMARK    3  A    between atoms: C_6  and  C_7
REMARK    4  A    between atoms: N_12  and  C_13
REMARK    5  A    between atoms: C_23  and  C_24
REMARK                            x       y       z     vdW  Elec       q    Type
REMARK                         _______ _______ _______ _____ _____    ______ ____
ROOT
ATOM      1  C   UNL     1       1.170   8.524  20.573  0.00  0.00    +0.000 A 
ATOM      2  C   UNL     1       1.120   8.643  21.956  0.00  0.00    +0.000 A 
ATOM      3  C   UNL     1       0.232   9.648  22.589  0.00  0.00    +0.000 A 
ATOM      4  C   UNL     1      -0.202  10.860  21.995  0.00  0.00    +0.000 A 
ATOM      5  C   UNL     1       0.080  10.434  20.682  0.00  0.00    +0.000 A 
ATOM      6  C   UNL     1       0.606   9.437  19.871  0.00  0.00    +0.000 A 
ATOM      7  N   UNL     1      -0.116  11.218  19.662  0.00  0.00    +0.000 N 
ATOM      8  C   UNL     1      -0.202  12.536  19.785  0.00  0.00    +0.000 C 
ATOM      9  O   UNL     1      -0.535  12.553  18.572  0.00  0.00    +0.000 OA
ATOM     10  C   UNL     1      -0.646  12.145  21.328  0.00  0.00    +0.000 C 
ATOM     11  C   UNL     1      -1.562  12.933  21.886  0.00  0.00    +0.000 C 
ATOM     12  H   UNL     1      -1.038  10.995  19.362  0.00  0.00    +0.000 HD
ENDROOT
BRANCH   1  18
ATOM     13  C   UNL     1       3.779   6.428  18.118  0.00  0.00    +0.000 C 
ATOM     14  O   UNL     1       3.731   7.664  17.994  0.00  0.00    +0.000 OA
ATOM     15  N   UNL     1       3.088   5.772  19.127  0.00  0.00    +0.000 N 
ATOM     16  C   UNL     1       2.230   6.385  20.005  0.00  0.00    +0.000 C 
ATOM     17  O   UNL     1       1.655   5.720  20.869  0.00  0.00    +0.000 OA
ATOM     18  N   UNL     1       2.064   7.715  19.829  0.00  0.00    +0.000 N 
ATOM     19  H   UNL     1       3.143   4.774  19.278  0.00  0.00    +0.000 HD
ATOM     20  H   UNL     1       2.658   8.208  19.132  0.00  0.00    +0.000 HD
BRANCH  13  24
ATOM     21  C   UNL     1       5.798   4.326  14.946  0.00  0.00    +0.000 A 
ATOM     22  C   UNL     1       5.595   5.700  14.894  0.00  0.00    +0.000 A 
ATOM     23  C   UNL     1       5.061   6.376  16.002  0.00  0.00    +0.000 A 
ATOM     24  C   UNL     1       4.569   5.671  17.116  0.00  0.00    +0.000 A 
ATOM     25  C   UNL     1       4.730   4.289  17.139  0.00  0.00    +0.000 A 
ATOM     26  C   UNL     1       5.349   3.632  16.068  0.00  0.00    +0.000 A 
BRANCH  21  28
ATOM     27  C   UNL     1       5.676   3.577  12.721  0.00  0.00    +0.000 C 
ATOM     28  O   UNL     1       6.470   3.754  13.899  0.00  0.00    +0.000 OA
ENDBRANCH  21  28
ENDBRANCH  13  24
ENDBRANCH   1  18
BRANCH  11  29
ATOM     29  C   UNL     1      -2.520  13.378  20.988  0.00  0.00    +0.000 A 
ATOM     30  C   UNL     1      -3.132  14.561  21.026  0.00  0.00    +0.000 A 
ATOM     31  C   UNL     1      -4.429  14.343  20.591  0.00  0.00    +0.000 A 
ATOM     32  C   UNL     1      -4.551  13.012  20.265  0.00  0.00    +0.000 A 
ATOM     33  N   UNL     1      -3.315  12.432  20.362  0.00  0.00    +0.000 N 
ATOM     34  H   UNL     1      -3.205  11.445  20.528  0.00  0.00    +0.000 HD
ENDBRANCH  11  29
TORSDOF 4
ENDMDL
MODEL 7
REMARK VINA RESULT:      -9.2      7.697      8.995
REMARK  Name = 
REMARK  5 active torsions:
REMARK  status: ('A' for Active; 'I' for Inactive)
REMARK    1  A    between atoms: C_1  and  O_2
REMARK    2  A    between atoms: O_2  and  C_3
REMARK    3  A    between atoms: C_6  and  C_7
REMARK    4  A    between atoms: N_12  and  C_13
REMARK    5  A    between atoms: C_23  and  C_24
REMARK                            x       y       z     vdW  Elec       q    Type
REMARK                         _______ _______ _______ _____ _____    ______ ____
ROOT
ATOM      1  C   UNL     1       1.182   9.354  19.098  0.00  0.00    +0.000 A 
ATOM      2  C   UNL     1       2.043   9.580  18.030  0.00  0.00    +0.000 A 
ATOM      3  C   UNL     1       2.785   8.452  17.416  0.00  0.00    +0.000 A 
ATOM      4  C   UNL     1       3.148   7.246  18.069  0.00  0.00    +0.000 A 
ATOM      5  C   UNL     1       2.197   7.399  19.097  0.00  0.00    +0.000 A 
ATOM      6  C   UNL     1       1.217   8.204  19.664  0.00  0.00    +0.000 A 
ATOM      7  N   UNL     1       2.098   6.530  20.060  0.00  0.00    +0.000 N 
ATOM      8  C   UNL     1       3.085   5.699  20.370  0.00  0.00    +0.000 C 
ATOM      9  O   UNL     1       2.271   5.141  21.150  0.00  0.00    +0.000 OA
ATOM     10  C   UNL     1       3.518   5.972  18.798  0.00  0.00    +0.000 C 
ATOM     11  C   UNL     1       4.049   4.936  18.153  0.00  0.00    +0.000 C 
ATOM     12  H   UNL     1       1.407   5.892  19.737  0.00  0.00    +0.000 HD
ENDROOT
BRANCH   1  18
ATOM     13  C   UNL     1      -0.513  12.158  21.644  0.00  0.00    +0.000 C 
ATOM     14  O   UNL     1       0.675  11.844  21.834  0.00  0.00    +0.000 OA
ATOM     15  N   UNL     1      -1.220  11.695  20.543  0.00  0.00    +0.000 N 
ATOM     16  C   UNL     1      -0.732  10.794  19.632  0.00  0.00    +0.000 C 
ATOM     17  O   UNL     1      -1.434  10.434  18.684  0.00  0.00    +0.000 OA
ATOM     18  N   UNL     1       0.519  10.340  19.868  0.00  0.00    +0.000 N 
ATOM     19  H   UNL     1      -2.172  11.968  20.341  0.00  0.00    +0.000 HD
ATOM     20  H   UNL     1       1.071  10.766  20.641  0.00  0.00    +0.000 HD
BRANCH  13  24
ATOM     21  C   UNL     1      -2.709  14.677  24.363  0.00  0.00    +0.000 A 
ATOM     22  C   UNL     1      -3.195  13.437  23.967  0.00  0.00    +0.000 A 
ATOM     23  C   UNL     1      -2.396  12.580  23.194  0.00  0.00    +0.000 A 
ATOM     24  C   UNL     1      -1.165  13.015  22.666  0.00  0.00    +0.000 A 
ATOM     25  C   UNL     1      -0.708  14.278  23.025  0.00  0.00    +0.000 A 
ATOM     26  C   UNL     1      -1.471  15.090  23.874  0.00  0.00    +0.000 A 
BRANCH  21  28
ATOM     27  C   UNL     1      -4.463  16.218  24.630  0.00  0.00    +0.000 C 
ATOM     28  O   UNL     1      -3.470  15.393  25.248  0.00  0.00    +0.000 OA
ENDBRANCH  21  28
ENDBRANCH  13  24
ENDBRANCH   1  18
BRANCH  11  29
ATOM     29  C   UNL     1       3.481   3.722  18.508  0.00  0.00    +0.000 A 
ATOM     30  C   UNL     1       4.144   2.646  18.932  0.00  0.00    +0.000 A 
ATOM     31  C   UNL     1       3.471   1.548  18.423  0.00  0.00    +0.000 A 
ATOM     32  C   UNL     1       2.379   2.004  17.722  0.00  0.00    +0.000 A 
ATOM     33  N   UNL     1       2.290   3.358  17.902  0.00  0.00    +0.000 N 
ATOM     34  H   UNL     1       1.826   3.951  17.233  0.00  0.00    +0.000 HD
ENDBRANCH  11  29
TORSDOF 4
ENDMDL
MODEL 8
REMARK VINA RESULT:      -8.9      9.074     11.896
REMARK  Name = 
REMARK  5 active torsions:
REMARK  status: ('A' for Active; 'I' for Inactive)
REMARK    1  A    between atoms: C_1  and  O_2
REMARK    2  A    between atoms: O_2  and  C_3
REMARK    3  A    between atoms: C_6  and  C_7
REMARK    4  A    between atoms: N_12  and  C_13
REMARK    5  A    between atoms: C_23  and  C_24
REMARK                            x       y       z     vdW  Elec       q    Type
REMARK                         _______ _______ _______ _____ _____    ______ ____
ROOT
ATOM      1  C   UNL     1       0.528  11.581  21.255  0.00  0.00    +0.000 A 
ATOM      2  C   UNL     1       0.994  12.724  20.615  0.00  0.00    +0.000 A 
ATOM      3  C   UNL     1       0.312  14.025  20.818  0.00  0.00    +0.000 A 
ATOM      4  C   UNL     1      -1.051  14.201  21.165  0.00  0.00    +0.000 A 
ATOM      5  C   UNL     1      -1.200  12.887  21.651  0.00  0.00    +0.000 A 
ATOM      6  C   UNL     1      -0.613  11.642  21.836  0.00  0.00    +0.000 A 
ATOM      7  N   UNL     1      -2.343  12.461  22.104  0.00  0.00    +0.000 N 
ATOM      8  C   UNL     1      -3.493  13.044  21.792  0.00  0.00    +0.000 C 
ATOM      9  O   UNL     1      -4.025  12.285  22.641  0.00  0.00    +0.000 OA
ATOM     10  C   UNL     1      -2.511  14.350  21.536  0.00  0.00    +0.000 C 
ATOM     11  C   UNL     1      -3.027  15.535  21.853  0.00  0.00    +0.000 C 
ATOM     12  H   UNL     1      -2.297  12.644  23.081  0.00  0.00    +0.000 HD
ENDROOT
BRANCH   1  18
ATOM     13  C   UNL     1       1.733   7.729  20.294  0.00  0.00    +0.000 C 
ATOM     14  O   UNL     1       1.629   8.553  19.368  0.00  0.00    +0.000 OA
ATOM     15  N   UNL     1       1.584   8.104  21.621  0.00  0.00    +0.000 N 
ATOM     16  C   UNL     1       1.220   9.360  22.036  0.00  0.00    +0.000 C 
ATOM     17  O   UNL     1       1.106   9.603  23.239  0.00  0.00    +0.000 OA
ATOM     18  N   UNL     1       0.985  10.256  21.051  0.00  0.00    +0.000 N 
ATOM     19  H   UNL     1       1.706   7.465  22.395  0.00  0.00    +0.000 HD
ATOM     20  H   UNL     1       1.192   9.989  20.068  0.00  0.00    +0.000 HD
BRANCH  13  24
ATOM     21  C   UNL     1       2.163   3.656  18.956  0.00  0.00    +0.000 A 
ATOM     22  C   UNL     1       2.381   4.729  18.100  0.00  0.00    +0.000 A 
ATOM     23  C   UNL     1       2.370   6.042  18.599  0.00  0.00    +0.000 A 
ATOM     24  C   UNL     1       1.980   6.313  19.923  0.00  0.00    +0.000 A 
ATOM     25  C   UNL     1       1.715   5.235  20.761  0.00  0.00    +0.000 A 
ATOM     26  C   UNL     1       1.818   3.923  20.279  0.00  0.00    +0.000 A 
BRANCH  21  28
ATOM     27  C   UNL     1       3.649   1.856  18.681  0.00  0.00    +0.000 C 
ATOM     28  O   UNL     1       2.347   2.400  18.442  0.00  0.00    +0.000 OA
ENDBRANCH  21  28
ENDBRANCH  13  24
ENDBRANCH   1  18
BRANCH  11  29
ATOM     29  C   UNL     1      -3.839  15.496  22.976  0.00  0.00    +0.000 A 
ATOM     30  C   UNL     1      -5.088  15.954  23.051  0.00  0.00    +0.000 A 
ATOM     31  C   UNL     1      -5.238  16.471  24.327  0.00  0.00    +0.000 A 
ATOM     32  C   UNL     1      -4.059  16.273  25.009  0.00  0.00    +0.000 A 
ATOM     33  N   UNL     1      -3.229  15.522  24.220  0.00  0.00    +0.000 N 
ATOM     34  H   UNL     1      -2.229  15.552  24.327  0.00  0.00    +0.000 HD
ENDBRANCH  11  29
TORSDOF 4
ENDMDL
MODEL 9
REMARK VINA RESULT:      -8.8      8.992     11.712
REMARK  Name = 
REMARK  5 active torsions:
REMARK  status: ('A' for Active; 'I' for Inactive)
REMARK    1  A    between atoms: C_1  and  O_2
REMARK    2  A    between atoms: O_2  and  C_3
REMARK    3  A    between atoms: C_6  and  C_7
REMARK    4  A    between atoms: N_12  and  C_13
REMARK    5  A    between atoms: C_23  and  C_24
REMARK                            x       y       z     vdW  Elec       q    Type
REMARK                         _______ _______ _______ _____ _____    ______ ____
ROOT
ATOM      1  C   UNL     1       0.273  11.497  20.844  0.00  0.00    +0.000 A 
ATOM      2  C   UNL     1       0.348  12.506  19.892  0.00  0.00    +0.000 A 
ATOM      3  C   UNL     1      -0.442  13.751  20.056  0.00  0.00    +0.000 A 
ATOM      4  C   UNL     1      -1.656  13.872  20.777  0.00  0.00    +0.000 A 
ATOM      5  C   UNL     1      -1.450  12.692  21.519  0.00  0.00    +0.000 A 
ATOM      6  C   UNL     1      -0.646  11.580  21.734  0.00  0.00    +0.000 A 
ATOM      7  N   UNL     1      -2.331  12.272  22.379  0.00  0.00    +0.000 N 
ATOM      8  C   UNL     1      -3.599  12.661  22.344  0.00  0.00    +0.000 C 
ATOM      9  O   UNL     1      -3.736  12.065  23.443  0.00  0.00    +0.000 OA
ATOM     10  C   UNL     1      -2.952  13.962  21.556  0.00  0.00    +0.000 C 
ATOM     11  C   UNL     1      -3.533  15.135  21.796  0.00  0.00    +0.000 C 
ATOM     12  H   UNL     1      -2.034  12.672  23.240  0.00  0.00    +0.000 HD
ENDROOT
BRANCH   1  18
ATOM     13  C   UNL     1       1.857   7.714  20.209  0.00  0.00    +0.000 C 
ATOM     14  O   UNL     1       1.721   8.460  19.224  0.00  0.00    +0.000 OA
ATOM     15  N   UNL     1       1.616   8.164  21.500  0.00  0.00    +0.000 N 
ATOM     16  C   UNL     1       1.123   9.407  21.809  0.00  0.00    +0.000 C 
ATOM     17  O   UNL     1       0.936   9.720  22.986  0.00  0.00    +0.000 OA
ATOM     18  N   UNL     1       0.855  10.209  20.754  0.00  0.00    +0.000 N 
ATOM     19  H   UNL     1       1.759   7.593  22.321  0.00  0.00    +0.000 HD
ATOM     20  H   UNL     1       1.128   9.895  19.801  0.00  0.00    +0.000 HD
BRANCH  13  24
ATOM     21  C   UNL     1       3.138   3.620  19.820  0.00  0.00    +0.000 A 
ATOM     22  C   UNL     1       2.219   4.005  20.789  0.00  0.00    +0.000 A 
ATOM     23  C   UNL     1       1.715   5.316  20.801  0.00  0.00    +0.000 A 
ATOM     24  C   UNL     1       2.244   6.305  19.951  0.00  0.00    +0.000 A 
ATOM     25  C   UNL     1       3.202   5.923  19.018  0.00  0.00    +0.000 A 
ATOM     26  C   UNL     1       3.631   4.590  18.951  0.00  0.00    +0.000 A 
BRANCH  21  28
ATOM     27  C   UNL     1       3.419   1.735  18.444  0.00  0.00    +0.000 C 
ATOM     28  O   UNL     1       3.465   2.291  19.762  0.00  0.00    +0.000 OA
ENDBRANCH  21  28
ENDBRANCH  13  24
ENDBRANCH   1  18
BRANCH  11  29
ATOM     29  C   UNL     1      -3.969  15.272  23.105  0.00  0.00    +0.000 A 
ATOM     30  C   UNL     1      -5.170  15.705  23.485  0.00  0.00    +0.000 A 
ATOM     31  C   UNL     1      -4.973  16.433  24.647  0.00  0.00    +0.000 A 
ATOM     32  C   UNL     1      -3.634  16.386  24.957  0.00  0.00    +0.000 A 
ATOM     33  N   UNL     1      -3.021  15.530  24.082  0.00  0.00    +0.000 N 
ATOM     34  H   UNL     1      -2.039  15.603  23.871  0.00  0.00    +0.000 HD
ENDBRANCH  11  29
TORSDOF 4
ENDMDL
