MODEL 1
REMARK VINA RESULT:      -7.8      0.000      0.000
REMARK  Name = 
REMARK  9 active torsions:
REMARK  status: ('A' for Active; 'I' for Inactive)
REMARK    1  A    between atoms: C_1  and  C_2
REMARK    2  A    between atoms: C_5  and  N_6
REMARK    3  A    between atoms: N_6  and  C_7
REMARK    4  A    between atoms: C_9  and  C_10
REMARK    5  A    between atoms: C_10  and  C_12
REMARK    6  A    between atoms: C_19  and  N_20
REMARK    7  A    between atoms: C_21  and  S_22
REMARK    8  A    between atoms: S_22  and  C_25
REMARK    9  A    between atoms: C_28  and  C_29
REMARK                            x       y       z     vdW  Elec       q    Type
REMARK                         _______ _______ _______ _____ _____    ______ ____
ROOT
ATOM      1  C   UNL     1       0.690   9.870  18.775  0.00  0.00    +0.000 A 
ATOM      2  S   UNL     1       1.587   8.798  17.787  0.00  0.00    +0.000 S 
ATOM      3  C   UNL     1       2.166   7.869  19.078  0.00  0.00    +0.000 A 
ATOM      4  C   UNL     1       1.749   8.396  20.287  0.00  0.00    +0.000 A 
ATOM      5  C   UNL     1       0.913   9.567  20.113  0.00  0.00    +0.000 A 
ENDROOT
BRANCH   4   6
ATOM      6  N   UNL     1       2.123   7.841  21.467  0.00  0.00    +0.000 N 
ATOM      7  H   UNL     1       3.126   7.705  21.642  0.00  0.00    +0.000 HD
ATOM      8  H   UNL     1       1.596   7.064  21.868  0.00  0.00    +0.000 HD
ENDBRANCH   4   6
BRANCH   5   9
ATOM      9  S   UNL     1       0.169  10.444  21.426  0.00  0.00    +0.000 S 
ATOM     10  O   UNL     1      -1.263  10.225  21.282  0.00  0.00    +0.000 OA
ATOM     11  O   UNL     1       0.890   9.993  22.598  0.00  0.00    +0.000 OA
BRANCH   9  12
ATOM     12  C   UNL     1       0.459  12.180  21.228  0.00  0.00    +0.000 A 
ATOM     13  C   UNL     1      -0.485  13.107  21.673  0.00  0.00    +0.000 A 
ATOM     14  C   UNL     1      -0.252  14.475  21.484  0.00  0.00    +0.000 A 
ATOM     15  C   UNL     1       0.937  14.926  20.892  0.00  0.00    +0.000 A 
ATOM     16  C   UNL     1       1.189  16.393  20.676  0.00  0.00    +0.000 C 
ATOM     17  C   UNL     1       1.901  13.988  20.504  0.00  0.00    +0.000 A 
ATOM     18  C   UNL     1       1.669  12.619  20.674  0.00  0.00    +0.000 A 
ENDBRANCH   9  12
ENDBRANCH   5   9
BRANCH   1  19
ATOM     19  N   UNL     1      -0.052  10.879  18.201  0.00  0.00    +0.000 N 
ATOM     20  H   UNL     1       0.330  11.829  18.248  0.00  0.00    +0.000 HD
BRANCH  19  25
ATOM     21  C   UNL     1      -5.802  11.047  17.873  0.00  0.00    +0.000 C 
ATOM     22  C   UNL     1      -4.304  11.013  17.917  0.00  0.00    +0.000 A 
ATOM     23  C   UNL     1      -3.595   9.974  17.320  0.00  0.00    +0.000 A 
ATOM     24  C   UNL     1      -2.204   9.923  17.421  0.00  0.00    +0.000 A 
ATOM     25  C   UNL     1      -1.471  10.913  18.091  0.00  0.00    +0.000 A 
ATOM     26  C   UNL     1      -2.189  11.969  18.667  0.00  0.00    +0.000 A 
ATOM     27  C   UNL     1      -3.590  12.014  18.586  0.00  0.00    +0.000 A 
ENDBRANCH  19  25
ENDBRANCH   1  19
BRANCH   3  28
ATOM     28  C   UNL     1       2.933   6.642  18.796  0.00  0.00    +0.000 C 
ATOM     29  O   UNL     1       4.130   6.655  18.523  0.00  0.00    +0.000 OA
BRANCH  28  30
ATOM     30  C   UNL     1       2.245   5.302  18.828  0.00  0.00    +0.000 A 
ATOM     31  C   UNL     1       2.217   4.493  17.682  0.00  0.00    +0.000 A 
ATOM     32  C   UNL     1       1.568   3.250  17.716  0.00  0.00    +0.000 A 
ATOM     33  C   UNL     1       0.969   2.812  18.894  0.00  0.00    +0.000 A 
ATOM     34  F   UNL     1       0.348   1.627  18.926  0.00  0.00    +0.000 F 
ATOM     35  C   UNL     1       0.994   3.595  20.037  0.00  0.00    +0.000 A 
ATOM     36  C   UNL     1       1.599   4.848  19.994  0.00  0.00    +0.000 A 
ENDBRANCH  28  30
ENDBRANCH   3  28
TORSDOF 7
ENDMDL
MODEL 2
REMARK VINA RESULT:      -7.7      0.993      1.137
REMARK  Name = 
REMARK  9 active torsions:
REMARK  status: ('A' for Active; 'I' for Inactive)
REMARK    1  A    between atoms: C_1  and  C_2
REMARK    2  A    between atoms: C_5  and  N_6
REMARK    3  A    between atoms: N_6  and  C_7
REMARK    4  A    between atoms: C_9  and  C_10
REMARK    5  A    between atoms: C_10  and  C_12
REMARK    6  A    between atoms: C_19  and  N_20
REMARK    7  A    between atoms: C_21  and  S_22
REMARK    8  A    between atoms: S_22  and  C_25
REMARK    9  A    between atoms: C_28  and  C_29
REMARK                            x       y       z     vdW  Elec       q    Type
REMARK                         _______ _______ _______ _____ _____    ______ ____
ROOT
ATOM      1  C   UNL     1       0.934   9.763  18.704  0.00  0.00    +0.000 A 
ATOM      2  S   UNL     1       1.916   9.044  17.500  0.00  0.00    +0.000 S 
ATOM      3  C   UNL     1       2.477   7.800  18.502  0.00  0.00    +0.000 A 
ATOM      4  C   UNL     1       1.987   7.948  19.788  0.00  0.00    +0.000 A 
ATOM      5  C   UNL     1       1.112   9.096  19.911  0.00  0.00    +0.000 A 
ENDROOT
BRANCH   4   6
ATOM      6  N   UNL     1       2.334   7.089  20.779  0.00  0.00    +0.000 N 
ATOM      7  H   UNL     1       3.273   7.174  21.187  0.00  0.00    +0.000 HD
ATOM      8  H   UNL     1       2.066   6.104  20.734  0.00  0.00    +0.000 HD
ENDBRANCH   4   6
BRANCH   5   9
ATOM      9  S   UNL     1       0.278   9.540  21.378  0.00  0.00    +0.000 S 
ATOM     10  O   UNL     1      -1.100   9.109  21.191  0.00  0.00    +0.000 OA
ATOM     11  O   UNL     1       1.108   8.991  22.430  0.00  0.00    +0.000 OA
BRANCH   9  12
ATOM     12  C   UNL     1       0.258  11.303  21.547  0.00  0.00    +0.000 A 
ATOM     13  C   UNL     1      -0.731  11.926  22.309  0.00  0.00    +0.000 A 
ATOM     14  C   UNL     1      -0.746  13.324  22.410  0.00  0.00    +0.000 A 
ATOM     15  C   UNL     1       0.244  14.100  21.790  0.00  0.00    +0.000 A 
ATOM     16  C   UNL     1       0.227  15.600  21.886  0.00  0.00    +0.000 C 
ATOM     17  C   UNL     1       1.264  13.457  21.078  0.00  0.00    +0.000 A 
ATOM     18  C   UNL     1       1.278  12.064  20.959  0.00  0.00    +0.000 A 
ENDBRANCH   9  12
ENDBRANCH   5   9
BRANCH   1  19
ATOM     19  N   UNL     1       0.176  10.873  18.403  0.00  0.00    +0.000 N 
ATOM     20  H   UNL     1       0.515  11.780  18.740  0.00  0.00    +0.000 HD
BRANCH  19  25
ATOM     21  C   UNL     1      -5.555  10.992  17.821  0.00  0.00    +0.000 C 
ATOM     22  C   UNL     1      -4.061  10.974  17.932  0.00  0.00    +0.000 A 
ATOM     23  C   UNL     1      -3.307  10.005  17.275  0.00  0.00    +0.000 A 
ATOM     24  C   UNL     1      -1.921   9.964  17.437  0.00  0.00    +0.000 A 
ATOM     25  C   UNL     1      -1.237  10.898  18.229  0.00  0.00    +0.000 A 
ATOM     26  C   UNL     1      -2.000  11.886  18.866  0.00  0.00    +0.000 A 
ATOM     27  C   UNL     1      -3.396  11.919  18.724  0.00  0.00    +0.000 A 
ENDBRANCH  19  25
ENDBRANCH   1  19
BRANCH   3  28
ATOM     28  C   UNL     1       3.305   6.727  17.924  0.00  0.00    +0.000 C 
ATOM     29  O   UNL     1       4.266   6.949  17.192  0.00  0.00    +0.000 OA
BRANCH  28  30
ATOM     30  C   UNL     1       2.979   5.285  18.218  0.00  0.00    +0.000 A 
ATOM     31  C   UNL     1       1.717   4.765  17.891  0.00  0.00    +0.000 A 
ATOM     32  C   UNL     1       1.416   3.424  18.174  0.00  0.00    +0.000 A 
ATOM     33  C   UNL     1       2.378   2.607  18.761  0.00  0.00    +0.000 A 
ATOM     34  F   UNL     1       2.090   1.328  19.033  0.00  0.00    +0.000 F 
ATOM     35  C   UNL     1       3.631   3.102  19.083  0.00  0.00    +0.000 A 
ATOM     36  C   UNL     1       3.917   4.444  18.844  0.00  0.00    +0.000 A 
ENDBRANCH  28  30
ENDBRANCH   3  28
TORSDOF 7
ENDMDL
MODEL 3
REMARK VINA RESULT:      -7.7      4.646      7.660
REMARK  Name = 
REMARK  9 active torsions:
REMARK  status: ('A' for Active; 'I' for Inactive)
REMARK    1  A    between atoms: C_1  and  C_2
REMARK    2  A    between atoms: C_5  and  N_6
REMARK    3  A    between atoms: N_6  and  C_7
REMARK    4  A    between atoms: C_9  and  C_10
REMARK    5  A    between atoms: C_10  and  C_12
REMARK    6  A    between atoms: C_19  and  N_20
REMARK    7  A    between atoms: C_21  and  S_22
REMARK    8  A    between atoms: S_22  and  C_25
REMARK    9  A    between atoms: C_28  and  C_29
REMARK                            x       y       z     vdW  Elec       q    Type
REMARK                         _______ _______ _______ _____ _____    ______ ____
ROOT
ATOM      1  C   UNL     1       1.044  12.373  20.750  0.00  0.00    +0.000 A 
ATOM      2  S   UNL     1       1.946  13.822  20.867  0.00  0.00    +0.000 S 
ATOM      3  C   UNL     1       2.508  13.767  19.271  0.00  0.00    +0.000 A 
ATOM      4  C   UNL     1       2.081  12.612  18.641  0.00  0.00    +0.000 A 
ATOM      5  C   UNL     1       1.252  11.793  19.503  0.00  0.00    +0.000 A 
ENDROOT
BRANCH   4   6
ATOM      6  N   UNL     1       2.441  12.329  17.364  0.00  0.00    +0.000 N 
ATOM      7  H   UNL     1       3.316  12.732  17.007  0.00  0.00    +0.000 HD
ATOM      8  H   UNL     1       1.745  12.305  16.618  0.00  0.00    +0.000 HD
ENDBRANCH   4   6
BRANCH   5   9
ATOM      9  S   UNL     1       0.499  10.299  19.008  0.00  0.00    +0.000 S 
ATOM     10  O   UNL     1       1.297   9.809  17.892  0.00  0.00    +0.000 OA
ATOM     11  O   UNL     1       0.376   9.546  20.239  0.00  0.00    +0.000 OA
BRANCH   9  12
ATOM     12  C   UNL     1      -1.128  10.623  18.388  0.00  0.00    +0.000 A 
ATOM     13  C   UNL     1      -1.598   9.951  17.258  0.00  0.00    +0.000 A 
ATOM     14  C   UNL     1      -2.877  10.240  16.766  0.00  0.00    +0.000 A 
ATOM     15  C   UNL     1      -3.707  11.163  17.420  0.00  0.00    +0.000 A 
ATOM     16  C   UNL     1      -5.077  11.485  16.890  0.00  0.00    +0.000 C 
ATOM     17  C   UNL     1      -3.245  11.785  18.586  0.00  0.00    +0.000 A 
ATOM     18  C   UNL     1      -1.963  11.515  19.074  0.00  0.00    +0.000 A 
ENDBRANCH   9  12
ENDBRANCH   5   9
BRANCH   1  19
ATOM     19  N   UNL     1       0.312  11.927  21.828  0.00  0.00    +0.000 N 
ATOM     20  H   UNL     1       0.401  10.937  22.080  0.00  0.00    +0.000 HD
BRANCH  19  25
ATOM     21  C   UNL     1      -4.822  13.911  23.532  0.00  0.00    +0.000 C 
ATOM     22  C   UNL     1      -3.468  13.421  23.116  0.00  0.00    +0.000 A 
ATOM     23  C   UNL     1      -2.623  14.221  22.351  0.00  0.00    +0.000 A 
ATOM     24  C   UNL     1      -1.390  13.730  21.920  0.00  0.00    +0.000 A 
ATOM     25  C   UNL     1      -0.944  12.444  22.256  0.00  0.00    +0.000 A 
ATOM     26  C   UNL     1      -1.788  11.654  23.049  0.00  0.00    +0.000 A 
ATOM     27  C   UNL     1      -3.039  12.136  23.467  0.00  0.00    +0.000 A 
ENDBRANCH  19  25
ENDBRANCH   1  19
BRANCH   3  28
ATOM     28  C   UNL     1       3.273  14.908  18.736  0.00  0.00    +0.000 C 
ATOM     29  O   UNL     1       2.739  15.861  18.176  0.00  0.00    +0.000 OA
BRANCH  28  30
ATOM     30  C   UNL     1       4.775  14.928  18.856  0.00  0.00    +0.000 A 
ATOM     31  C   UNL     1       5.578  14.652  17.738  0.00  0.00    +0.000 A 
ATOM     32  C   UNL     1       6.975  14.665  17.858  0.00  0.00    +0.000 A 
ATOM     33  C   UNL     1       7.563  14.970  19.083  0.00  0.00    +0.000 A 
ATOM     34  F   UNL     1       8.897  14.979  19.198  0.00  0.00    +0.000 F 
ATOM     35  C   UNL     1       6.786  15.251  20.194  0.00  0.00    +0.000 A 
ATOM     36  C   UNL     1       5.398  15.196  20.089  0.00  0.00    +0.000 A 
ENDBRANCH  28  30
ENDBRANCH   3  28
TORSDOF 7
ENDMDL
MODEL 4
REMARK VINA RESULT:      -7.7      0.985      1.618
REMARK  Name = 
REMARK  9 active torsions:
REMARK  status: ('A' for Active; 'I' for Inactive)
REMARK    1  A    between atoms: C_1  and  C_2
REMARK    2  A    between atoms: C_5  and  N_6
REMARK    3  A    between atoms: N_6  and  C_7
REMARK    4  A    between atoms: C_9  and  C_10
REMARK    5  A    between atoms: C_10  and  C_12
REMARK    6  A    between atoms: C_19  and  N_20
REMARK    7  A    between atoms: C_21  and  S_22
REMARK    8  A    between atoms: S_22  and  C_25
REMARK    9  A    between atoms: C_28  and  C_29
REMARK                            x       y       z     vdW  Elec       q    Type
REMARK                         _______ _______ _______ _____ _____    ______ ____
ROOT
ATOM      1  C   UNL     1       0.939   9.772  18.678  0.00  0.00    +0.000 A 
ATOM      2  S   UNL     1       1.927   9.037  17.488  0.00  0.00    +0.000 S 
ATOM      3  C   UNL     1       2.480   7.804  18.507  0.00  0.00    +0.000 A 
ATOM      4  C   UNL     1       1.983   7.966  19.788  0.00  0.00    +0.000 A 
ATOM      5  C   UNL     1       1.109   9.118  19.893  0.00  0.00    +0.000 A 
ENDROOT
BRANCH   4   6
ATOM      6  N   UNL     1       2.321   7.117  20.790  0.00  0.00    +0.000 N 
ATOM      7  H   UNL     1       1.848   7.224  21.696  0.00  0.00    +0.000 HD
ATOM      8  H   UNL     1       3.295   6.849  20.941  0.00  0.00    +0.000 HD
ENDBRANCH   4   6
BRANCH   5   9
ATOM      9  S   UNL     1       0.267   9.579  21.350  0.00  0.00    +0.000 S 
ATOM     10  O   UNL     1      -1.121   9.192  21.141  0.00  0.00    +0.000 OA
ATOM     11  O   UNL     1       1.063   8.998  22.411  0.00  0.00    +0.000 OA
BRANCH   9  12
ATOM     12  C   UNL     1       0.300  11.341  21.530  0.00  0.00    +0.000 A 
ATOM     13  C   UNL     1       1.292  12.095  20.901  0.00  0.00    +0.000 A 
ATOM     14  C   UNL     1       1.319  13.484  21.076  0.00  0.00    +0.000 A 
ATOM     15  C   UNL     1       0.336  14.131  21.841  0.00  0.00    +0.000 A 
ATOM     16  C   UNL     1       0.365  15.621  22.042  0.00  0.00    +0.000 C 
ATOM     17  C   UNL     1      -0.687  13.369  22.418  0.00  0.00    +0.000 A 
ATOM     18  C   UNL     1      -0.711  11.979  22.261  0.00  0.00    +0.000 A 
ENDBRANCH   9  12
ENDBRANCH   5   9
BRANCH   1  19
ATOM     19  N   UNL     1       0.185  10.880  18.360  0.00  0.00    +0.000 N 
ATOM     20  H   UNL     1       0.546  11.794  18.652  0.00  0.00    +0.000 HD
BRANCH  19  25
ATOM     21  C   UNL     1      -5.539  11.010  17.721  0.00  0.00    +0.000 C 
ATOM     22  C   UNL     1      -4.055  10.963  17.927  0.00  0.00    +0.000 A 
ATOM     23  C   UNL     1      -3.416  11.899  18.737  0.00  0.00    +0.000 A 
ATOM     24  C   UNL     1      -2.027  11.879  18.871  0.00  0.00    +0.000 A 
ATOM     25  C   UNL     1      -1.232  10.917  18.232  0.00  0.00    +0.000 A 
ATOM     26  C   UNL     1      -1.885   9.963  17.440  0.00  0.00    +0.000 A 
ATOM     27  C   UNL     1      -3.280   9.991  17.285  0.00  0.00    +0.000 A 
ENDBRANCH  19  25
ENDBRANCH   1  19
BRANCH   3  28
ATOM     28  C   UNL     1       3.310   6.722  17.946  0.00  0.00    +0.000 C 
ATOM     29  O   UNL     1       4.277   6.935  17.221  0.00  0.00    +0.000 OA
BRANCH  28  30
ATOM     30  C   UNL     1       2.975   5.284  18.249  0.00  0.00    +0.000 A 
ATOM     31  C   UNL     1       1.714   4.766  17.914  0.00  0.00    +0.000 A 
ATOM     32  C   UNL     1       1.406   3.429  18.206  0.00  0.00    +0.000 A 
ATOM     33  C   UNL     1       2.359   2.613  18.809  0.00  0.00    +0.000 A 
ATOM     34  F   UNL     1       2.064   1.338  19.089  0.00  0.00    +0.000 F 
ATOM     35  C   UNL     1       3.611   3.107  19.139  0.00  0.00    +0.000 A 
ATOM     36  C   UNL     1       3.904   4.446  18.891  0.00  0.00    +0.000 A 
ENDBRANCH  28  30
ENDBRANCH   3  28
TORSDOF 7
ENDMDL
MODEL 5
REMARK VINA RESULT:      -7.6      1.218      1.496
REMARK  Name = 
REMARK  9 active torsions:
REMARK  status: ('A' for Active; 'I' for Inactive)
REMARK    1  A    between atoms: C_1  and  C_2
REMARK    2  A    between atoms: C_5  and  N_6
REMARK    3  A    between atoms: N_6  and  C_7
REMARK    4  A    between atoms: C_9  and  C_10
REMARK    5  A    between atoms: C_10  and  C_12
REMARK    6  A    between atoms: C_19  and  N_20
REMARK    7  A    between atoms: C_21  and  S_22
REMARK    8  A    between atoms: S_22  and  C_25
REMARK    9  A    between atoms: C_28  and  C_29
REMARK                            x       y       z     vdW  Elec       q    Type
REMARK                         _______ _______ _______ _____ _____    ______ ____
ROOT
ATOM      1  C   UNL     1       0.782   9.803  19.155  0.00  0.00    +0.000 A 
ATOM      2  S   UNL     1       1.668   9.211  17.815  0.00  0.00    +0.000 S 
ATOM      3  C   UNL     1       2.317   7.889  18.649  0.00  0.00    +0.000 A 
ATOM      4  C   UNL     1       1.933   7.911  19.978  0.00  0.00    +0.000 A 
ATOM      5  C   UNL     1       1.063   9.031  20.277  0.00  0.00    +0.000 A 
ENDROOT
BRANCH   4   6
ATOM      6  N   UNL     1       2.364   6.970  20.855  0.00  0.00    +0.000 N 
ATOM      7  H   UNL     1       3.355   6.700  20.826  0.00  0.00    +0.000 HD
ATOM      8  H   UNL     1       1.791   6.153  21.068  0.00  0.00    +0.000 HD
ENDBRANCH   4   6
BRANCH   5   9
ATOM      9  S   UNL     1       0.348   9.327  21.841  0.00  0.00    +0.000 S 
ATOM     10  O   UNL     1      -0.881   8.546  21.865  0.00  0.00    +0.000 OA
ATOM     11  O   UNL     1       1.428   9.070  22.771  0.00  0.00    +0.000 OA
BRANCH   9  12
ATOM     12  C   UNL     1      -0.110  11.033  21.978  0.00  0.00    +0.000 A 
ATOM     13  C   UNL     1      -1.293  11.394  22.624  0.00  0.00    +0.000 A 
ATOM     14  C   UNL     1      -1.654  12.746  22.700  0.00  0.00    +0.000 A 
ATOM     15  C   UNL     1      -0.819  13.742  22.172  0.00  0.00    +0.000 A 
ATOM     16  C   UNL     1      -1.205  15.194  22.241  0.00  0.00    +0.000 C 
ATOM     17  C   UNL     1       0.394  13.369  21.579  0.00  0.00    +0.000 A 
ATOM     18  C   UNL     1       0.753  12.021  21.486  0.00  0.00    +0.000 A 
ENDBRANCH   9  12
ENDBRANCH   5   9
BRANCH   1  19
ATOM     19  N   UNL     1      -0.005  10.925  19.019  0.00  0.00    +0.000 N 
ATOM     20  H   UNL     1       0.230  11.737  19.599  0.00  0.00    +0.000 HD
BRANCH  19  25
ATOM     21  C   UNL     1      -5.618  11.010  17.720  0.00  0.00    +0.000 C 
ATOM     22  C   UNL     1      -4.149  11.000  18.018  0.00  0.00    +0.000 A 
ATOM     23  C   UNL     1      -3.324   9.999  17.510  0.00  0.00    +0.000 A 
ATOM     24  C   UNL     1      -1.969   9.968  17.845  0.00  0.00    +0.000 A 
ATOM     25  C   UNL     1      -1.385  10.940  18.669  0.00  0.00    +0.000 A 
ATOM     26  C   UNL     1      -2.216  11.958  19.156  0.00  0.00    +0.000 A 
ATOM     27  C   UNL     1      -3.584  11.983  18.839  0.00  0.00    +0.000 A 
ENDBRANCH  19  25
ENDBRANCH   1  19
BRANCH   3  28
ATOM     28  C   UNL     1       3.103   6.884  17.910  0.00  0.00    +0.000 C 
ATOM     29  O   UNL     1       3.926   7.186  17.051  0.00  0.00    +0.000 OA
BRANCH  28  30
ATOM     30  C   UNL     1       2.902   5.418  18.192  0.00  0.00    +0.000 A 
ATOM     31  C   UNL     1       3.951   4.648  18.719  0.00  0.00    +0.000 A 
ATOM     32  C   UNL     1       3.760   3.282  18.971  0.00  0.00    +0.000 A 
ATOM     33  C   UNL     1       2.523   2.696  18.716  0.00  0.00    +0.000 A 
ATOM     34  F   UNL     1       2.342   1.391  18.955  0.00  0.00    +0.000 F 
ATOM     35  C   UNL     1       1.475   3.442  18.203  0.00  0.00    +0.000 A 
ATOM     36  C   UNL     1       1.675   4.789  17.910  0.00  0.00    +0.000 A 
ENDBRANCH  28  30
ENDBRANCH   3  28
TORSDOF 7
ENDMDL
MODEL 6
REMARK VINA RESULT:      -7.6      2.120      2.743
REMARK  Name = 
REMARK  9 active torsions:
REMARK  status: ('A' for Active; 'I' for Inactive)
REMARK    1  A    between atoms: C_1  and  C_2
REMARK    2  A    between atoms: C_5  and  N_6
REMARK    3  A    between atoms: N_6  and  C_7
REMARK    4  A    between atoms: C_9  and  C_10
REMARK    5  A    between atoms: C_10  and  C_12
REMARK    6  A    between atoms: C_19  and  N_20
REMARK    7  A    between atoms: C_21  and  S_22
REMARK    8  A    between atoms: S_22  and  C_25
REMARK    9  A    between atoms: C_28  and  C_29
REMARK                            x       y       z     vdW  Elec       q    Type
REMARK                         _______ _______ _______ _____ _____    ______ ____
ROOT
ATOM      1  C   UNL     1       0.749   9.740  18.692  0.00  0.00    +0.000 A 
ATOM      2  S   UNL     1       1.461   8.687  17.545  0.00  0.00    +0.000 S 
ATOM      3  C   UNL     1       2.048   7.598  18.701  0.00  0.00    +0.000 A 
ATOM      4  C   UNL     1       1.779   8.049  19.981  0.00  0.00    +0.000 A 
ATOM      5  C   UNL     1       1.047   9.299  19.977  0.00  0.00    +0.000 A 
ENDROOT
BRANCH   4   6
ATOM      6  N   UNL     1       2.190   7.359  21.074  0.00  0.00    +0.000 N 
ATOM      7  H   UNL     1       1.990   6.351  21.114  0.00  0.00    +0.000 HD
ATOM      8  H   UNL     1       2.108   7.763  22.008  0.00  0.00    +0.000 HD
ENDBRANCH   4   6
BRANCH   5   9
ATOM      9  S   UNL     1       0.495  10.116  21.417  0.00  0.00    +0.000 S 
ATOM     10  O   UNL     1      -0.935   9.852  21.495  0.00  0.00    +0.000 OA
ATOM     11  O   UNL     1       1.407   9.661  22.446  0.00  0.00    +0.000 OA
BRANCH   9  12
ATOM     12  C   UNL     1       0.696  11.866  21.229  0.00  0.00    +0.000 A 
ATOM     13  C   UNL     1      -0.266  12.743  21.730  0.00  0.00    +0.000 A 
ATOM     14  C   UNL     1      -0.104  14.123  21.548  0.00  0.00    +0.000 A 
ATOM     15  C   UNL     1       1.034  14.634  20.907  0.00  0.00    +0.000 A 
ATOM     16  C   UNL     1       1.209  16.113  20.700  0.00  0.00    +0.000 C 
ATOM     17  C   UNL     1       2.020  13.746  20.463  0.00  0.00    +0.000 A 
ATOM     18  C   UNL     1       1.858  12.366  20.626  0.00  0.00    +0.000 A 
ENDBRANCH   9  12
ENDBRANCH   5   9
BRANCH   1  19
ATOM     19  N   UNL     1       0.064  10.858  18.270  0.00  0.00    +0.000 N 
ATOM     20  H   UNL     1       0.469  11.772  18.497  0.00  0.00    +0.000 HD
BRANCH  19  25
ATOM     21  C   UNL     1      -5.657  11.280  17.731  0.00  0.00    +0.000 C 
ATOM     22  C   UNL     1      -4.165  11.187  17.833  0.00  0.00    +0.000 A 
ATOM     23  C   UNL     1      -3.453  10.258  17.078  0.00  0.00    +0.000 A 
ATOM     24  C   UNL     1      -2.070  10.142  17.227  0.00  0.00    +0.000 A 
ATOM     25  C   UNL     1      -1.347  10.960  18.107  0.00  0.00    +0.000 A 
ATOM     26  C   UNL     1      -2.066  11.910  18.844  0.00  0.00    +0.000 A 
ATOM     27  C   UNL     1      -3.460  12.017  18.712  0.00  0.00    +0.000 A 
ENDBRANCH  19  25
ENDBRANCH   1  19
BRANCH   3  28
ATOM     28  C   UNL     1       2.671   6.339  18.254  0.00  0.00    +0.000 C 
ATOM     29  O   UNL     1       2.017   5.375  17.866  0.00  0.00    +0.000 OA
BRANCH  28  30
ATOM     30  C   UNL     1       4.171   6.195  18.272  0.00  0.00    +0.000 A 
ATOM     31  C   UNL     1       4.795   5.415  19.258  0.00  0.00    +0.000 A 
ATOM     32  C   UNL     1       6.192   5.292  19.274  0.00  0.00    +0.000 A 
ATOM     33  C   UNL     1       6.956   5.928  18.299  0.00  0.00    +0.000 A 
ATOM     34  F   UNL     1       8.290   5.812  18.316  0.00  0.00    +0.000 F 
ATOM     35  C   UNL     1       6.355   6.696  17.315  0.00  0.00    +0.000 A 
ATOM     36  C   UNL     1       4.972   6.856  17.323  0.00  0.00    +0.000 A 
ENDBRANCH  28  30
ENDBRANCH   3  28
TORSDOF 7
ENDMDL
MODEL 7
REMARK VINA RESULT:      -7.6      4.749      8.011
REMARK  Name = 
REMARK  9 active torsions:
REMARK  status: ('A' for Active; 'I' for Inactive)
REMARK    1  A    between atoms: C_1  and  C_2
REMARK    2  A    between atoms: C_5  and  N_6
REMARK    3  A    between atoms: N_6  and  C_7
REMARK    4  A    between atoms: C_9  and  C_10
REMARK    5  A    between atoms: C_10  and  C_12
REMARK    6  A    between atoms: C_19  and  N_20
REMARK    7  A    between atoms: C_21  and  S_22
REMARK    8  A    between atoms: S_22  and  C_25
REMARK    9  A    between atoms: C_28  and  C_29
REMARK                            x       y       z     vdW  Elec       q    Type
REMARK                         _______ _______ _______ _____ _____    ______ ____
ROOT
ATOM      1  C   UNL     1       1.152  13.080  20.758  0.00  0.00    +0.000 A 
ATOM      2  S   UNL     1       1.921  14.606  20.661  0.00  0.00    +0.000 S 
ATOM      3  C   UNL     1       2.417  14.411  19.054  0.00  0.00    +0.000 A 
ATOM      4  C   UNL     1       2.073  13.156  18.584  0.00  0.00    +0.000 A 
ATOM      5  C   UNL     1       1.361  12.377  19.577  0.00  0.00    +0.000 A 
ENDROOT
BRANCH   4   6
ATOM      6  N   UNL     1       2.403  12.756  17.331  0.00  0.00    +0.000 N 
ATOM      7  H   UNL     1       1.790  12.077  16.862  0.00  0.00    +0.000 HD
ATOM      8  H   UNL     1       3.375  12.571  17.080  0.00  0.00    +0.000 HD
ENDBRANCH   4   6
BRANCH   5   9
ATOM      9  S   UNL     1       0.730  10.774  19.297  0.00  0.00    +0.000 S 
ATOM     10  O   UNL     1       1.577  10.194  18.264  0.00  0.00    +0.000 OA
ATOM     11  O   UNL     1       0.648  10.196  20.622  0.00  0.00    +0.000 OA
BRANCH   9  12
ATOM     12  C   UNL     1      -0.909  10.881  18.634  0.00  0.00    +0.000 A 
ATOM     13  C   UNL     1      -1.281  10.093  17.543  0.00  0.00    +0.000 A 
ATOM     14  C   UNL     1      -2.573  10.211  17.015  0.00  0.00    +0.000 A 
ATOM     15  C   UNL     1      -3.509  11.079  17.594  0.00  0.00    +0.000 A 
ATOM     16  C   UNL     1      -4.894  11.218  17.025  0.00  0.00    +0.000 C 
ATOM     17  C   UNL     1      -3.141  11.820  18.724  0.00  0.00    +0.000 A 
ATOM     18  C   UNL     1      -1.849  11.720  19.248  0.00  0.00    +0.000 A 
ENDBRANCH   9  12
ENDBRANCH   5   9
BRANCH   1  19
ATOM     19  N   UNL     1       0.512  12.703  21.918  0.00  0.00    +0.000 N 
ATOM     20  H   UNL     1       0.844  11.853  22.384  0.00  0.00    +0.000 HD
BRANCH  19  25
ATOM     21  C   UNL     1      -5.044  13.585  23.164  0.00  0.00    +0.000 C 
ATOM     22  C   UNL     1      -3.588  13.384  22.869  0.00  0.00    +0.000 A 
ATOM     23  C   UNL     1      -2.847  14.369  22.221  0.00  0.00    +0.000 A 
ATOM     24  C   UNL     1      -1.508  14.144  21.900  0.00  0.00    +0.000 A 
ATOM     25  C   UNL     1      -0.854  12.949  22.235  0.00  0.00    +0.000 A 
ATOM     26  C   UNL     1      -1.599  11.973  22.911  0.00  0.00    +0.000 A 
ATOM     27  C   UNL     1      -2.952  12.187  23.218  0.00  0.00    +0.000 A 
ENDBRANCH  19  25
ENDBRANCH   1  19
BRANCH   3  28
ATOM     28  C   UNL     1       3.049  15.542  18.352  0.00  0.00    +0.000 C 
ATOM     29  O   UNL     1       2.403  16.392  17.745  0.00  0.00    +0.000 OA
BRANCH  28  30
ATOM     30  C   UNL     1       4.549  15.683  18.352  0.00  0.00    +0.000 A 
ATOM     31  C   UNL     1       5.152  16.838  18.873  0.00  0.00    +0.000 A 
ATOM     32  C   UNL     1       6.548  16.967  18.863  0.00  0.00    +0.000 A 
ATOM     33  C   UNL     1       7.336  15.938  18.354  0.00  0.00    +0.000 A 
ATOM     34  F   UNL     1       8.669  16.062  18.342  0.00  0.00    +0.000 F 
ATOM     35  C   UNL     1       6.758  14.787  17.842  0.00  0.00    +0.000 A 
ATOM     36  C   UNL     1       5.370  14.676  17.810  0.00  0.00    +0.000 A 
ENDBRANCH  28  30
ENDBRANCH   3  28
TORSDOF 7
ENDMDL
MODEL 8
REMARK VINA RESULT:      -7.6      4.712      8.436
REMARK  Name = 
REMARK  9 active torsions:
REMARK  status: ('A' for Active; 'I' for Inactive)
REMARK    1  A    between atoms: C_1  and  C_2
REMARK    2  A    between atoms: C_5  and  N_6
REMARK    3  A    between atoms: N_6  and  C_7
REMARK    4  A    between atoms: C_9  and  C_10
REMARK    5  A    between atoms: C_10  and  C_12
REMARK    6  A    between atoms: C_19  and  N_20
REMARK    7  A    between atoms: C_21  and  S_22
REMARK    8  A    between atoms: S_22  and  C_25
REMARK    9  A    between atoms: C_28  and  C_29
REMARK                            x       y       z     vdW  Elec       q    Type
REMARK                         _______ _______ _______ _____ _____    ______ ____
ROOT
ATOM      1  C   UNL     1      -0.829  12.724  22.023  0.00  0.00    +0.000 A 
ATOM      2  S   UNL     1      -0.505  14.356  22.427  0.00  0.00    +0.000 S 
ATOM      3  C   UNL     1       0.573  14.606  21.146  0.00  0.00    +0.000 A 
ATOM      4  C   UNL     1       0.763  13.438  20.430  0.00  0.00    +0.000 A 
ATOM      5  C   UNL     1      -0.031  12.342  20.950  0.00  0.00    +0.000 A 
ENDROOT
BRANCH   4   6
ATOM      6  N   UNL     1       1.618  13.385  19.378  0.00  0.00    +0.000 N 
ATOM      7  H   UNL     1       2.331  12.646  19.371  0.00  0.00    +0.000 HD
ATOM      8  H   UNL     1       2.005  14.240  18.976  0.00  0.00    +0.000 HD
ENDBRANCH   4   6
BRANCH   5   9
ATOM      9  S   UNL     1      -0.074  10.745  20.250  0.00  0.00    +0.000 S 
ATOM     10  O   UNL     1       1.260  10.515  19.713  0.00  0.00    +0.000 OA
ATOM     11  O   UNL     1      -0.619   9.917  21.305  0.00  0.00    +0.000 OA
BRANCH   9  12
ATOM     12  C   UNL     1      -1.201  10.719  18.884  0.00  0.00    +0.000 A 
ATOM     13  C   UNL     1      -2.317  11.558  18.875  0.00  0.00    +0.000 A 
ATOM     14  C   UNL     1      -3.212  11.505  17.799  0.00  0.00    +0.000 A 
ATOM     15  C   UNL     1      -2.978  10.651  16.711  0.00  0.00    +0.000 A 
ATOM     16  C   UNL     1      -3.941  10.581  15.558  0.00  0.00    +0.000 C 
ATOM     17  C   UNL     1      -1.824   9.858  16.706  0.00  0.00    +0.000 A 
ATOM     18  C   UNL     1      -0.934   9.893  17.783  0.00  0.00    +0.000 A 
ENDBRANCH   9  12
ENDBRANCH   5   9
BRANCH   1  19
ATOM     19  N   UNL     1      -1.725  11.993  22.771  0.00  0.00    +0.000 N 
ATOM     20  H   UNL     1      -1.587  10.978  22.810  0.00  0.00    +0.000 HD
BRANCH  19  25
ATOM     21  C   UNL     1      -7.242  13.427  23.605  0.00  0.00    +0.000 C 
ATOM     22  C   UNL     1      -5.817  13.014  23.396  0.00  0.00    +0.000 A 
ATOM     23  C   UNL     1      -5.020  12.628  24.471  0.00  0.00    +0.000 A 
ATOM     24  C   UNL     1      -3.678  12.303  24.269  0.00  0.00    +0.000 A 
ATOM     25  C   UNL     1      -3.091  12.323  22.996  0.00  0.00    +0.000 A 
ATOM     26  C   UNL     1      -3.906  12.687  21.916  0.00  0.00    +0.000 A 
ATOM     27  C   UNL     1      -5.252  13.034  22.115  0.00  0.00    +0.000 A 
ENDBRANCH  19  25
ENDBRANCH   1  19
BRANCH   3  28
ATOM     28  C   UNL     1       1.097  15.962  20.900  0.00  0.00    +0.000 C 
ATOM     29  O   UNL     1       1.798  16.560  21.710  0.00  0.00    +0.000 OA
BRANCH  28  30
ATOM     30  C   UNL     1       0.768  16.672  19.612  0.00  0.00    +0.000 A 
ATOM     31  C   UNL     1       1.796  17.146  18.782  0.00  0.00    +0.000 A 
ATOM     32  C   UNL     1       1.482  17.813  17.589  0.00  0.00    +0.000 A 
ATOM     33  C   UNL     1       0.151  17.986  17.220  0.00  0.00    +0.000 A 
ATOM     34  F   UNL     1      -0.148  18.625  16.082  0.00  0.00    +0.000 F 
ATOM     35  C   UNL     1      -0.876  17.518  18.024  0.00  0.00    +0.000 A 
ATOM     36  C   UNL     1      -0.568  16.895  19.231  0.00  0.00    +0.000 A 
ENDBRANCH  28  30
ENDBRANCH   3  28
TORSDOF 7
ENDMDL
MODEL 9
REMARK VINA RESULT:      -7.5      2.354      3.311
REMARK  Name = 
REMARK  9 active torsions:
REMARK  status: ('A' for Active; 'I' for Inactive)
REMARK    1  A    between atoms: C_1  and  C_2
REMARK    2  A    between atoms: C_5  and  N_6
REMARK    3  A    between atoms: N_6  and  C_7
REMARK    4  A    between atoms: C_9  and  C_10
REMARK    5  A    between atoms: C_10  and  C_12
REMARK    6  A    between atoms: C_19  and  N_20
REMARK    7  A    between atoms: C_21  and  S_22
REMARK    8  A    between atoms: S_22  and  C_25
REMARK    9  A    between atoms: C_28  and  C_29
REMARK                            x       y       z     vdW  Elec       q    Type
REMARK                         _______ _______ _______ _____ _____    ______ ____
ROOT
ATOM      1  C   UNL     1      -0.102  10.862  18.690  0.00  0.00    +0.000 A 
ATOM      2  S   UNL     1       0.313   9.260  18.252  0.00  0.00    +0.000 S 
ATOM      3  C   UNL     1       1.191   8.951  19.666  0.00  0.00    +0.000 A 
ATOM      4  C   UNL     1       1.248  10.080  20.464  0.00  0.00    +0.000 A 
ATOM      5  C   UNL     1       0.518  11.193  19.890  0.00  0.00    +0.000 A 
ENDROOT
BRANCH   4   6
ATOM      6  N   UNL     1       1.933  10.084  21.634  0.00  0.00    +0.000 N 
ATOM      7  H   UNL     1       1.900   9.239  22.218  0.00  0.00    +0.000 HD
ATOM      8  H   UNL     1       1.945  10.913  22.230  0.00  0.00    +0.000 HD
ENDBRANCH   4   6
BRANCH   5   9
ATOM      9  S   UNL     1       0.336  12.748  20.660  0.00  0.00    +0.000 S 
ATOM     10  O   UNL     1       1.537  12.930  21.464  0.00  0.00    +0.000 OA
ATOM     11  O   UNL     1       0.014  13.642  19.568  0.00  0.00    +0.000 OA
BRANCH   9  12
ATOM     12  C   UNL     1      -1.041  12.709  21.773  0.00  0.00    +0.000 A 
ATOM     13  C   UNL     1      -1.267  11.589  22.575  0.00  0.00    +0.000 A 
ATOM     14  C   UNL     1      -2.377  11.564  23.430  0.00  0.00    +0.000 A 
ATOM     15  C   UNL     1      -3.238  12.668  23.521  0.00  0.00    +0.000 A 
ATOM     16  C   UNL     1      -4.436  12.644  24.428  0.00  0.00    +0.000 C 
ATOM     17  C   UNL     1      -2.965  13.808  22.755  0.00  0.00    +0.000 A 
ATOM     18  C   UNL     1      -1.869  13.834  21.887  0.00  0.00    +0.000 A 
ENDBRANCH   9  12
ENDBRANCH   5   9
BRANCH   1  19
ATOM     19  N   UNL     1      -0.891  11.623  17.855  0.00  0.00    +0.000 N 
ATOM     20  H   UNL     1      -0.520  12.531  17.557  0.00  0.00    +0.000 HD
BRANCH  19  25
ATOM     21  C   UNL     1      -6.652  11.576  17.837  0.00  0.00    +0.000 C 
ATOM     22  C   UNL     1      -5.154  11.623  17.817  0.00  0.00    +0.000 A 
ATOM     23  C   UNL     1      -4.444  11.304  16.662  0.00  0.00    +0.000 A 
ATOM     24  C   UNL     1      -3.048  11.294  16.676  0.00  0.00    +0.000 A 
ATOM     25  C   UNL     1      -2.314  11.625  17.824  0.00  0.00    +0.000 A 
ATOM     26  C   UNL     1      -3.035  11.970  18.974  0.00  0.00    +0.000 A 
ATOM     27  C   UNL     1      -4.439  11.962  18.972  0.00  0.00    +0.000 A 
ENDBRANCH  19  25
ENDBRANCH   1  19
BRANCH   3  28
ATOM     28  C   UNL     1       1.701   7.591  19.916  0.00  0.00    +0.000 C 
ATOM     29  O   UNL     1       1.462   6.971  20.949  0.00  0.00    +0.000 OA
BRANCH  28  30
ATOM     30  C   UNL     1       2.563   6.910  18.884  0.00  0.00    +0.000 A 
ATOM     31  C   UNL     1       3.469   7.656  18.115  0.00  0.00    +0.000 A 
ATOM     32  C   UNL     1       4.263   7.018  17.151  0.00  0.00    +0.000 A 
ATOM     33  C   UNL     1       4.163   5.641  16.972  0.00  0.00    +0.000 A 
ATOM     34  F   UNL     1       4.919   5.032  16.050  0.00  0.00    +0.000 F 
ATOM     35  C   UNL     1       3.279   4.888  17.728  0.00  0.00    +0.000 A 
ATOM     36  C   UNL     1       2.458   5.526  18.654  0.00  0.00    +0.000 A 
ENDBRANCH  28  30
ENDBRANCH   3  28
TORSDOF 7
ENDMDL
