MODEL 1
REMARK VINA RESULT:      -7.7      0.000      0.000
REMARK  Name = 
REMARK  11 active torsions:
REMARK  status: ('A' for Active; 'I' for Inactive)
REMARK    1  A    between atoms: C_1  and  C_2
REMARK    2  A    between atoms: C_2  and  C_3
REMARK    3  A    between atoms: C_3  and  N_4
REMARK    4  A    between atoms: C_5  and  C_6
REMARK    5  A    between atoms: C_9  and  O_10
REMARK    6  A    between atoms: O_10  and  C_11
REMARK    7  A    between atoms: C_11  and  C_12
REMARK    8  A    between atoms: C_16  and  C_17
REMARK    9  A    between atoms: C_20  and  O_21
REMARK   10  A    between atoms: O_21  and  C_22
REMARK   11  A    between atoms: C_22  and  C_23
REMARK                            x       y       z     vdW  Elec       q    Type
REMARK                         _______ _______ _______ _____ _____    ______ ____
ROOT
ATOM      1  N   UNL     1       1.985   6.582  20.166  0.00  0.00    +0.000 N 
ATOM      2  C   UNL     1       2.638   6.840  18.943  0.00  0.00    +0.000 A 
ATOM      3  C   UNL     1       2.226   8.156  18.607  0.00  0.00    +0.000 A 
ATOM      4  C   UNL     1       2.613   9.071  17.488  0.00  0.00    +0.000 C 
ATOM      5  C   UNL     1       1.317   8.636  19.613  0.00  0.00    +0.000 A 
ATOM      6  C   UNL     1       0.604   9.848  19.795  0.00  0.00    +0.000 A 
ATOM      7  C   UNL     1      -0.151  10.046  20.961  0.00  0.00    +0.000 A 
ATOM      8  C   UNL     1      -0.195   9.076  21.948  0.00  0.00    +0.000 A 
ATOM      9  C   UNL     1       0.484   7.870  21.772  0.00  0.00    +0.000 A 
ATOM     10  C   UNL     1       1.224   7.664  20.589  0.00  0.00    +0.000 A 
ENDROOT
BRANCH   2  11
ATOM     11  C   UNL     1       3.636   5.922  18.253  0.00  0.00    +0.000 A 
ATOM     12  C   UNL     1       5.011   6.189  18.143  0.00  0.00    +0.000 A 
ATOM     13  C   UNL     1       5.890   5.428  17.361  0.00  0.00    +0.000 A 
ATOM     14  C   UNL     1       5.410   4.355  16.638  0.00  0.00    +0.000 A 
ATOM     15  C   UNL     1       4.082   3.994  16.763  0.00  0.00    +0.000 A 
ATOM     16  C   UNL     1       3.229   4.744  17.600  0.00  0.00    +0.000 A 
BRANCH  14  17
ATOM     17  O   UNL     1       6.326   3.781  15.739  0.00  0.00    +0.000 OA
BRANCH  17  18
ATOM     18  C   UNL     1       6.787   4.426  14.595  0.00  0.00    +0.000 C 
ATOM     19  C   UNL     1       6.097   3.827  13.405  0.00  0.00    +0.000 C 
ATOM     20  O   UNL     1       7.628   5.311  14.535  0.00  0.00    +0.000 OA
ENDBRANCH  17  18
ENDBRANCH  14  17
ENDBRANCH   2  11
BRANCH   1  21
ATOM     21  C   UNL     1       2.082   5.405  21.025  0.00  0.00    +0.000 C 
BRANCH  21  23
ATOM     22  C   UNL     1       1.739   2.935  20.588  0.00  0.00    +0.000 C 
ATOM     23  C   UNL     1       1.107   4.314  20.569  0.00  0.00    +0.000 C 
ENDBRANCH  21  23
ENDBRANCH   1  21
BRANCH   7  24
ATOM     24  O   UNL     1      -0.838  11.287  21.034  0.00  0.00    +0.000 OA
BRANCH  24  25
ATOM     25  C   UNL     1      -1.222  11.957  22.202  0.00  0.00    +0.000 C 
ATOM     26  C   UNL     1      -2.661  12.363  22.090  0.00  0.00    +0.000 C 
ATOM     27  O   UNL     1      -0.539  12.165  23.196  0.00  0.00    +0.000 OA
ENDBRANCH  24  25
ENDBRANCH   7  24
TORSDOF 7
ENDMDL
MODEL 2
REMARK VINA RESULT:      -7.6      0.815      1.081
REMARK  Name = 
REMARK  11 active torsions:
REMARK  status: ('A' for Active; 'I' for Inactive)
REMARK    1  A    between atoms: C_1  and  C_2
REMARK    2  A    between atoms: C_2  and  C_3
REMARK    3  A    between atoms: C_3  and  N_4
REMARK    4  A    between atoms: C_5  and  C_6
REMARK    5  A    between atoms: C_9  and  O_10
REMARK    6  A    between atoms: O_10  and  C_11
REMARK    7  A    between atoms: C_11  and  C_12
REMARK    8  A    between atoms: C_16  and  C_17
REMARK    9  A    between atoms: C_20  and  O_21
REMARK   10  A    between atoms: O_21  and  C_22
REMARK   11  A    between atoms: C_22  and  C_23
REMARK                            x       y       z     vdW  Elec       q    Type
REMARK                         _______ _______ _______ _____ _____    ______ ____
ROOT
ATOM      1  N   UNL     1       2.024   6.493  20.120  0.00  0.00    +0.000 N 
ATOM      2  C   UNL     1       2.672   6.771  18.899  0.00  0.00    +0.000 A 
ATOM      3  C   UNL     1       2.248   8.087  18.580  0.00  0.00    +0.000 A 
ATOM      4  C   UNL     1       2.624   9.019  17.471  0.00  0.00    +0.000 C 
ATOM      5  C   UNL     1       1.337   8.547  19.594  0.00  0.00    +0.000 A 
ATOM      6  C   UNL     1       0.614   9.751  19.792  0.00  0.00    +0.000 A 
ATOM      7  C   UNL     1      -0.139   9.929  20.962  0.00  0.00    +0.000 A 
ATOM      8  C   UNL     1      -0.172   8.947  21.938  0.00  0.00    +0.000 A 
ATOM      9  C   UNL     1       0.516   7.748  21.745  0.00  0.00    +0.000 A 
ATOM     10  C   UNL     1       1.255   7.563  20.558  0.00  0.00    +0.000 A 
ENDROOT
BRANCH   2  11
ATOM     11  C   UNL     1       3.676   5.870  18.196  0.00  0.00    +0.000 A 
ATOM     12  C   UNL     1       5.041   6.172  18.046  0.00  0.00    +0.000 A 
ATOM     13  C   UNL     1       5.919   5.424  17.252  0.00  0.00    +0.000 A 
ATOM     14  C   UNL     1       5.450   4.327  16.556  0.00  0.00    +0.000 A 
ATOM     15  C   UNL     1       4.135   3.934  16.721  0.00  0.00    +0.000 A 
ATOM     16  C   UNL     1       3.285   4.673  17.569  0.00  0.00    +0.000 A 
BRANCH  14  17
ATOM     17  O   UNL     1       6.357   3.765  15.641  0.00  0.00    +0.000 OA
BRANCH  17  18
ATOM     18  C   UNL     1       6.771   4.407  14.477  0.00  0.00    +0.000 C 
ATOM     19  C   UNL     1       6.038   3.799  13.318  0.00  0.00    +0.000 C 
ATOM     20  O   UNL     1       7.607   5.295  14.381  0.00  0.00    +0.000 OA
ENDBRANCH  17  18
ENDBRANCH  14  17
ENDBRANCH   2  11
BRANCH   1  21
ATOM     21  C   UNL     1       2.134   5.307  20.966  0.00  0.00    +0.000 C 
BRANCH  21  23
ATOM     22  C   UNL     1       1.354   2.915  21.254  0.00  0.00    +0.000 C 
ATOM     23  C   UNL     1       1.142   4.226  20.521  0.00  0.00    +0.000 C 
ENDBRANCH  21  23
ENDBRANCH   1  21
BRANCH   7  24
ATOM     24  O   UNL     1      -0.837  11.163  21.052  0.00  0.00    +0.000 OA
BRANCH  24  25
ATOM     25  C   UNL     1      -0.490  12.360  20.416  0.00  0.00    +0.000 C 
ATOM     26  C   UNL     1       0.536  13.080  21.240  0.00  0.00    +0.000 C 
ATOM     27  O   UNL     1      -0.902  12.775  19.340  0.00  0.00    +0.000 OA
ENDBRANCH  24  25
ENDBRANCH   7  24
TORSDOF 7
ENDMDL
MODEL 3
REMARK VINA RESULT:      -7.4      1.049      8.621
REMARK  Name = 
REMARK  11 active torsions:
REMARK  status: ('A' for Active; 'I' for Inactive)
REMARK    1  A    between atoms: C_1  and  C_2
REMARK    2  A    between atoms: C_2  and  C_3
REMARK    3  A    between atoms: C_3  and  N_4
REMARK    4  A    between atoms: C_5  and  C_6
REMARK    5  A    between atoms: C_9  and  O_10
REMARK    6  A    between atoms: O_10  and  C_11
REMARK    7  A    between atoms: C_11  and  C_12
REMARK    8  A    between atoms: C_16  and  C_17
REMARK    9  A    between atoms: C_20  and  O_21
REMARK   10  A    between atoms: O_21  and  C_22
REMARK   11  A    between atoms: C_22  and  C_23
REMARK                            x       y       z     vdW  Elec       q    Type
REMARK                         _______ _______ _______ _____ _____    ______ ____
ROOT
ATOM      1  N   UNL     1       2.518   5.875  19.937  0.00  0.00    +0.000 N 
ATOM      2  C   UNL     1       2.339   7.239  19.628  0.00  0.00    +0.000 A 
ATOM      3  C   UNL     1       3.000   7.397  18.383  0.00  0.00    +0.000 A 
ATOM      4  C   UNL     1       3.120   8.564  17.454  0.00  0.00    +0.000 C 
ATOM      5  C   UNL     1       3.584   6.140  17.997  0.00  0.00    +0.000 A 
ATOM      6  C   UNL     1       4.345   5.713  16.880  0.00  0.00    +0.000 A 
ATOM      7  C   UNL     1       4.696   4.360  16.750  0.00  0.00    +0.000 A 
ATOM      8  C   UNL     1       4.292   3.431  17.693  0.00  0.00    +0.000 A 
ATOM      9  C   UNL     1       3.562   3.842  18.809  0.00  0.00    +0.000 A 
ATOM     10  C   UNL     1       3.229   5.206  18.949  0.00  0.00    +0.000 A 
ENDROOT
BRANCH   2  11
ATOM     11  C   UNL     1       1.514   8.234  20.430  0.00  0.00    +0.000 A 
ATOM     12  C   UNL     1       1.643   8.433  21.816  0.00  0.00    +0.000 A 
ATOM     13  C   UNL     1       0.767   9.222  22.572  0.00  0.00    +0.000 A 
ATOM     14  C   UNL     1      -0.300   9.845  21.957  0.00  0.00    +0.000 A 
ATOM     15  C   UNL     1      -0.439   9.749  20.585  0.00  0.00    +0.000 A 
ATOM     16  C   UNL     1       0.488   8.994  19.839  0.00  0.00    +0.000 A 
BRANCH  14  17
ATOM     17  O   UNL     1      -1.226  10.446  22.827  0.00  0.00    +0.000 OA
BRANCH  17  18
ATOM     18  C   UNL     1      -1.345  11.824  22.990  0.00  0.00    +0.000 C 
ATOM     19  C   UNL     1      -2.777  12.140  23.302  0.00  0.00    +0.000 C 
ATOM     20  O   UNL     1      -0.459  12.659  22.875  0.00  0.00    +0.000 OA
ENDBRANCH  17  18
ENDBRANCH  14  17
ENDBRANCH   2  11
BRANCH   1  21
ATOM     21  C   UNL     1       1.997   5.116  21.071  0.00  0.00    +0.000 C 
BRANCH  21  23
ATOM     22  C   UNL     1       1.275   2.710  21.391  0.00  0.00    +0.000 C 
ATOM     23  C   UNL     1       1.077   3.986  20.595  0.00  0.00    +0.000 C 
ENDBRANCH  21  23
ENDBRANCH   1  21
BRANCH   7  24
ATOM     24  O   UNL     1       5.472   4.044  15.603  0.00  0.00    +0.000 OA
BRANCH  24  25
ATOM     25  C   UNL     1       6.768   4.495  15.327  0.00  0.00    +0.000 C 
ATOM     26  C   UNL     1       6.879   4.822  13.867  0.00  0.00    +0.000 C 
ATOM     27  O   UNL     1       7.684   4.652  16.124  0.00  0.00    +0.000 OA
ENDBRANCH  24  25
ENDBRANCH   7  24
TORSDOF 7
ENDMDL
MODEL 4
REMARK VINA RESULT:      -7.4      0.943      1.258
REMARK  Name = 
REMARK  11 active torsions:
REMARK  status: ('A' for Active; 'I' for Inactive)
REMARK    1  A    between atoms: C_1  and  C_2
REMARK    2  A    between atoms: C_2  and  C_3
REMARK    3  A    between atoms: C_3  and  N_4
REMARK    4  A    between atoms: C_5  and  C_6
REMARK    5  A    between atoms: C_9  and  O_10
REMARK    6  A    between atoms: O_10  and  C_11
REMARK    7  A    between atoms: C_11  and  C_12
REMARK    8  A    between atoms: C_16  and  C_17
REMARK    9  A    between atoms: C_20  and  O_21
REMARK   10  A    between atoms: O_21  and  C_22
REMARK   11  A    between atoms: C_22  and  C_23
REMARK                            x       y       z     vdW  Elec       q    Type
REMARK                         _______ _______ _______ _____ _____    ______ ____
ROOT
ATOM      1  N   UNL     1       1.870   7.058  20.162  0.00  0.00    +0.000 N 
ATOM      2  C   UNL     1       2.308   7.466  18.885  0.00  0.00    +0.000 A 
ATOM      3  C   UNL     1       1.817   8.791  18.763  0.00  0.00    +0.000 A 
ATOM      4  C   UNL     1       1.993   9.831  17.701  0.00  0.00    +0.000 C 
ATOM      5  C   UNL     1       1.073   9.129  19.948  0.00  0.00    +0.000 A 
ATOM      6  C   UNL     1       0.372  10.287  20.371  0.00  0.00    +0.000 A 
ATOM      7  C   UNL     1      -0.186  10.334  21.657  0.00  0.00    +0.000 A 
ATOM      8  C   UNL     1      -0.045   9.268  22.528  0.00  0.00    +0.000 A 
ATOM      9  C   UNL     1       0.623   8.114  22.117  0.00  0.00    +0.000 A 
ATOM     10  C   UNL     1       1.164   8.060  20.815  0.00  0.00    +0.000 A 
ENDROOT
BRANCH   2  11
ATOM     11  C   UNL     1       3.200   6.664  17.950  0.00  0.00    +0.000 A 
ATOM     12  C   UNL     1       3.108   5.273  17.769  0.00  0.00    +0.000 A 
ATOM     13  C   UNL     1       4.040   4.522  17.041  0.00  0.00    +0.000 A 
ATOM     14  C   UNL     1       5.127   5.148  16.464  0.00  0.00    +0.000 A 
ATOM     15  C   UNL     1       5.234   6.524  16.542  0.00  0.00    +0.000 A 
ATOM     16  C   UNL     1       4.253   7.264  17.234  0.00  0.00    +0.000 A 
BRANCH  14  17
ATOM     17  O   UNL     1       6.100   4.287  15.928  0.00  0.00    +0.000 OA
BRANCH  17  18
ATOM     18  C   UNL     1       6.805   4.558  14.759  0.00  0.00    +0.000 C 
ATOM     19  C   UNL     1       6.151   3.816  13.631  0.00  0.00    +0.000 C 
ATOM     20  O   UNL     1       7.806   5.252  14.645  0.00  0.00    +0.000 OA
ENDBRANCH  17  18
ENDBRANCH  14  17
ENDBRANCH   2  11
BRANCH   1  21
ATOM     21  C   UNL     1       2.134   5.805  20.864  0.00  0.00    +0.000 C 
BRANCH  21  23
ATOM     22  C   UNL     1       1.474   3.363  20.986  0.00  0.00    +0.000 C 
ATOM     23  C   UNL     1       1.083   4.748  20.506  0.00  0.00    +0.000 C 
ENDBRANCH  21  23
ENDBRANCH   1  21
BRANCH   7  24
ATOM     24  O   UNL     1      -0.880  11.533  21.972  0.00  0.00    +0.000 OA
BRANCH  24  25
ATOM     25  C   UNL     1      -0.481  12.834  21.645  0.00  0.00    +0.000 C 
ATOM     26  C   UNL     1      -1.523  13.468  20.772  0.00  0.00    +0.000 C 
ATOM     27  O   UNL     1       0.528  13.417  22.022  0.00  0.00    +0.000 OA
ENDBRANCH  24  25
ENDBRANCH   7  24
TORSDOF 7
ENDMDL
MODEL 5
REMARK VINA RESULT:      -7.3      1.158      8.706
REMARK  Name = 
REMARK  11 active torsions:
REMARK  status: ('A' for Active; 'I' for Inactive)
REMARK    1  A    between atoms: C_1  and  C_2
REMARK    2  A    between atoms: C_2  and  C_3
REMARK    3  A    between atoms: C_3  and  N_4
REMARK    4  A    between atoms: C_5  and  C_6
REMARK    5  A    between atoms: C_9  and  O_10
REMARK    6  A    between atoms: O_10  and  C_11
REMARK    7  A    between atoms: C_11  and  C_12
REMARK    8  A    between atoms: C_16  and  C_17
REMARK    9  A    between atoms: C_20  and  O_21
REMARK   10  A    between atoms: O_21  and  C_22
REMARK   11  A    between atoms: C_22  and  C_23
REMARK                            x       y       z     vdW  Elec       q    Type
REMARK                         _______ _______ _______ _____ _____    ______ ____
ROOT
ATOM      1  N   UNL     1       2.389   6.518  19.883  0.00  0.00    +0.000 N 
ATOM      2  C   UNL     1       1.970   7.856  19.730  0.00  0.00    +0.000 A 
ATOM      3  C   UNL     1       2.532   8.249  18.488  0.00  0.00    +0.000 A 
ATOM      4  C   UNL     1       2.408   9.508  17.687  0.00  0.00    +0.000 C 
ATOM      5  C   UNL     1       3.295   7.155  17.948  0.00  0.00    +0.000 A 
ATOM      6  C   UNL     1       4.057   6.979  16.766  0.00  0.00    +0.000 A 
ATOM      7  C   UNL     1       4.620   5.726  16.478  0.00  0.00    +0.000 A 
ATOM      8  C   UNL     1       4.425   4.651  17.329  0.00  0.00    +0.000 A 
ATOM      9  C   UNL     1       3.695   4.817  18.507  0.00  0.00    +0.000 A 
ATOM     10  C   UNL     1       3.149   6.083  18.805  0.00  0.00    +0.000 A 
ENDROOT
BRANCH   2  11
ATOM     11  C   UNL     1       1.035   8.610  20.663  0.00  0.00    +0.000 A 
ATOM     12  C   UNL     1       0.093   9.563  20.238  0.00  0.00    +0.000 A 
ATOM     13  C   UNL     1      -0.641  10.373  21.113  0.00  0.00    +0.000 A 
ATOM     14  C   UNL     1      -0.446  10.264  22.475  0.00  0.00    +0.000 A 
ATOM     15  C   UNL     1       0.411   9.294  22.960  0.00  0.00    +0.000 A 
ATOM     16  C   UNL     1       1.097   8.453  22.060  0.00  0.00    +0.000 A 
BRANCH  14  17
ATOM     17  O   UNL     1      -1.080  11.250  23.252  0.00  0.00    +0.000 OA
BRANCH  17  18
ATOM     18  C   UNL     1      -1.816  12.300  22.710  0.00  0.00    +0.000 C 
ATOM     19  C   UNL     1      -0.995  13.551  22.810  0.00  0.00    +0.000 C 
ATOM     20  O   UNL     1      -2.949  12.247  22.253  0.00  0.00    +0.000 OA
ENDBRANCH  17  18
ENDBRANCH  14  17
ENDBRANCH   2  11
BRANCH   1  21
ATOM     21  C   UNL     1       2.061   5.571  20.945  0.00  0.00    +0.000 C 
BRANCH  21  23
ATOM     22  C   UNL     1       1.297   3.157  20.996  0.00  0.00    +0.000 C 
ATOM     23  C   UNL     1       1.022   4.551  20.464  0.00  0.00    +0.000 C 
ENDBRANCH  21  23
ENDBRANCH   1  21
BRANCH   7  24
ATOM     24  O   UNL     1       5.378   5.664  15.278  0.00  0.00    +0.000 OA
BRANCH  24  25
ATOM     25  C   UNL     1       6.494   4.853  15.042  0.00  0.00    +0.000 C 
ATOM     26  C   UNL     1       6.197   3.919  13.907  0.00  0.00    +0.000 C 
ATOM     27  O   UNL     1       7.574   4.893  15.617  0.00  0.00    +0.000 OA
ENDBRANCH  24  25
ENDBRANCH   7  24
TORSDOF 7
ENDMDL
MODEL 6
REMARK VINA RESULT:      -7.3      1.055      8.538
REMARK  Name = 
REMARK  11 active torsions:
REMARK  status: ('A' for Active; 'I' for Inactive)
REMARK    1  A    between atoms: C_1  and  C_2
REMARK    2  A    between atoms: C_2  and  C_3
REMARK    3  A    between atoms: C_3  and  N_4
REMARK    4  A    between atoms: C_5  and  C_6
REMARK    5  A    between atoms: C_9  and  O_10
REMARK    6  A    between atoms: O_10  and  C_11
REMARK    7  A    between atoms: C_11  and  C_12
REMARK    8  A    between atoms: C_16  and  C_17
REMARK    9  A    between atoms: C_20  and  O_21
REMARK   10  A    between atoms: O_21  and  C_22
REMARK   11  A    between atoms: C_22  and  C_23
REMARK                            x       y       z     vdW  Elec       q    Type
REMARK                         _______ _______ _______ _____ _____    ______ ____
ROOT
ATOM      1  N   UNL     1       2.359   6.173  19.915  0.00  0.00    +0.000 N 
ATOM      2  C   UNL     1       2.077   7.534  19.677  0.00  0.00    +0.000 A 
ATOM      3  C   UNL     1       2.748   7.814  18.459  0.00  0.00    +0.000 A 
ATOM      4  C   UNL     1       2.791   9.037  17.598  0.00  0.00    +0.000 C 
ATOM      5  C   UNL     1       3.437   6.630  18.018  0.00  0.00    +0.000 A 
ATOM      6  C   UNL     1       4.252   6.328  16.898  0.00  0.00    +0.000 A 
ATOM      7  C   UNL     1       4.712   5.017  16.702  0.00  0.00    +0.000 A 
ATOM      8  C   UNL     1       4.365   4.007  17.584  0.00  0.00    +0.000 A 
ATOM      9  C   UNL     1       3.583   4.296  18.703  0.00  0.00    +0.000 A 
ATOM     10  C   UNL     1       3.140   5.619  18.909  0.00  0.00    +0.000 A 
ENDROOT
BRANCH   2  11
ATOM     11  C   UNL     1       1.160   8.414  20.513  0.00  0.00    +0.000 A 
ATOM     12  C   UNL     1       0.228   9.320  19.976  0.00  0.00    +0.000 A 
ATOM     13  C   UNL     1      -0.486  10.246  20.747  0.00  0.00    +0.000 A 
ATOM     14  C   UNL     1      -0.282  10.307  22.111  0.00  0.00    +0.000 A 
ATOM     15  C   UNL     1       0.565   9.393  22.709  0.00  0.00    +0.000 A 
ATOM     16  C   UNL     1       1.231   8.435  21.918  0.00  0.00    +0.000 A 
BRANCH  14  17
ATOM     17  O   UNL     1      -0.895  11.393  22.760  0.00  0.00    +0.000 OA
BRANCH  17  18
ATOM     18  C   UNL     1      -0.766  12.713  22.339  0.00  0.00    +0.000 C 
ATOM     19  C   UNL     1      -2.138  13.264  22.089  0.00  0.00    +0.000 C 
ATOM     20  O   UNL     1       0.274  13.334  22.165  0.00  0.00    +0.000 OA
ENDBRANCH  17  18
ENDBRANCH  14  17
ENDBRANCH   2  11
BRANCH   1  21
ATOM     21  C   UNL     1       1.879   5.313  20.993  0.00  0.00    +0.000 C 
BRANCH  21  23
ATOM     22  C   UNL     1       1.207   2.875  21.115  0.00  0.00    +0.000 C 
ATOM     23  C   UNL     1       0.960   4.214  20.447  0.00  0.00    +0.000 C 
ENDBRANCH  21  23
ENDBRANCH   1  21
BRANCH   7  24
ATOM     24  O   UNL     1       5.533   4.828  15.559  0.00  0.00    +0.000 OA
BRANCH  24  25
ATOM     25  C   UNL     1       6.921   4.996  15.496  0.00  0.00    +0.000 C 
ATOM     26  C   UNL     1       7.532   4.570  16.798  0.00  0.00    +0.000 C 
ATOM     27  O   UNL     1       7.578   5.387  14.540  0.00  0.00    +0.000 OA
ENDBRANCH  24  25
ENDBRANCH   7  24
TORSDOF 7
ENDMDL
MODEL 7
REMARK VINA RESULT:      -7.2      1.013      8.561
REMARK  Name = 
REMARK  11 active torsions:
REMARK  status: ('A' for Active; 'I' for Inactive)
REMARK    1  A    between atoms: C_1  and  C_2
REMARK    2  A    between atoms: C_2  and  C_3
REMARK    3  A    between atoms: C_3  and  N_4
REMARK    4  A    between atoms: C_5  and  C_6
REMARK    5  A    between atoms: C_9  and  O_10
REMARK    6  A    between atoms: O_10  and  C_11
REMARK    7  A    between atoms: C_11  and  C_12
REMARK    8  A    between atoms: C_16  and  C_17
REMARK    9  A    between atoms: C_20  and  O_21
REMARK   10  A    between atoms: O_21  and  C_22
REMARK   11  A    between atoms: C_22  and  C_23
REMARK                            x       y       z     vdW  Elec       q    Type
REMARK                         _______ _______ _______ _____ _____    ______ ____
ROOT
ATOM      1  N   UNL     1       2.352   5.515  19.304  0.00  0.00    +0.000 N 
ATOM      2  C   UNL     1       2.520   6.904  19.130  0.00  0.00    +0.000 A 
ATOM      3  C   UNL     1       3.495   7.004  18.105  0.00  0.00    +0.000 A 
ATOM      4  C   UNL     1       4.068   8.181  17.378  0.00  0.00    +0.000 C 
ATOM      5  C   UNL     1       3.908   5.681  17.717  0.00  0.00    +0.000 A 
ATOM      6  C   UNL     1       4.834   5.180  16.767  0.00  0.00    +0.000 A 
ATOM      7  C   UNL     1       4.942   3.796  16.560  0.00  0.00    +0.000 A 
ATOM      8  C   UNL     1       4.141   2.912  17.262  0.00  0.00    +0.000 A 
ATOM      9  C   UNL     1       3.242   3.390  18.216  0.00  0.00    +0.000 A 
ATOM     10  C   UNL     1       3.150   4.780  18.438  0.00  0.00    +0.000 A 
ENDROOT
BRANCH   2  11
ATOM     11  C   UNL     1       1.722   7.994  19.830  0.00  0.00    +0.000 A 
ATOM     12  C   UNL     1       1.244   9.155  19.197  0.00  0.00    +0.000 A 
ATOM     13  C   UNL     1       0.663  10.229  19.882  0.00  0.00    +0.000 A 
ATOM     14  C   UNL     1       0.546  10.184  21.257  0.00  0.00    +0.000 A 
ATOM     15  C   UNL     1       0.928   9.039  21.930  0.00  0.00    +0.000 A 
ATOM     16  C   UNL     1       1.460   7.949  21.212  0.00  0.00    +0.000 A 
BRANCH  14  17
ATOM     17  O   UNL     1       0.134  11.384  21.863  0.00  0.00    +0.000 OA
BRANCH  17  18
ATOM     18  C   UNL     1      -1.182  11.837  21.853  0.00  0.00    +0.000 C 
ATOM     19  C   UNL     1      -1.804  11.506  23.178  0.00  0.00    +0.000 C 
ATOM     20  O   UNL     1      -1.767  12.386  20.930  0.00  0.00    +0.000 OA
ENDBRANCH  17  18
ENDBRANCH  14  17
ENDBRANCH   2  11
BRANCH   1  21
ATOM     21  C   UNL     1       1.424   4.808  20.183  0.00  0.00    +0.000 C 
BRANCH  21  23
ATOM     22  C   UNL     1       1.738   2.762  21.642  0.00  0.00    +0.000 C 
ATOM     23  C   UNL     1       2.164   4.194  21.377  0.00  0.00    +0.000 C 
ENDBRANCH  21  23
ENDBRANCH   1  21
BRANCH   7  24
ATOM     24  O   UNL     1       5.911   3.402  15.599  0.00  0.00    +0.000 OA
BRANCH  24  25
ATOM     25  C   UNL     1       6.508   4.224  14.637  0.00  0.00    +0.000 C 
ATOM     26  C   UNL     1       5.908   3.931  13.294  0.00  0.00    +0.000 C 
ATOM     27  O   UNL     1       7.359   5.085  14.822  0.00  0.00    +0.000 OA
ENDBRANCH  24  25
ENDBRANCH   7  24
TORSDOF 7
ENDMDL
MODEL 8
REMARK VINA RESULT:      -7.0      1.119      8.628
REMARK  Name = 
REMARK  11 active torsions:
REMARK  status: ('A' for Active; 'I' for Inactive)
REMARK    1  A    between atoms: C_1  and  C_2
REMARK    2  A    between atoms: C_2  and  C_3
REMARK    3  A    between atoms: C_3  and  N_4
REMARK    4  A    between atoms: C_5  and  C_6
REMARK    5  A    between atoms: C_9  and  O_10
REMARK    6  A    between atoms: O_10  and  C_11
REMARK    7  A    between atoms: C_11  and  C_12
REMARK    8  A    between atoms: C_16  and  C_17
REMARK    9  A    between atoms: C_20  and  O_21
REMARK   10  A    between atoms: O_21  and  C_22
REMARK   11  A    between atoms: C_22  and  C_23
REMARK                            x       y       z     vdW  Elec       q    Type
REMARK                         _______ _______ _______ _____ _____    ______ ____
ROOT
ATOM      1  N   UNL     1       2.163   5.722  19.559  0.00  0.00    +0.000 N 
ATOM      2  C   UNL     1       2.276   7.113  19.352  0.00  0.00    +0.000 A 
ATOM      3  C   UNL     1       3.145   7.221  18.236  0.00  0.00    +0.000 A 
ATOM      4  C   UNL     1       3.613   8.401  17.442  0.00  0.00    +0.000 C 
ATOM      5  C   UNL     1       3.554   5.903  17.827  0.00  0.00    +0.000 A 
ATOM      6  C   UNL     1       4.396   5.411  16.798  0.00  0.00    +0.000 A 
ATOM      7  C   UNL     1       4.521   4.028  16.600  0.00  0.00    +0.000 A 
ATOM      8  C   UNL     1       3.816   3.134  17.387  0.00  0.00    +0.000 A 
ATOM      9  C   UNL     1       3.000   3.604  18.418  0.00  0.00    +0.000 A 
ATOM     10  C   UNL     1       2.893   4.995  18.629  0.00  0.00    +0.000 A 
ENDROOT
BRANCH   2  11
ATOM     11  C   UNL     1       1.521   8.192  20.112  0.00  0.00    +0.000 A 
ATOM     12  C   UNL     1       0.857   9.271  19.502  0.00  0.00    +0.000 A 
ATOM     13  C   UNL     1       0.314  10.350  20.212  0.00  0.00    +0.000 A 
ATOM     14  C   UNL     1       0.427  10.393  21.587  0.00  0.00    +0.000 A 
ATOM     15  C   UNL     1       1.002   9.326  22.252  0.00  0.00    +0.000 A 
ATOM     16  C   UNL     1       1.493   8.227  21.518  0.00  0.00    +0.000 A 
BRANCH  14  17
ATOM     17  O   UNL     1       0.027  11.601  22.184  0.00  0.00    +0.000 OA
BRANCH  17  18
ATOM     18  C   UNL     1      -1.145  11.744  22.921  0.00  0.00    +0.000 C 
ATOM     19  C   UNL     1      -1.389  13.207  23.141  0.00  0.00    +0.000 C 
ATOM     20  O   UNL     1      -1.858  10.849  23.353  0.00  0.00    +0.000 OA
ENDBRANCH  17  18
ENDBRANCH  14  17
ENDBRANCH   2  11
BRANCH   1  21
ATOM     21  C   UNL     1       1.343   5.005  20.533  0.00  0.00    +0.000 C 
BRANCH  21  23
ATOM     22  C   UNL     1       1.725   2.792  21.702  0.00  0.00    +0.000 C 
ATOM     23  C   UNL     1       2.222   4.212  21.507  0.00  0.00    +0.000 C 
ENDBRANCH  21  23
ENDBRANCH   1  21
BRANCH   7  24
ATOM     24  O   UNL     1       5.402   3.643  15.554  0.00  0.00    +0.000 OA
BRANCH  24  25
ATOM     25  C   UNL     1       6.575   4.305  15.171  0.00  0.00    +0.000 C 
ATOM     26  C   UNL     1       7.453   4.492  16.373  0.00  0.00    +0.000 C 
ATOM     27  O   UNL     1       6.893   4.657  14.043  0.00  0.00    +0.000 OA
ENDBRANCH  24  25
ENDBRANCH   7  24
TORSDOF 7
ENDMDL
MODEL 9
REMARK VINA RESULT:      -6.9      1.020      1.135
REMARK  Name = 
REMARK  11 active torsions:
REMARK  status: ('A' for Active; 'I' for Inactive)
REMARK    1  A    between atoms: C_1  and  C_2
REMARK    2  A    between atoms: C_2  and  C_3
REMARK    3  A    between atoms: C_3  and  N_4
REMARK    4  A    between atoms: C_5  and  C_6
REMARK    5  A    between atoms: C_9  and  O_10
REMARK    6  A    between atoms: O_10  and  C_11
REMARK    7  A    between atoms: C_11  and  C_12
REMARK    8  A    between atoms: C_16  and  C_17
REMARK    9  A    between atoms: C_20  and  O_21
REMARK   10  A    between atoms: O_21  and  C_22
REMARK   11  A    between atoms: C_22  and  C_23
REMARK                            x       y       z     vdW  Elec       q    Type
REMARK                         _______ _______ _______ _____ _____    ______ ____
ROOT
ATOM      1  N   UNL     1       1.796   7.077  20.221  0.00  0.00    +0.000 N 
ATOM      2  C   UNL     1       2.355   7.389  18.964  0.00  0.00    +0.000 A 
ATOM      3  C   UNL     1       1.909   8.711  18.710  0.00  0.00    +0.000 A 
ATOM      4  C   UNL     1       2.204   9.673  17.601  0.00  0.00    +0.000 C 
ATOM      5  C   UNL     1       1.072   9.143  19.798  0.00  0.00    +0.000 A 
ATOM      6  C   UNL     1       0.364  10.339  20.078  0.00  0.00    +0.000 A 
ATOM      7  C   UNL     1      -0.304  10.485  21.304  0.00  0.00    +0.000 A 
ATOM      8  C   UNL     1      -0.267   9.478  22.253  0.00  0.00    +0.000 A 
ATOM      9  C   UNL     1       0.407   8.287  21.981  0.00  0.00    +0.000 A 
ATOM     10  C   UNL     1       1.060   8.134  20.740  0.00  0.00    +0.000 A 
ENDROOT
BRANCH   2  11
ATOM     11  C   UNL     1       3.307   6.509  18.168  0.00  0.00    +0.000 A 
ATOM     12  C   UNL     1       4.465   6.977  17.524  0.00  0.00    +0.000 A 
ATOM     13  C   UNL     1       5.239   6.197  16.654  0.00  0.00    +0.000 A 
ATOM     14  C   UNL     1       4.866   4.895  16.384  0.00  0.00    +0.000 A 
ATOM     15  C   UNL     1       3.780   4.352  17.045  0.00  0.00    +0.000 A 
ATOM     16  C   UNL     1       3.050   5.141  17.957  0.00  0.00    +0.000 A 
BRANCH  14  17
ATOM     17  O   UNL     1       5.589   4.266  15.356  0.00  0.00    +0.000 OA
BRANCH  17  18
ATOM     18  C   UNL     1       6.933   4.519  15.095  0.00  0.00    +0.000 C 
ATOM     19  C   UNL     1       7.090   4.760  13.623  0.00  0.00    +0.000 C 
ATOM     20  O   UNL     1       7.853   4.522  15.901  0.00  0.00    +0.000 OA
ENDBRANCH  17  18
ENDBRANCH  14  17
ENDBRANCH   2  11
BRANCH   1  21
ATOM     21  C   UNL     1       1.966   5.870  21.025  0.00  0.00    +0.000 C 
BRANCH  21  23
ATOM     22  C   UNL     1       1.452   3.391  21.049  0.00  0.00    +0.000 C 
ATOM     23  C   UNL     1       1.029   4.757  20.544  0.00  0.00    +0.000 C 
ENDBRANCH  21  23
ENDBRANCH   1  21
BRANCH   7  24
ATOM     24  O   UNL     1      -0.994  11.715  21.474  0.00  0.00    +0.000 OA
BRANCH  24  25
ATOM     25  C   UNL     1      -1.344  12.618  20.464  0.00  0.00    +0.000 C 
ATOM     26  C   UNL     1      -2.746  12.338  20.012  0.00  0.00    +0.000 C 
ATOM     27  O   UNL     1      -0.662  13.531  20.017  0.00  0.00    +0.000 OA
ENDBRANCH  24  25
ENDBRANCH   7  24
TORSDOF 7
ENDMDL
