MODEL 1
REMARK VINA RESULT:      -7.7      0.000      0.000
REMARK  Name = 
REMARK  6 active torsions:
REMARK  status: ('A' for Active; 'I' for Inactive)
REMARK    1  A    between atoms: C_1  and  O_2
REMARK    2  A    between atoms: O_2  and  C_3
REMARK    3  A    between atoms: C_6  and  C_7
REMARK    4  A    between atoms: C_10  and  C_11
REMARK    5  A    between atoms: C_14  and  C_16
REMARK    6  A    between atoms: C_26  and  C_27
REMARK                            x       y       z     vdW  Elec       q    Type
REMARK                         _______ _______ _______ _____ _____    ______ ____
ROOT
ATOM      1  C   UNL     1      -0.137  11.790  21.486  0.00  0.00    +0.000 C 
ATOM      2  O   UNL     1      -0.357  11.684  22.693  0.00  0.00    +0.000 OA
ATOM      3  N   UNL     1       0.146  10.680  20.662  0.00  0.00    +0.000 N 
ATOM      4  C   UNL     1       0.661  10.792  19.269  0.00  0.00    +0.000 C 
ATOM      5  C   UNL     1      -0.366  10.262  18.255  0.00  0.00    +0.000 C 
ATOM      6  C   UNL     1       2.006  10.059  19.116  0.00  0.00    +0.000 C 
ATOM      7  N   UNL     1       1.879   8.663  19.518  0.00  0.00    +0.000 N 
ATOM      8  C   UNL     1       2.166   7.694  18.558  0.00  0.00    +0.000 C 
ATOM      9  O   UNL     1       2.566   7.994  17.429  0.00  0.00    +0.000 OA
ATOM     10  C   UNL     1       1.418   8.515  20.914  0.00  0.00    +0.000 C 
ATOM     11  C   UNL     1       0.061   9.257  21.138  0.00  0.00    +0.000 C 
ATOM     12  C   UNL     1      -0.460   8.986  22.550  0.00  0.00    +0.000 C 
ENDROOT
BRANCH   8  13
ATOM     13  C   UNL     1       2.043   6.243  18.842  0.00  0.00    +0.000 A 
ATOM     14  C   UNL     1       1.875   5.297  17.835  0.00  0.00    +0.000 A 
ATOM     15  C   UNL     1       1.673   3.947  18.148  0.00  0.00    +0.000 A 
ATOM     16  C   UNL     1       1.739   3.532  19.489  0.00  0.00    +0.000 A 
ATOM     17  C   UNL     1       1.584   2.280  20.145  0.00  0.00    +0.000 A 
ATOM     18  C   UNL     1       1.830   2.476  21.484  0.00  0.00    +0.000 A 
ATOM     19  N   UNL     1       2.106   3.805  21.671  0.00  0.00    +0.000 N 
ATOM     20  C   UNL     1       2.018   4.476  20.474  0.00  0.00    +0.000 A 
ATOM     21  C   UNL     1       2.164   5.844  20.186  0.00  0.00    +0.000 A 
ATOM     22  H   UNL     1       2.341   4.236  22.556  0.00  0.00    +0.000 HD
ENDBRANCH   8  13
BRANCH   1  26
ATOM     23  C   UNL     1       0.087  15.808  19.886  0.00  0.00    +0.000 A 
ATOM     24  C   UNL     1       1.103  15.307  20.699  0.00  0.00    +0.000 A 
ATOM     25  C   UNL     1       1.010  13.998  21.223  0.00  0.00    +0.000 A 
ATOM     26  C   UNL     1      -0.114  13.194  20.965  0.00  0.00    +0.000 A 
ATOM     27  C   UNL     1      -1.171  13.791  20.285  0.00  0.00    +0.000 A 
ATOM     28  F   UNL     1      -2.356  13.187  20.160  0.00  0.00    +0.000 F 
ATOM     29  C   UNL     1      -1.056  15.045  19.691  0.00  0.00    +0.000 A 
BRANCH  23  31
ATOM     30  C   UNL     1       1.292  17.564  18.840  0.00  0.00    +0.000 C 
ATOM     31  O   UNL     1       0.051  17.031  19.280  0.00  0.00    +0.000 OA
ENDBRANCH  23  31
ENDBRANCH   1  26
TORSDOF 3
ENDMDL
MODEL 2
REMARK VINA RESULT:      -7.7      1.193      1.237
REMARK  Name = 
REMARK  6 active torsions:
REMARK  status: ('A' for Active; 'I' for Inactive)
REMARK    1  A    between atoms: C_1  and  O_2
REMARK    2  A    between atoms: O_2  and  C_3
REMARK    3  A    between atoms: C_6  and  C_7
REMARK    4  A    between atoms: C_10  and  C_11
REMARK    5  A    between atoms: C_14  and  C_16
REMARK    6  A    between atoms: C_26  and  C_27
REMARK                            x       y       z     vdW  Elec       q    Type
REMARK                         _______ _______ _______ _____ _____    ______ ____
ROOT
ATOM      1  C   UNL     1      -0.187  11.346  21.541  0.00  0.00    +0.000 C 
ATOM      2  O   UNL     1      -0.308  11.126  22.746  0.00  0.00    +0.000 OA
ATOM      3  N   UNL     1       0.171  10.345  20.614  0.00  0.00    +0.000 N 
ATOM      4  C   UNL     1       0.570  10.623  19.206  0.00  0.00    +0.000 C 
ATOM      5  C   UNL     1      -0.453  10.043  18.215  0.00  0.00    +0.000 C 
ATOM      6  C   UNL     1       1.981  10.079  18.914  0.00  0.00    +0.000 C 
ATOM      7  N   UNL     1       2.053   8.653  19.207  0.00  0.00    +0.000 N 
ATOM      8  C   UNL     1       2.389   7.802  18.155  0.00  0.00    +0.000 C 
ATOM      9  O   UNL     1       2.670   8.232  17.033  0.00  0.00    +0.000 OA
ATOM     10  C   UNL     1       1.711   8.346  20.612  0.00  0.00    +0.000 C 
ATOM     11  C   UNL     1       0.293   8.892  20.976  0.00  0.00    +0.000 C 
ATOM     12  C   UNL     1      -0.092   8.454  22.390  0.00  0.00    +0.000 C 
ENDROOT
BRANCH   8  13
ATOM     13  C   UNL     1       2.463   6.330  18.328  0.00  0.00    +0.000 A 
ATOM     14  C   UNL     1       1.448   5.477  17.904  0.00  0.00    +0.000 A 
ATOM     15  C   UNL     1       1.513   4.103  18.163  0.00  0.00    +0.000 A 
ATOM     16  C   UNL     1       2.661   3.568  18.771  0.00  0.00    +0.000 A 
ATOM     17  C   UNL     1       3.050   2.261  19.172  0.00  0.00    +0.000 A 
ATOM     18  C   UNL     1       4.335   2.338  19.659  0.00  0.00    +0.000 A 
ATOM     19  N   UNL     1       4.733   3.647  19.592  0.00  0.00    +0.000 N 
ATOM     20  C   UNL     1       3.714   4.422  19.090  0.00  0.00    +0.000 A 
ATOM     21  C   UNL     1       3.644   5.812  18.892  0.00  0.00    +0.000 A 
ATOM     22  H   UNL     1       5.641   3.999  19.867  0.00  0.00    +0.000 HD
ENDBRANCH   8  13
BRANCH   1  26
ATOM     23  C   UNL     1      -0.577  15.462  20.249  0.00  0.00    +0.000 A 
ATOM     24  C   UNL     1       0.596  15.013  20.853  0.00  0.00    +0.000 A 
ATOM     25  C   UNL     1       0.705  13.669  21.280  0.00  0.00    +0.000 A 
ATOM     26  C   UNL     1      -0.372  12.777  21.135  0.00  0.00    +0.000 A 
ATOM     27  C   UNL     1      -1.573  13.308  20.676  0.00  0.00    +0.000 A 
ATOM     28  F   UNL     1      -2.704  12.599  20.687  0.00  0.00    +0.000 F 
ATOM     29  C   UNL     1      -1.665  14.604  20.172  0.00  0.00    +0.000 A 
BRANCH  23  31
ATOM     30  C   UNL     1      -0.604  16.902  18.363  0.00  0.00    +0.000 C 
ATOM     31  O   UNL     1      -0.817  16.711  19.754  0.00  0.00    +0.000 OA
ENDBRANCH  23  31
ENDBRANCH   1  26
TORSDOF 3
ENDMDL
MODEL 3
REMARK VINA RESULT:      -7.7      2.240      2.626
REMARK  Name = 
REMARK  6 active torsions:
REMARK  status: ('A' for Active; 'I' for Inactive)
REMARK    1  A    between atoms: C_1  and  O_2
REMARK    2  A    between atoms: O_2  and  C_3
REMARK    3  A    between atoms: C_6  and  C_7
REMARK    4  A    between atoms: C_10  and  C_11
REMARK    5  A    between atoms: C_14  and  C_16
REMARK    6  A    between atoms: C_26  and  C_27
REMARK                            x       y       z     vdW  Elec       q    Type
REMARK                         _______ _______ _______ _____ _____    ______ ____
ROOT
ATOM      1  C   UNL     1      -1.315  11.908  22.212  0.00  0.00    +0.000 C 
ATOM      2  O   UNL     1      -1.243  11.714  23.426  0.00  0.00    +0.000 OA
ATOM      3  N   UNL     1      -0.785  11.010  21.262  0.00  0.00    +0.000 N 
ATOM      4  C   UNL     1      -0.630  11.329  19.816  0.00  0.00    +0.000 C 
ATOM      5  C   UNL     1      -1.541  10.443  18.952  0.00  0.00    +0.000 C 
ATOM      6  C   UNL     1       0.839  11.194  19.374  0.00  0.00    +0.000 C 
ATOM      7  N   UNL     1       1.345   9.860  19.674  0.00  0.00    +0.000 N 
ATOM      8  C   UNL     1       1.799   9.095  18.601  0.00  0.00    +0.000 C 
ATOM      9  O   UNL     1       1.828   9.539  17.450  0.00  0.00    +0.000 OA
ATOM     10  C   UNL     1       1.253   9.529  21.112  0.00  0.00    +0.000 C 
ATOM     11  C   UNL     1      -0.216   9.667  21.625  0.00  0.00    +0.000 C 
ATOM     12  C   UNL     1      -0.311   9.199  23.078  0.00  0.00    +0.000 C 
ENDROOT
BRANCH   8  13
ATOM     13  C   UNL     1       2.308   7.713  18.781  0.00  0.00    +0.000 A 
ATOM     14  C   UNL     1       1.881   6.890  19.820  0.00  0.00    +0.000 A 
ATOM     15  C   UNL     1       2.449   5.624  20.010  0.00  0.00    +0.000 A 
ATOM     16  C   UNL     1       3.389   5.143  19.082  0.00  0.00    +0.000 A 
ATOM     17  C   UNL     1       4.144   3.944  18.972  0.00  0.00    +0.000 A 
ATOM     18  C   UNL     1       4.860   4.006  17.799  0.00  0.00    +0.000 A 
ATOM     19  N   UNL     1       4.587   5.209  17.203  0.00  0.00    +0.000 N 
ATOM     20  C   UNL     1       3.722   5.936  17.987  0.00  0.00    +0.000 A 
ATOM     21  C   UNL     1       3.208   7.232  17.812  0.00  0.00    +0.000 A 
ATOM     22  H   UNL     1       4.961   5.523  16.317  0.00  0.00    +0.000 HD
ENDBRANCH   8  13
BRANCH   1  26
ATOM     23  C   UNL     1      -2.989  15.692  20.932  0.00  0.00    +0.000 A 
ATOM     24  C   UNL     1      -1.705  15.627  21.471  0.00  0.00    +0.000 A 
ATOM     25  C   UNL     1      -1.176  14.386  21.895  0.00  0.00    +0.000 A 
ATOM     26  C   UNL     1      -1.942  13.210  21.814  0.00  0.00    +0.000 A 
ATOM     27  C   UNL     1      -3.269  13.348  21.421  0.00  0.00    +0.000 A 
ATOM     28  F   UNL     1      -4.134  12.333  21.499  0.00  0.00    +0.000 F 
ATOM     29  C   UNL     1      -3.772  14.547  20.920  0.00  0.00    +0.000 A 
BRANCH  23  31
ATOM     30  C   UNL     1      -2.839  17.688  19.658  0.00  0.00    +0.000 C 
ATOM     31  O   UNL     1      -3.618  16.803  20.449  0.00  0.00    +0.000 OA
ENDBRANCH  23  31
ENDBRANCH   1  26
TORSDOF 3
ENDMDL
MODEL 4
REMARK VINA RESULT:      -7.7      0.907      1.232
REMARK  Name = 
REMARK  6 active torsions:
REMARK  status: ('A' for Active; 'I' for Inactive)
REMARK    1  A    between atoms: C_1  and  O_2
REMARK    2  A    between atoms: O_2  and  C_3
REMARK    3  A    between atoms: C_6  and  C_7
REMARK    4  A    between atoms: C_10  and  C_11
REMARK    5  A    between atoms: C_14  and  C_16
REMARK    6  A    between atoms: C_26  and  C_27
REMARK                            x       y       z     vdW  Elec       q    Type
REMARK                         _______ _______ _______ _____ _____    ______ ____
ROOT
ATOM      1  C   UNL     1      -0.221  11.795  21.538  0.00  0.00    +0.000 C 
ATOM      2  O   UNL     1      -0.389  11.688  22.753  0.00  0.00    +0.000 OA
ATOM      3  N   UNL     1       0.059  10.690  20.707  0.00  0.00    +0.000 N 
ATOM      4  C   UNL     1       0.515  10.810  19.293  0.00  0.00    +0.000 C 
ATOM      5  C   UNL     1      -0.537  10.249  18.323  0.00  0.00    +0.000 C 
ATOM      6  C   UNL     1       1.872  10.114  19.089  0.00  0.00    +0.000 C 
ATOM      7  N   UNL     1       1.800   8.717  19.499  0.00  0.00    +0.000 N 
ATOM      8  C   UNL     1       2.075   7.753  18.531  0.00  0.00    +0.000 C 
ATOM      9  O   UNL     1       2.422   8.059  17.386  0.00  0.00    +0.000 OA
ATOM     10  C   UNL     1       1.399   8.562  20.913  0.00  0.00    +0.000 C 
ATOM     11  C   UNL     1       0.032   9.267  21.189  0.00  0.00    +0.000 C 
ATOM     12  C   UNL     1      -0.424   8.987  22.622  0.00  0.00    +0.000 C 
ENDROOT
BRANCH   8  13
ATOM     13  C   UNL     1       2.003   6.300  18.824  0.00  0.00    +0.000 A 
ATOM     14  C   UNL     1       1.875   5.342  17.822  0.00  0.00    +0.000 A 
ATOM     15  C   UNL     1       1.721   3.987  18.142  0.00  0.00    +0.000 A 
ATOM     16  C   UNL     1       1.795   3.583  19.486  0.00  0.00    +0.000 A 
ATOM     17  C   UNL     1       1.682   2.331  20.149  0.00  0.00    +0.000 A 
ATOM     18  C   UNL     1       1.913   2.544  21.488  0.00  0.00    +0.000 A 
ATOM     19  N   UNL     1       2.139   3.883  21.669  0.00  0.00    +0.000 N 
ATOM     20  C   UNL     1       2.033   4.543  20.467  0.00  0.00    +0.000 A 
ATOM     21  C   UNL     1       2.131   5.913  20.171  0.00  0.00    +0.000 A 
ATOM     22  H   UNL     1       2.354   4.328  22.551  0.00  0.00    +0.000 HD
ENDBRANCH   8  13
BRANCH   1  26
ATOM     23  C   UNL     1      -0.432  15.898  20.168  0.00  0.00    +0.000 A 
ATOM     24  C   UNL     1      -1.590  15.134  20.312  0.00  0.00    +0.000 A 
ATOM     25  C   UNL     1      -1.504  13.792  20.749  0.00  0.00    +0.000 A 
ATOM     26  C   UNL     1      -0.258  13.197  21.013  0.00  0.00    +0.000 A 
ATOM     27  C   UNL     1       0.875  13.944  20.703  0.00  0.00    +0.000 A 
ATOM     28  F   UNL     1       2.097  13.408  20.728  0.00  0.00    +0.000 F 
ATOM     29  C   UNL     1       0.801  15.291  20.356  0.00  0.00    +0.000 A 
BRANCH  23  31
ATOM     30  C   UNL     1      -0.026  17.470  18.438  0.00  0.00    +0.000 C 
ATOM     31  O   UNL     1      -0.358  17.209  19.794  0.00  0.00    +0.000 OA
ENDBRANCH  23  31
ENDBRANCH   1  26
TORSDOF 3
ENDMDL
MODEL 5
REMARK VINA RESULT:      -7.7      1.509      1.761
REMARK  Name = 
REMARK  6 active torsions:
REMARK  status: ('A' for Active; 'I' for Inactive)
REMARK    1  A    between atoms: C_1  and  O_2
REMARK    2  A    between atoms: O_2  and  C_3
REMARK    3  A    between atoms: C_6  and  C_7
REMARK    4  A    between atoms: C_10  and  C_11
REMARK    5  A    between atoms: C_14  and  C_16
REMARK    6  A    between atoms: C_26  and  C_27
REMARK                            x       y       z     vdW  Elec       q    Type
REMARK                         _______ _______ _______ _____ _____    ______ ____
ROOT
ATOM      1  C   UNL     1      -0.008  11.320  21.208  0.00  0.00    +0.000 C 
ATOM      2  O   UNL     1      -0.146  11.150  22.420  0.00  0.00    +0.000 OA
ATOM      3  N   UNL     1       0.337  10.275  20.326  0.00  0.00    +0.000 N 
ATOM      4  C   UNL     1       0.756  10.488  18.912  0.00  0.00    +0.000 C 
ATOM      5  C   UNL     1      -0.270   9.891  17.934  0.00  0.00    +0.000 C 
ATOM      6  C   UNL     1       2.157   9.903  18.657  0.00  0.00    +0.000 C 
ATOM      7  N   UNL     1       2.195   8.489  19.008  0.00  0.00    +0.000 N 
ATOM      8  C   UNL     1       2.522   7.589  17.994  0.00  0.00    +0.000 C 
ATOM      9  O   UNL     1       2.824   7.968  16.859  0.00  0.00    +0.000 OA
ATOM     10  C   UNL     1       1.833   8.245  20.420  0.00  0.00    +0.000 C 
ATOM     11  C   UNL     1       0.423   8.835  20.747  0.00  0.00    +0.000 C 
ATOM     12  C   UNL     1       0.016   8.462  22.173  0.00  0.00    +0.000 C 
ENDROOT
BRANCH   8  13
ATOM     13  C   UNL     1       2.563   6.124  18.226  0.00  0.00    +0.000 A 
ATOM     14  C   UNL     1       1.493   5.290  17.915  0.00  0.00    +0.000 A 
ATOM     15  C   UNL     1       1.533   3.926  18.230  0.00  0.00    +0.000 A 
ATOM     16  C   UNL     1       2.707   3.378  18.775  0.00  0.00    +0.000 A 
ATOM     17  C   UNL     1       3.084   2.076  19.204  0.00  0.00    +0.000 A 
ATOM     18  C   UNL     1       4.403   2.128  19.591  0.00  0.00    +0.000 A 
ATOM     19  N   UNL     1       4.836   3.419  19.437  0.00  0.00    +0.000 N 
ATOM     20  C   UNL     1       3.808   4.207  18.977  0.00  0.00    +0.000 A 
ATOM     21  C   UNL     1       3.766   5.589  18.723  0.00  0.00    +0.000 A 
ATOM     22  H   UNL     1       5.772   3.750  19.628  0.00  0.00    +0.000 HD
ENDBRANCH   8  13
BRANCH   1  26
ATOM     23  C   UNL     1      -0.547  15.450  20.020  0.00  0.00    +0.000 A 
ATOM     24  C   UNL     1      -1.642  14.596  20.148  0.00  0.00    +0.000 A 
ATOM     25  C   UNL     1      -1.450  13.248  20.526  0.00  0.00    +0.000 A 
ATOM     26  C   UNL     1      -0.158  12.737  20.744  0.00  0.00    +0.000 A 
ATOM     27  C   UNL     1       0.910  13.578  20.450  0.00  0.00    +0.000 A 
ATOM     28  F   UNL     1       2.169  13.134  20.433  0.00  0.00    +0.000 F 
ATOM     29  C   UNL     1       0.731  14.929  20.163  0.00  0.00    +0.000 A 
BRANCH  23  31
ATOM     30  C   UNL     1      -0.701  17.103  18.325  0.00  0.00    +0.000 C 
ATOM     31  O   UNL     1      -0.577  16.777  19.701  0.00  0.00    +0.000 OA
ENDBRANCH  23  31
ENDBRANCH   1  26
TORSDOF 3
ENDMDL
MODEL 6
REMARK VINA RESULT:      -7.6      1.844      2.319
REMARK  Name = 
REMARK  6 active torsions:
REMARK  status: ('A' for Active; 'I' for Inactive)
REMARK    1  A    between atoms: C_1  and  O_2
REMARK    2  A    between atoms: O_2  and  C_3
REMARK    3  A    between atoms: C_6  and  C_7
REMARK    4  A    between atoms: C_10  and  C_11
REMARK    5  A    between atoms: C_14  and  C_16
REMARK    6  A    between atoms: C_26  and  C_27
REMARK                            x       y       z     vdW  Elec       q    Type
REMARK                         _______ _______ _______ _____ _____    ______ ____
ROOT
ATOM      1  C   UNL     1      -1.279  11.946  22.130  0.00  0.00    +0.000 C 
ATOM      2  O   UNL     1      -1.202  11.746  23.342  0.00  0.00    +0.000 OA
ATOM      3  N   UNL     1      -0.747  11.055  21.174  0.00  0.00    +0.000 N 
ATOM      4  C   UNL     1      -0.599  11.382  19.728  0.00  0.00    +0.000 C 
ATOM      5  C   UNL     1      -1.509  10.495  18.863  0.00  0.00    +0.000 C 
ATOM      6  C   UNL     1       0.869  11.257  19.281  0.00  0.00    +0.000 C 
ATOM      7  N   UNL     1       1.383   9.924  19.573  0.00  0.00    +0.000 N 
ATOM      8  C   UNL     1       1.837   9.166  18.495  0.00  0.00    +0.000 C 
ATOM      9  O   UNL     1       1.860   9.615  17.345  0.00  0.00    +0.000 OA
ATOM     10  C   UNL     1       1.297   9.586  21.009  0.00  0.00    +0.000 C 
ATOM     11  C   UNL     1      -0.171   9.713  21.528  0.00  0.00    +0.000 C 
ATOM     12  C   UNL     1      -0.258   9.238  22.979  0.00  0.00    +0.000 C 
ENDROOT
BRANCH   8  13
ATOM     13  C   UNL     1       2.354   7.785  18.666  0.00  0.00    +0.000 A 
ATOM     14  C   UNL     1       3.217   7.193  17.749  0.00  0.00    +0.000 A 
ATOM     15  C   UNL     1       3.613   5.858  17.898  0.00  0.00    +0.000 A 
ATOM     16  C   UNL     1       3.211   5.141  19.038  0.00  0.00    +0.000 A 
ATOM     17  C   UNL     1       3.420   3.812  19.495  0.00  0.00    +0.000 A 
ATOM     18  C   UNL     1       2.832   3.697  20.733  0.00  0.00    +0.000 A 
ATOM     19  N   UNL     1       2.252   4.901  21.037  0.00  0.00    +0.000 N 
ATOM     20  C   UNL     1       2.437   5.785  20.000  0.00  0.00    +0.000 A 
ATOM     21  C   UNL     1       1.981   7.105  19.840  0.00  0.00    +0.000 A 
ATOM     22  H   UNL     1       1.761   5.115  21.895  0.00  0.00    +0.000 HD
ENDBRANCH   8  13
BRANCH   1  26
ATOM     23  C   UNL     1      -2.984  15.722  20.866  0.00  0.00    +0.000 A 
ATOM     24  C   UNL     1      -1.671  15.652  21.330  0.00  0.00    +0.000 A 
ATOM     25  C   UNL     1      -1.132  14.415  21.750  0.00  0.00    +0.000 A 
ATOM     26  C   UNL     1      -1.914  13.246  21.739  0.00  0.00    +0.000 A 
ATOM     27  C   UNL     1      -3.260  13.392  21.422  0.00  0.00    +0.000 A 
ATOM     28  F   UNL     1      -4.129  12.390  21.571  0.00  0.00    +0.000 F 
ATOM     29  C   UNL     1      -3.778  14.586  20.924  0.00  0.00    +0.000 A 
BRANCH  23  31
ATOM     30  C   UNL     1      -4.979  17.003  20.793  0.00  0.00    +0.000 C 
ATOM     31  O   UNL     1      -3.627  16.830  20.395  0.00  0.00    +0.000 OA
ENDBRANCH  23  31
ENDBRANCH   1  26
TORSDOF 3
ENDMDL
MODEL 7
REMARK VINA RESULT:      -7.6      2.213      2.749
REMARK  Name = 
REMARK  6 active torsions:
REMARK  status: ('A' for Active; 'I' for Inactive)
REMARK    1  A    between atoms: C_1  and  O_2
REMARK    2  A    between atoms: O_2  and  C_3
REMARK    3  A    between atoms: C_6  and  C_7
REMARK    4  A    between atoms: C_10  and  C_11
REMARK    5  A    between atoms: C_14  and  C_16
REMARK    6  A    between atoms: C_26  and  C_27
REMARK                            x       y       z     vdW  Elec       q    Type
REMARK                         _______ _______ _______ _____ _____    ______ ____
ROOT
ATOM      1  C   UNL     1      -1.245  11.988  22.047  0.00  0.00    +0.000 C 
ATOM      2  O   UNL     1      -1.176  11.832  23.266  0.00  0.00    +0.000 OA
ATOM      3  N   UNL     1      -0.723  11.055  21.127  0.00  0.00    +0.000 N 
ATOM      4  C   UNL     1      -0.564  11.327  19.671  0.00  0.00    +0.000 C 
ATOM      5  C   UNL     1      -1.483  10.422  18.835  0.00  0.00    +0.000 C 
ATOM      6  C   UNL     1       0.904  11.164  19.235  0.00  0.00    +0.000 C 
ATOM      7  N   UNL     1       1.397   9.836  19.578  0.00  0.00    +0.000 N 
ATOM      8  C   UNL     1       1.845   9.032  18.530  0.00  0.00    +0.000 C 
ATOM      9  O   UNL     1       1.878   9.439  17.365  0.00  0.00    +0.000 OA
ATOM     10  C   UNL     1       1.301   9.552  21.025  0.00  0.00    +0.000 C 
ATOM     11  C   UNL     1      -0.167   9.719  21.533  0.00  0.00    +0.000 C 
ATOM     12  C   UNL     1      -0.268   9.299  23.000  0.00  0.00    +0.000 C 
ENDROOT
BRANCH   8  13
ATOM     13  C   UNL     1       2.340   7.652  18.754  0.00  0.00    +0.000 A 
ATOM     14  C   UNL     1       2.012   6.917  19.890  0.00  0.00    +0.000 A 
ATOM     15  C   UNL     1       2.570   5.651  20.109  0.00  0.00    +0.000 A 
ATOM     16  C   UNL     1       3.392   5.079  19.124  0.00  0.00    +0.000 A 
ATOM     17  C   UNL     1       4.105   3.853  19.021  0.00  0.00    +0.000 A 
ATOM     18  C   UNL     1       4.690   3.812  17.776  0.00  0.00    +0.000 A 
ATOM     19  N   UNL     1       4.379   4.979  17.127  0.00  0.00    +0.000 N 
ATOM     20  C   UNL     1       3.621   5.783  17.944  0.00  0.00    +0.000 A 
ATOM     21  C   UNL     1       3.118   7.078  17.732  0.00  0.00    +0.000 A 
ATOM     22  H   UNL     1       4.661   5.218  16.185  0.00  0.00    +0.000 HD
ENDBRANCH   8  13
BRANCH   1  26
ATOM     23  C   UNL     1      -3.138  15.718  20.922  0.00  0.00    +0.000 A 
ATOM     24  C   UNL     1      -3.871  14.533  20.970  0.00  0.00    +0.000 A 
ATOM     25  C   UNL     1      -3.237  13.321  21.328  0.00  0.00    +0.000 A 
ATOM     26  C   UNL     1      -1.859  13.282  21.607  0.00  0.00    +0.000 A 
ATOM     27  C   UNL     1      -1.140  14.453  21.390  0.00  0.00    +0.000 A 
ATOM     28  F   UNL     1       0.194  14.475  21.433  0.00  0.00    +0.000 F 
ATOM     29  C   UNL     1      -1.766  15.668  21.124  0.00  0.00    +0.000 A 
BRANCH  23  31
ATOM     30  C   UNL     1      -2.959  17.674  19.590  0.00  0.00    +0.000 C 
ATOM     31  O   UNL     1      -3.614  16.964  20.631  0.00  0.00    +0.000 OA
ENDBRANCH  23  31
ENDBRANCH   1  26
TORSDOF 3
ENDMDL
MODEL 8
REMARK VINA RESULT:      -7.6      3.216      8.858
REMARK  Name = 
REMARK  6 active torsions:
REMARK  status: ('A' for Active; 'I' for Inactive)
REMARK    1  A    between atoms: C_1  and  O_2
REMARK    2  A    between atoms: O_2  and  C_3
REMARK    3  A    between atoms: C_6  and  C_7
REMARK    4  A    between atoms: C_10  and  C_11
REMARK    5  A    between atoms: C_14  and  C_16
REMARK    6  A    between atoms: C_26  and  C_27
REMARK                            x       y       z     vdW  Elec       q    Type
REMARK                         _______ _______ _______ _____ _____    ______ ____
ROOT
ATOM      1  C   UNL     1       2.124   7.463  19.817  0.00  0.00    +0.000 C 
ATOM      2  O   UNL     1       2.088   6.900  20.911  0.00  0.00    +0.000 OA
ATOM      3  N   UNL     1       1.497   8.704  19.576  0.00  0.00    +0.000 N 
ATOM      4  C   UNL     1       1.305   9.286  18.218  0.00  0.00    +0.000 C 
ATOM      5  C   UNL     1       2.121  10.578  18.050  0.00  0.00    +0.000 C 
ATOM      6  C   UNL     1      -0.186   9.541  17.932  0.00  0.00    +0.000 C 
ATOM      7  N   UNL     1      -0.767  10.399  18.958  0.00  0.00    +0.000 N 
ATOM      8  C   UNL     1      -1.313  11.612  18.540  0.00  0.00    +0.000 C 
ATOM      9  O   UNL     1      -1.359  11.930  17.348  0.00  0.00    +0.000 OA
ATOM     10  C   UNL     1      -0.639   9.827  20.314  0.00  0.00    +0.000 C 
ATOM     11  C   UNL     1       0.856   9.527  20.657  0.00  0.00    +0.000 C 
ATOM     12  C   UNL     1       0.978   9.056  22.107  0.00  0.00    +0.000 C 
ENDROOT
BRANCH   8  13
ATOM     13  C   UNL     1      -1.904  12.579  19.497  0.00  0.00    +0.000 A 
ATOM     14  C   UNL     1      -1.179  13.642  20.027  0.00  0.00    +0.000 A 
ATOM     15  C   UNL     1      -1.743  14.482  20.995  0.00  0.00    +0.000 A 
ATOM     16  C   UNL     1      -3.089  14.308  21.361  0.00  0.00    +0.000 A 
ATOM     17  C   UNL     1      -3.955  14.956  22.283  0.00  0.00    +0.000 A 
ATOM     18  C   UNL     1      -5.201  14.387  22.157  0.00  0.00    +0.000 A 
ATOM     19  N   UNL     1      -5.120  13.400  21.210  0.00  0.00    +0.000 N 
ATOM     20  C   UNL     1      -3.832  13.307  20.739  0.00  0.00    +0.000 A 
ATOM     21  C   UNL     1      -3.267  12.417  19.809  0.00  0.00    +0.000 A 
ATOM     22  H   UNL     1      -5.890  12.823  20.898  0.00  0.00    +0.000 HD
ENDBRANCH   8  13
BRANCH   1  26
ATOM     23  C   UNL     1       4.296   5.284  16.768  0.00  0.00    +0.000 A 
ATOM     24  C   UNL     1       4.555   6.635  17.001  0.00  0.00    +0.000 A 
ATOM     25  C   UNL     1       3.830   7.335  17.991  0.00  0.00    +0.000 A 
ATOM     26  C   UNL     1       2.818   6.699  18.731  0.00  0.00    +0.000 A 
ATOM     27  C   UNL     1       2.486   5.401  18.356  0.00  0.00    +0.000 A 
ATOM     28  F   UNL     1       1.416   4.778  18.857  0.00  0.00    +0.000 F 
ATOM     29  C   UNL     1       3.249   4.675  17.445  0.00  0.00    +0.000 A 
BRANCH  23  31
ATOM     30  C   UNL     1       6.352   4.431  15.946  0.00  0.00    +0.000 C 
ATOM     31  O   UNL     1       4.934   4.470  15.877  0.00  0.00    +0.000 OA
ENDBRANCH  23  31
ENDBRANCH   1  26
TORSDOF 3
ENDMDL
MODEL 9
REMARK VINA RESULT:      -7.6      1.418      1.921
REMARK  Name = 
REMARK  6 active torsions:
REMARK  status: ('A' for Active; 'I' for Inactive)
REMARK    1  A    between atoms: C_1  and  O_2
REMARK    2  A    between atoms: O_2  and  C_3
REMARK    3  A    between atoms: C_6  and  C_7
REMARK    4  A    between atoms: C_10  and  C_11
REMARK    5  A    between atoms: C_14  and  C_16
REMARK    6  A    between atoms: C_26  and  C_27
REMARK                            x       y       z     vdW  Elec       q    Type
REMARK                         _______ _______ _______ _____ _____    ______ ____
ROOT
ATOM      1  C   UNL     1      -0.579  11.967  21.770  0.00  0.00    +0.000 C 
ATOM      2  O   UNL     1      -0.622  11.912  23.000  0.00  0.00    +0.000 OA
ATOM      3  N   UNL     1      -0.242  10.857  20.968  0.00  0.00    +0.000 N 
ATOM      4  C   UNL     1       0.065  10.948  19.513  0.00  0.00    +0.000 C 
ATOM      5  C   UNL     1      -0.993  10.211  18.676  0.00  0.00    +0.000 C 
ATOM      6  C   UNL     1       1.474  10.407  19.210  0.00  0.00    +0.000 C 
ATOM      7  N   UNL     1       1.612   9.037  19.690  0.00  0.00    +0.000 N 
ATOM      8  C   UNL     1       1.915   8.058  18.745  0.00  0.00    +0.000 C 
ATOM      9  O   UNL     1       2.116   8.336  17.559  0.00  0.00    +0.000 OA
ATOM     10  C   UNL     1       1.363   8.918  21.142  0.00  0.00    +0.000 C 
ATOM     11  C   UNL     1      -0.049   9.471  21.516  0.00  0.00    +0.000 C 
ATOM     12  C   UNL     1      -0.336   9.223  22.998  0.00  0.00    +0.000 C 
ENDROOT
BRANCH   8  13
ATOM     13  C   UNL     1       2.049   6.626  19.111  0.00  0.00    +0.000 A 
ATOM     14  C   UNL     1       1.857   6.168  20.412  0.00  0.00    +0.000 A 
ATOM     15  C   UNL     1       2.080   4.824  20.737  0.00  0.00    +0.000 A 
ATOM     16  C   UNL     1       2.405   3.912  19.719  0.00  0.00    +0.000 A 
ATOM     17  C   UNL     1       2.692   2.520  19.693  0.00  0.00    +0.000 A 
ATOM     18  C   UNL     1       2.875   2.154  18.380  0.00  0.00    +0.000 A 
ATOM     19  N   UNL     1       2.734   3.277  17.607  0.00  0.00    +0.000 N 
ATOM     20  C   UNL     1       2.485   4.368  18.405  0.00  0.00    +0.000 A 
ATOM     21  C   UNL     1       2.324   5.723  18.068  0.00  0.00    +0.000 A 
ATOM     22  H   UNL     1       2.800   3.306  16.598  0.00  0.00    +0.000 HD
ENDBRANCH   8  13
BRANCH   1  26
ATOM     23  C   UNL     1      -1.410  15.934  20.242  0.00  0.00    +0.000 A 
ATOM     24  C   UNL     1      -2.449  15.072  20.592  0.00  0.00    +0.000 A 
ATOM     25  C   UNL     1      -2.162  13.777  21.079  0.00  0.00    +0.000 A 
ATOM     26  C   UNL     1      -0.836  13.323  21.186  0.00  0.00    +0.000 A 
ATOM     27  C   UNL     1       0.157  14.153  20.677  0.00  0.00    +0.000 A 
ATOM     28  F   UNL     1       1.420  13.740  20.549  0.00  0.00    +0.000 F 
ATOM     29  C   UNL     1      -0.105  15.462  20.277  0.00  0.00    +0.000 A 
BRANCH  23  31
ATOM     30  C   UNL     1      -1.088  17.479  18.470  0.00  0.00    +0.000 C 
ATOM     31  O   UNL     1      -1.526  17.218  19.795  0.00  0.00    +0.000 OA
ENDBRANCH  23  31
ENDBRANCH   1  26
TORSDOF 3
ENDMDL
