MODEL 1
REMARK VINA RESULT:      -6.9      0.000      0.000
REMARK  Name = 
REMARK  8 active torsions:
REMARK  status: ('A' for Active; 'I' for Inactive)
REMARK    1  A    between atoms: C_1  and  C_2
REMARK    2  A    between atoms: C_2  and  C_3
REMARK    3  A    between atoms: C_2  and  C_4
REMARK    4  A    between atoms: C_2  and  C_5
REMARK    5  A    between atoms: C_8  and  C_9
REMARK    6  A    between atoms: N_11  and  C_12
REMARK    7  A    between atoms: C_15  and  C_16
REMARK    8  A    between atoms: C_16  and  O_18
REMARK                            x       y       z     vdW  Elec       q    Type
REMARK                         _______ _______ _______ _____ _____    ______ ____
ROOT
ATOM      1  C   UNL     1       1.810   8.884  18.435  0.00  0.00    +0.000 C 
ATOM      2  O   UNL     1       1.897   9.319  17.290  0.00  0.00    +0.000 OA
ATOM      3  N   UNL     1       2.359   7.696  18.894  0.00  0.00    +0.000 N 
ATOM      4  H   UNL     1       2.023   7.330  19.776  0.00  0.00    +0.000 HD
ENDROOT
BRANCH   1   8
ATOM      5  C   UNL     1      -0.569  11.310  21.098  0.00  0.00    +0.000 A 
ATOM      6  C   UNL     1      -0.206  11.733  19.810  0.00  0.00    +0.000 A 
ATOM      7  C   UNL     1       0.544  10.919  18.963  0.00  0.00    +0.000 A 
ATOM      8  C   UNL     1       0.976   9.659  19.385  0.00  0.00    +0.000 A 
ATOM      9  C   UNL     1       0.677   9.231  20.678  0.00  0.00    +0.000 A 
ATOM     10  C   UNL     1      -0.081  10.057  21.526  0.00  0.00    +0.000 A 
BRANCH   5  12
ATOM     11  C   UNL     1      -0.683  13.471  22.456  0.00  0.00    +0.000 C 
ATOM     12  C   UNL     1      -1.448  12.206  21.992  0.00  0.00    +0.000 C 
ATOM     13  C   UNL     1      -1.888  11.415  23.238  0.00  0.00    +0.000 C 
ATOM     14  C   UNL     1      -2.710  12.710  21.258  0.00  0.00    +0.000 C 
ENDBRANCH   5  12
ENDBRANCH   1   8
BRANCH   3  15
ATOM     15  C   UNL     1       3.173   6.843  18.108  0.00  0.00    +0.000 A 
ATOM     16  C   UNL     1       4.232   7.328  17.332  0.00  0.00    +0.000 A 
ATOM     17  C   UNL     1       4.986   6.480  16.522  0.00  0.00    +0.000 A 
ATOM     18  C   UNL     1       4.683   5.120  16.473  0.00  0.00    +0.000 A 
ATOM     19  C   UNL     1       3.665   4.611  17.290  0.00  0.00    +0.000 A 
ATOM     20  C   UNL     1       2.915   5.468  18.109  0.00  0.00    +0.000 A 
BRANCH  18  21
ATOM     21  C   UNL     1       5.449   4.190  15.611  0.00  0.00    +0.000 C 
ATOM     22  O   UNL     1       5.803   4.479  14.482  0.00  0.00    +0.000 OA
BRANCH  21  23
ATOM     23  O   UNL     1       5.755   3.014  16.201  0.00  0.00    +0.000 OA
ATOM     24  H   UNL     1       6.705   2.864  16.366  0.00  0.00    +0.000 HD
ENDBRANCH  21  23
ENDBRANCH  18  21
ENDBRANCH   3  15
TORSDOF 5
ENDMDL
MODEL 2
REMARK VINA RESULT:      -6.9      0.372      1.424
REMARK  Name = 
REMARK  8 active torsions:
REMARK  status: ('A' for Active; 'I' for Inactive)
REMARK    1  A    between atoms: C_1  and  C_2
REMARK    2  A    between atoms: C_2  and  C_3
REMARK    3  A    between atoms: C_2  and  C_4
REMARK    4  A    between atoms: C_2  and  C_5
REMARK    5  A    between atoms: C_8  and  C_9
REMARK    6  A    between atoms: N_11  and  C_12
REMARK    7  A    between atoms: C_15  and  C_16
REMARK    8  A    between atoms: C_16  and  O_18
REMARK                            x       y       z     vdW  Elec       q    Type
REMARK                         _______ _______ _______ _____ _____    ______ ____
ROOT
ATOM      1  C   UNL     1       1.833   8.852  18.427  0.00  0.00    +0.000 C 
ATOM      2  O   UNL     1       1.961   9.303  17.292  0.00  0.00    +0.000 OA
ATOM      3  N   UNL     1       2.338   7.641  18.879  0.00  0.00    +0.000 N 
ATOM      4  H   UNL     1       1.969   7.271  19.747  0.00  0.00    +0.000 HD
ENDROOT
BRANCH   1   8
ATOM      5  C   UNL     1      -0.544  11.299  21.073  0.00  0.00    +0.000 A 
ATOM      6  C   UNL     1      -0.127  11.738  19.806  0.00  0.00    +0.000 A 
ATOM      7  C   UNL     1       0.621  10.917  18.964  0.00  0.00    +0.000 A 
ATOM      8  C   UNL     1       0.996   9.634  19.369  0.00  0.00    +0.000 A 
ATOM      9  C   UNL     1       0.643   9.188  20.642  0.00  0.00    +0.000 A 
ATOM     10  C   UNL     1      -0.113  10.020  21.486  0.00  0.00    +0.000 A 
BRANCH   5  12
ATOM     11  C   UNL     1      -1.868  11.472  23.251  0.00  0.00    +0.000 C 
ATOM     12  C   UNL     1      -1.420  12.204  21.960  0.00  0.00    +0.000 C 
ATOM     13  C   UNL     1      -2.676  12.630  21.178  0.00  0.00    +0.000 C 
ATOM     14  C   UNL     1      -0.673  13.475  22.422  0.00  0.00    +0.000 C 
ENDBRANCH   5  12
ENDBRANCH   1   8
BRANCH   3  15
ATOM     15  C   UNL     1       3.147   6.780  18.099  0.00  0.00    +0.000 A 
ATOM     16  C   UNL     1       2.875   5.413  17.970  0.00  0.00    +0.000 A 
ATOM     17  C   UNL     1       3.715   4.571  17.242  0.00  0.00    +0.000 A 
ATOM     18  C   UNL     1       4.855   5.091  16.632  0.00  0.00    +0.000 A 
ATOM     19  C   UNL     1       5.107   6.467  16.702  0.00  0.00    +0.000 A 
ATOM     20  C   UNL     1       4.254   7.311  17.429  0.00  0.00    +0.000 A 
BRANCH  18  21
ATOM     21  C   UNL     1       5.783   4.225  15.866  0.00  0.00    +0.000 C 
ATOM     22  O   UNL     1       5.566   3.884  14.717  0.00  0.00    +0.000 OA
BRANCH  21  23
ATOM     23  O   UNL     1       6.904   3.885  16.538  0.00  0.00    +0.000 OA
ATOM     24  H   UNL     1       6.782   3.698  17.488  0.00  0.00    +0.000 HD
ENDBRANCH  21  23
ENDBRANCH  18  21
ENDBRANCH   3  15
TORSDOF 5
ENDMDL
MODEL 3
REMARK VINA RESULT:      -6.8      2.835      9.143
REMARK  Name = 
REMARK  8 active torsions:
REMARK  status: ('A' for Active; 'I' for Inactive)
REMARK    1  A    between atoms: C_1  and  C_2
REMARK    2  A    between atoms: C_2  and  C_3
REMARK    3  A    between atoms: C_2  and  C_4
REMARK    4  A    between atoms: C_2  and  C_5
REMARK    5  A    between atoms: C_8  and  C_9
REMARK    6  A    between atoms: N_11  and  C_12
REMARK    7  A    between atoms: C_15  and  C_16
REMARK    8  A    between atoms: C_16  and  O_18
REMARK                            x       y       z     vdW  Elec       q    Type
REMARK                         _______ _______ _______ _____ _____    ______ ____
ROOT
ATOM      1  C   UNL     1       1.505   8.688  19.250  0.00  0.00    +0.000 C 
ATOM      2  O   UNL     1       0.845   9.378  18.477  0.00  0.00    +0.000 OA
ATOM      3  N   UNL     1       1.510   8.801  20.633  0.00  0.00    +0.000 N 
ATOM      4  H   UNL     1       2.262   8.350  21.140  0.00  0.00    +0.000 HD
ENDROOT
BRANCH   1   8
ATOM      5  C   UNL     1       4.204   5.720  17.657  0.00  0.00    +0.000 A 
ATOM      6  C   UNL     1       3.315   5.447  18.709  0.00  0.00    +0.000 A 
ATOM      7  C   UNL     1       2.439   6.419  19.188  0.00  0.00    +0.000 A 
ATOM      8  C   UNL     1       2.436   7.706  18.644  0.00  0.00    +0.000 A 
ATOM      9  C   UNL     1       3.344   8.024  17.634  0.00  0.00    +0.000 A 
ATOM     10  C   UNL     1       4.224   7.038  17.155  0.00  0.00    +0.000 A 
BRANCH   5  12
ATOM     11  C   UNL     1       5.377   4.787  15.588  0.00  0.00    +0.000 C 
ATOM     12  C   UNL     1       5.121   4.610  17.106  0.00  0.00    +0.000 C 
ATOM     13  C   UNL     1       4.461   3.238  17.336  0.00  0.00    +0.000 C 
ATOM     14  C   UNL     1       6.511   4.607  17.781  0.00  0.00    +0.000 C 
ENDBRANCH   5  12
ENDBRANCH   1   8
BRANCH   3  15
ATOM     15  C   UNL     1       0.684   9.694  21.358  0.00  0.00    +0.000 A 
ATOM     16  C   UNL     1      -0.075   9.282  22.460  0.00  0.00    +0.000 A 
ATOM     17  C   UNL     1      -0.925  10.164  23.126  0.00  0.00    +0.000 A 
ATOM     18  C   UNL     1      -1.031  11.484  22.691  0.00  0.00    +0.000 A 
ATOM     19  C   UNL     1      -0.232  11.925  21.629  0.00  0.00    +0.000 A 
ATOM     20  C   UNL     1       0.627  11.035  20.967  0.00  0.00    +0.000 A 
BRANCH  18  21
ATOM     21  C   UNL     1      -1.936  12.446  23.362  0.00  0.00    +0.000 C 
ATOM     22  O   UNL     1      -1.617  13.599  23.593  0.00  0.00    +0.000 OA
BRANCH  21  23
ATOM     23  O   UNL     1      -3.156  11.946  23.655  0.00  0.00    +0.000 OA
ATOM     24  H   UNL     1      -3.691  12.482  24.270  0.00  0.00    +0.000 HD
ENDBRANCH  21  23
ENDBRANCH  18  21
ENDBRANCH   3  15
TORSDOF 5
ENDMDL
MODEL 4
REMARK VINA RESULT:      -6.8      2.157      2.654
REMARK  Name = 
REMARK  8 active torsions:
REMARK  status: ('A' for Active; 'I' for Inactive)
REMARK    1  A    between atoms: C_1  and  C_2
REMARK    2  A    between atoms: C_2  and  C_3
REMARK    3  A    between atoms: C_2  and  C_4
REMARK    4  A    between atoms: C_2  and  C_5
REMARK    5  A    between atoms: C_8  and  C_9
REMARK    6  A    between atoms: N_11  and  C_12
REMARK    7  A    between atoms: C_15  and  C_16
REMARK    8  A    between atoms: C_16  and  O_18
REMARK                            x       y       z     vdW  Elec       q    Type
REMARK                         _______ _______ _______ _____ _____    ______ ____
ROOT
ATOM      1  C   UNL     1       1.148   8.478  20.371  0.00  0.00    +0.000 C 
ATOM      2  O   UNL     1       1.627   8.757  19.276  0.00  0.00    +0.000 OA
ATOM      3  N   UNL     1       1.255   7.253  21.014  0.00  0.00    +0.000 N 
ATOM      4  H   UNL     1       0.626   7.069  21.786  0.00  0.00    +0.000 HD
ENDROOT
BRANCH   1   8
ATOM      5  C   UNL     1      -1.222  11.634  22.121  0.00  0.00    +0.000 A 
ATOM      6  C   UNL     1      -0.834  11.638  20.772  0.00  0.00    +0.000 A 
ATOM      7  C   UNL     1      -0.087  10.594  20.228  0.00  0.00    +0.000 A 
ATOM      8  C   UNL     1       0.315   9.518  21.023  0.00  0.00    +0.000 A 
ATOM      9  C   UNL     1      -0.009   9.510  22.379  0.00  0.00    +0.000 A 
ATOM     10  C   UNL     1      -0.763  10.565  22.920  0.00  0.00    +0.000 A 
BRANCH   5  12
ATOM     11  C   UNL     1      -2.810  13.550  21.547  0.00  0.00    +0.000 C 
ATOM     12  C   UNL     1      -2.097  12.772  22.682  0.00  0.00    +0.000 C 
ATOM     13  C   UNL     1      -1.216  13.756  23.473  0.00  0.00    +0.000 C 
ATOM     14  C   UNL     1      -3.212  12.250  23.614  0.00  0.00    +0.000 C 
ENDBRANCH   5  12
ENDBRANCH   1   8
BRANCH   3  15
ATOM     15  C   UNL     1       2.007   6.161  20.517  0.00  0.00    +0.000 A 
ATOM     16  C   UNL     1       3.059   6.329  19.608  0.00  0.00    +0.000 A 
ATOM     17  C   UNL     1       3.752   5.237  19.089  0.00  0.00    +0.000 A 
ATOM     18  C   UNL     1       3.393   3.945  19.472  0.00  0.00    +0.000 A 
ATOM     19  C   UNL     1       2.384   3.765  20.426  0.00  0.00    +0.000 A 
ATOM     20  C   UNL     1       1.696   4.869  20.952  0.00  0.00    +0.000 A 
BRANCH  18  21
ATOM     21  C   UNL     1       4.093   2.758  18.928  0.00  0.00    +0.000 C 
ATOM     22  O   UNL     1       3.752   2.208  17.896  0.00  0.00    +0.000 OA
BRANCH  21  23
ATOM     23  O   UNL     1       5.164   2.367  19.652  0.00  0.00    +0.000 OA
ATOM     24  H   UNL     1       5.598   1.548  19.348  0.00  0.00    +0.000 HD
ENDBRANCH  21  23
ENDBRANCH  18  21
ENDBRANCH   3  15
TORSDOF 5
ENDMDL
MODEL 5
REMARK VINA RESULT:      -6.8      2.433      3.152
REMARK  Name = 
REMARK  8 active torsions:
REMARK  status: ('A' for Active; 'I' for Inactive)
REMARK    1  A    between atoms: C_1  and  C_2
REMARK    2  A    between atoms: C_2  and  C_3
REMARK    3  A    between atoms: C_2  and  C_4
REMARK    4  A    between atoms: C_2  and  C_5
REMARK    5  A    between atoms: C_8  and  C_9
REMARK    6  A    between atoms: N_11  and  C_12
REMARK    7  A    between atoms: C_15  and  C_16
REMARK    8  A    between atoms: C_16  and  O_18
REMARK                            x       y       z     vdW  Elec       q    Type
REMARK                         _______ _______ _______ _____ _____    ______ ____
ROOT
ATOM      1  C   UNL     1       1.469   7.702  20.433  0.00  0.00    +0.000 C 
ATOM      2  O   UNL     1       2.296   7.961  19.563  0.00  0.00    +0.000 OA
ATOM      3  N   UNL     1       1.167   6.436  20.912  0.00  0.00    +0.000 N 
ATOM      4  H   UNL     1       0.313   6.324  21.445  0.00  0.00    +0.000 HD
ENDROOT
BRANCH   1   8
ATOM      5  C   UNL     1      -0.785  11.120  21.804  0.00  0.00    +0.000 A 
ATOM      6  C   UNL     1      -0.266  11.028  20.503  0.00  0.00    +0.000 A 
ATOM      7  C   UNL     1       0.440   9.902  20.081  0.00  0.00    +0.000 A 
ATOM      8  C   UNL     1       0.667   8.836  20.954  0.00  0.00    +0.000 A 
ATOM      9  C   UNL     1       0.209   8.918  22.268  0.00  0.00    +0.000 A 
ATOM     10  C   UNL     1      -0.502  10.056  22.687  0.00  0.00    +0.000 A 
BRANCH   5  12
ATOM     11  C   UNL     1      -2.615  11.999  23.354  0.00  0.00    +0.000 C 
ATOM     12  C   UNL     1      -1.612  12.350  22.226  0.00  0.00    +0.000 C 
ATOM     13  C   UNL     1      -2.402  12.879  21.015  0.00  0.00    +0.000 C 
ATOM     14  C   UNL     1      -0.727  13.492  22.774  0.00  0.00    +0.000 C 
ENDBRANCH   5  12
ENDBRANCH   1   8
BRANCH   3  15
ATOM     15  C   UNL     1       1.838   5.256  20.509  0.00  0.00    +0.000 A 
ATOM     16  C   UNL     1       2.045   4.179  21.380  0.00  0.00    +0.000 A 
ATOM     17  C   UNL     1       2.756   3.048  20.980  0.00  0.00    +0.000 A 
ATOM     18  C   UNL     1       3.280   2.982  19.690  0.00  0.00    +0.000 A 
ATOM     19  C   UNL     1       3.028   4.024  18.789  0.00  0.00    +0.000 A 
ATOM     20  C   UNL     1       2.305   5.156  19.194  0.00  0.00    +0.000 A 
BRANCH  18  21
ATOM     21  C   UNL     1       4.057   1.805  19.234  0.00  0.00    +0.000 C 
ATOM     22  O   UNL     1       3.747   1.152  18.253  0.00  0.00    +0.000 OA
BRANCH  21  23
ATOM     23  O   UNL     1       5.157   1.548  19.973  0.00  0.00    +0.000 OA
ATOM     24  H   UNL     1       5.575   2.327  20.386  0.00  0.00    +0.000 HD
ENDBRANCH  21  23
ENDBRANCH  18  21
ENDBRANCH   3  15
TORSDOF 5
ENDMDL
MODEL 6
REMARK VINA RESULT:      -6.8      2.329      3.238
REMARK  Name = 
REMARK  8 active torsions:
REMARK  status: ('A' for Active; 'I' for Inactive)
REMARK    1  A    between atoms: C_1  and  C_2
REMARK    2  A    between atoms: C_2  and  C_3
REMARK    3  A    between atoms: C_2  and  C_4
REMARK    4  A    between atoms: C_2  and  C_5
REMARK    5  A    between atoms: C_8  and  C_9
REMARK    6  A    between atoms: N_11  and  C_12
REMARK    7  A    between atoms: C_15  and  C_16
REMARK    8  A    between atoms: C_16  and  O_18
REMARK                            x       y       z     vdW  Elec       q    Type
REMARK                         _______ _______ _______ _____ _____    ______ ____
ROOT
ATOM      1  C   UNL     1       1.653   7.888  19.927  0.00  0.00    +0.000 C 
ATOM      2  O   UNL     1       2.174   7.941  18.817  0.00  0.00    +0.000 OA
ATOM      3  N   UNL     1       1.630   6.778  20.759  0.00  0.00    +0.000 N 
ATOM      4  H   UNL     1       0.975   6.780  21.531  0.00  0.00    +0.000 HD
ENDROOT
BRANCH   1   8
ATOM      5  C   UNL     1      -0.594  11.277  21.378  0.00  0.00    +0.000 A 
ATOM      6  C   UNL     1      -0.436  10.098  22.124  0.00  0.00    +0.000 A 
ATOM      7  C   UNL     1       0.314   9.028  21.640  0.00  0.00    +0.000 A 
ATOM      8  C   UNL     1       0.916   9.093  20.381  0.00  0.00    +0.000 A 
ATOM      9  C   UNL     1       0.734  10.229  19.593  0.00  0.00    +0.000 A 
ATOM     10  C   UNL     1      -0.023  11.305  20.088  0.00  0.00    +0.000 A 
BRANCH   5  12
ATOM     11  C   UNL     1      -2.390  13.039  20.936  0.00  0.00    +0.000 C 
ATOM     12  C   UNL     1      -1.379  12.467  21.962  0.00  0.00    +0.000 C 
ATOM     13  C   UNL     1      -0.398  13.585  22.358  0.00  0.00    +0.000 C 
ATOM     14  C   UNL     1      -2.205  12.073  23.207  0.00  0.00    +0.000 C 
ENDBRANCH   5  12
ENDBRANCH   1   8
BRANCH   3  15
ATOM     15  C   UNL     1       2.280   5.555  20.465  0.00  0.00    +0.000 A 
ATOM     16  C   UNL     1       1.743   4.315  20.835  0.00  0.00    +0.000 A 
ATOM     17  C   UNL     1       2.425   3.125  20.586  0.00  0.00    +0.000 A 
ATOM     18  C   UNL     1       3.670   3.160  19.959  0.00  0.00    +0.000 A 
ATOM     19  C   UNL     1       4.191   4.386  19.528  0.00  0.00    +0.000 A 
ATOM     20  C   UNL     1       3.496   5.581  19.775  0.00  0.00    +0.000 A 
BRANCH  18  21
ATOM     21  C   UNL     1       4.434   1.918  19.693  0.00  0.00    +0.000 C 
ATOM     22  O   UNL     1       5.251   1.468  20.476  0.00  0.00    +0.000 OA
BRANCH  21  23
ATOM     23  O   UNL     1       4.114   1.310  18.530  0.00  0.00    +0.000 OA
ATOM     24  H   UNL     1       4.453   1.744  17.725  0.00  0.00    +0.000 HD
ENDBRANCH  21  23
ENDBRANCH  18  21
ENDBRANCH   3  15
TORSDOF 5
ENDMDL
MODEL 7
REMARK VINA RESULT:      -6.8      2.300      2.946
REMARK  Name = 
REMARK  8 active torsions:
REMARK  status: ('A' for Active; 'I' for Inactive)
REMARK    1  A    between atoms: C_1  and  C_2
REMARK    2  A    between atoms: C_2  and  C_3
REMARK    3  A    between atoms: C_2  and  C_4
REMARK    4  A    between atoms: C_2  and  C_5
REMARK    5  A    between atoms: C_8  and  C_9
REMARK    6  A    between atoms: N_11  and  C_12
REMARK    7  A    between atoms: C_15  and  C_16
REMARK    8  A    between atoms: C_16  and  O_18
REMARK                            x       y       z     vdW  Elec       q    Type
REMARK                         _______ _______ _______ _____ _____    ______ ____
ROOT
ATOM      1  C   UNL     1       1.704   7.994  19.684  0.00  0.00    +0.000 C 
ATOM      2  O   UNL     1       2.072   7.963  18.513  0.00  0.00    +0.000 OA
ATOM      3  N   UNL     1       1.800   6.949  20.591  0.00  0.00    +0.000 N 
ATOM      4  H   UNL     1       1.252   7.010  21.441  0.00  0.00    +0.000 HD
ENDROOT
BRANCH   1   8
ATOM      5  C   UNL     1      -0.396  11.478  21.131  0.00  0.00    +0.000 A 
ATOM      6  C   UNL     1      -0.364  10.265  21.838  0.00  0.00    +0.000 A 
ATOM      7  C   UNL     1       0.341   9.163  21.357  0.00  0.00    +0.000 A 
ATOM      8  C   UNL     1       1.023   9.230  20.140  0.00  0.00    +0.000 A 
ATOM      9  C   UNL     1       0.968  10.403  19.389  0.00  0.00    +0.000 A 
ATOM     10  C   UNL     1       0.256  11.511  19.880  0.00  0.00    +0.000 A 
BRANCH   5  12
ATOM     11  C   UNL     1      -2.439  12.997  20.936  0.00  0.00    +0.000 C 
ATOM     12  C   UNL     1      -1.133  12.699  21.714  0.00  0.00    +0.000 C 
ATOM     13  C   UNL     1      -0.221  13.937  21.634  0.00  0.00    +0.000 C 
ATOM     14  C   UNL     1      -1.548  12.487  23.187  0.00  0.00    +0.000 C 
ENDBRANCH   5  12
ENDBRANCH   1   8
BRANCH   3  15
ATOM     15  C   UNL     1       2.415   5.706  20.306  0.00  0.00    +0.000 A 
ATOM     16  C   UNL     1       3.658   5.616  19.669  0.00  0.00    +0.000 A 
ATOM     17  C   UNL     1       4.221   4.382  19.346  0.00  0.00    +0.000 A 
ATOM     18  C   UNL     1       3.537   3.208  19.657  0.00  0.00    +0.000 A 
ATOM     19  C   UNL     1       2.322   3.280  20.348  0.00  0.00    +0.000 A 
ATOM     20  C   UNL     1       1.763   4.525  20.677  0.00  0.00    +0.000 A 
BRANCH  18  21
ATOM     21  C   UNL     1       4.094   1.878  19.314  0.00  0.00    +0.000 C 
ATOM     22  O   UNL     1       3.625   1.173  18.438  0.00  0.00    +0.000 OA
BRANCH  21  23
ATOM     23  O   UNL     1       5.189   1.536  20.028  0.00  0.00    +0.000 OA
ATOM     24  H   UNL     1       5.625   2.269  20.501  0.00  0.00    +0.000 HD
ENDBRANCH  21  23
ENDBRANCH  18  21
ENDBRANCH   3  15
TORSDOF 5
ENDMDL
MODEL 8
REMARK VINA RESULT:      -6.8      1.334      1.768
REMARK  Name = 
REMARK  8 active torsions:
REMARK  status: ('A' for Active; 'I' for Inactive)
REMARK    1  A    between atoms: C_1  and  C_2
REMARK    2  A    between atoms: C_2  and  C_3
REMARK    3  A    between atoms: C_2  and  C_4
REMARK    4  A    between atoms: C_2  and  C_5
REMARK    5  A    between atoms: C_8  and  C_9
REMARK    6  A    between atoms: N_11  and  C_12
REMARK    7  A    between atoms: C_15  and  C_16
REMARK    8  A    between atoms: C_16  and  O_18
REMARK                            x       y       z     vdW  Elec       q    Type
REMARK                         _______ _______ _______ _____ _____    ______ ____
ROOT
ATOM      1  C   UNL     1       1.448   8.052  20.398  0.00  0.00    +0.000 C 
ATOM      2  O   UNL     1       1.810   7.169  21.171  0.00  0.00    +0.000 OA
ATOM      3  N   UNL     1       1.819   8.165  19.067  0.00  0.00    +0.000 N 
ATOM      4  H   UNL     1       1.656   9.051  18.604  0.00  0.00    +0.000 HD
ENDROOT
BRANCH   1   8
ATOM      5  C   UNL     1      -0.933  11.327  21.897  0.00  0.00    +0.000 A 
ATOM      6  C   UNL     1      -0.471  11.271  20.572  0.00  0.00    +0.000 A 
ATOM      7  C   UNL     1       0.277  10.190  20.110  0.00  0.00    +0.000 A 
ATOM      8  C   UNL     1       0.608   9.136  20.964  0.00  0.00    +0.000 A 
ATOM      9  C   UNL     1       0.210   9.187  22.300  0.00  0.00    +0.000 A 
ATOM     10  C   UNL     1      -0.546  10.279  22.759  0.00  0.00    +0.000 A 
BRANCH   5  12
ATOM     11  C   UNL     1      -0.953  13.626  23.009  0.00  0.00    +0.000 C 
ATOM     12  C   UNL     1      -1.808  12.506  22.366  0.00  0.00    +0.000 C 
ATOM     13  C   UNL     1      -2.826  12.007  23.408  0.00  0.00    +0.000 C 
ATOM     14  C   UNL     1      -2.579  13.165  21.201  0.00  0.00    +0.000 C 
ENDBRANCH   5  12
ENDBRANCH   1   8
BRANCH   3  15
ATOM     15  C   UNL     1       2.621   7.218  18.385  0.00  0.00    +0.000 A 
ATOM     16  C   UNL     1       2.277   5.863  18.309  0.00  0.00    +0.000 A 
ATOM     17  C   UNL     1       3.109   4.936  17.681  0.00  0.00    +0.000 A 
ATOM     18  C   UNL     1       4.312   5.358  17.118  0.00  0.00    +0.000 A 
ATOM     19  C   UNL     1       4.640   6.719  17.132  0.00  0.00    +0.000 A 
ATOM     20  C   UNL     1       3.796   7.648  17.759  0.00  0.00    +0.000 A 
BRANCH  18  21
ATOM     21  C   UNL     1       5.231   4.401  16.458  0.00  0.00    +0.000 C 
ATOM     22  O   UNL     1       5.147   4.117  15.276  0.00  0.00    +0.000 OA
BRANCH  21  23
ATOM     23  O   UNL     1       6.191   3.906  17.269  0.00  0.00    +0.000 OA
ATOM     24  H   UNL     1       6.012   3.021  17.637  0.00  0.00    +0.000 HD
ENDBRANCH  21  23
ENDBRANCH  18  21
ENDBRANCH   3  15
TORSDOF 5
ENDMDL
MODEL 9
REMARK VINA RESULT:      -6.8      2.953      9.118
REMARK  Name = 
REMARK  8 active torsions:
REMARK  status: ('A' for Active; 'I' for Inactive)
REMARK    1  A    between atoms: C_1  and  C_2
REMARK    2  A    between atoms: C_2  and  C_3
REMARK    3  A    between atoms: C_2  and  C_4
REMARK    4  A    between atoms: C_2  and  C_5
REMARK    5  A    between atoms: C_8  and  C_9
REMARK    6  A    between atoms: N_11  and  C_12
REMARK    7  A    between atoms: C_15  and  C_16
REMARK    8  A    between atoms: C_16  and  O_18
REMARK                            x       y       z     vdW  Elec       q    Type
REMARK                         _______ _______ _______ _____ _____    ______ ____
ROOT
ATOM      1  C   UNL     1       1.354   8.929  19.463  0.00  0.00    +0.000 C 
ATOM      2  O   UNL     1       0.802   9.605  18.598  0.00  0.00    +0.000 OA
ATOM      3  N   UNL     1       1.286   9.152  20.830  0.00  0.00    +0.000 N 
ATOM      4  H   UNL     1       1.965   8.685  21.419  0.00  0.00    +0.000 HD
ENDROOT
BRANCH   1   8
ATOM      5  C   UNL     1       3.909   5.813  17.916  0.00  0.00    +0.000 A 
ATOM      6  C   UNL     1       3.777   7.063  17.291  0.00  0.00    +0.000 A 
ATOM      7  C   UNL     1       2.961   8.059  17.826  0.00  0.00    +0.000 A 
ATOM      8  C   UNL     1       2.233   7.830  18.995  0.00  0.00    +0.000 A 
ATOM      9  C   UNL     1       2.301   6.581  19.611  0.00  0.00    +0.000 A 
ATOM     10  C   UNL     1       3.127   5.582  19.067  0.00  0.00    +0.000 A 
BRANCH   5  12
ATOM     11  C   UNL     1       6.133   4.591  18.210  0.00  0.00    +0.000 C 
ATOM     12  C   UNL     1       4.864   4.750  17.336  0.00  0.00    +0.000 C 
ATOM     13  C   UNL     1       5.295   5.166  15.918  0.00  0.00    +0.000 C 
ATOM     14  C   UNL     1       4.211   3.352  17.262  0.00  0.00    +0.000 C 
ENDBRANCH   5  12
ENDBRANCH   1   8
BRANCH   3  15
ATOM     15  C   UNL     1       0.498  10.164  21.430  0.00  0.00    +0.000 A 
ATOM     16  C   UNL     1       0.558  11.501  21.019  0.00  0.00    +0.000 A 
ATOM     17  C   UNL     1      -0.185  12.492  21.659  0.00  0.00    +0.000 A 
ATOM     18  C   UNL     1      -1.004  12.155  22.735  0.00  0.00    +0.000 A 
ATOM     19  C   UNL     1      -1.120  10.814  23.119  0.00  0.00    +0.000 A 
ATOM     20  C   UNL     1      -0.376   9.819  22.466  0.00  0.00    +0.000 A 
BRANCH  18  21
ATOM     21  C   UNL     1      -1.795  13.183  23.453  0.00  0.00    +0.000 C 
ATOM     22  O   UNL     1      -2.999  13.094  23.612  0.00  0.00    +0.000 OA
BRANCH  21  23
ATOM     23  O   UNL     1      -1.058  14.200  23.950  0.00  0.00    +0.000 OA
ATOM     24  H   UNL     1      -1.496  15.072  23.950  0.00  0.00    +0.000 HD
ENDBRANCH  21  23
ENDBRANCH  18  21
ENDBRANCH   3  15
TORSDOF 5
ENDMDL
