MODEL 1
REMARK VINA RESULT:      -6.2      0.000      0.000
REMARK  Name = 
REMARK  10 active torsions:
REMARK  status: ('A' for Active; 'I' for Inactive)
REMARK    1  A    between atoms: C_1  and  C_2
REMARK    2  A    between atoms: C_2  and  N_3
REMARK    3  A    between atoms: N_3  and  C_4
REMARK    4  A    between atoms: N_3  and  C_6
REMARK    5  A    between atoms: C_4  and  C_5
REMARK    6  A    between atoms: C_6  and  C_7
REMARK    7  A    between atoms: C_7  and  N_8
REMARK    8  A    between atoms: C_9  and  C_11
REMARK    9  A    between atoms: C_14  and  C_15
REMARK   10  A    between atoms: C_15  and  O_16
REMARK                            x       y       z     vdW  Elec       q    Type
REMARK                         _______ _______ _______ _____ _____    ______ ____
ROOT
ATOM      1  N   UNL     1       3.416   5.543  18.685  0.00  0.00    +0.000 N 
ATOM      2  C   UNL     1       3.338   6.786  18.071  0.00  0.00    +0.000 C 
ATOM      3  O   UNL     1       3.993   7.113  17.083  0.00  0.00    +0.000 OA
ATOM      4  H   UNL     1       3.125   5.487  19.652  0.00  0.00    +0.000 HD
ENDROOT
BRANCH   2   5
ATOM      5  C   UNL     1       2.399   7.762  18.700  0.00  0.00    +0.000 A 
ATOM      6  C   UNL     1       1.863   8.792  17.914  0.00  0.00    +0.000 A 
ATOM      7  C   UNL     1       0.978   9.722  18.472  0.00  0.00    +0.000 A 
ATOM      8  C   UNL     1       0.596   9.629  19.817  0.00  0.00    +0.000 A 
ATOM      9  C   UNL     1       1.129   8.592  20.597  0.00  0.00    +0.000 A 
ATOM     10  C   UNL     1       2.010   7.658  20.041  0.00  0.00    +0.000 A 
BRANCH   8  11
ATOM     11  C   UNL     1      -0.310  10.677  20.418  0.00  0.00    +0.000 C 
BRANCH  11  12
ATOM     12  O   UNL     1      -0.365  10.576  21.833  0.00  0.00    +0.000 OA
ATOM     13  H   UNL     1      -0.865  11.349  22.148  0.00  0.00    +0.000 HD
ENDBRANCH  11  12
ENDBRANCH   8  11
ENDBRANCH   2   5
BRANCH   1  14
ATOM     14  C   UNL     1       4.321   4.506  18.251  0.00  0.00    +0.000 C 
ATOM     15  C   UNL     1       4.042   3.782  16.944  0.00  0.00    +0.000 C 
ATOM     16  C   UNL     1       3.786   3.077  18.231  0.00  0.00    +0.000 C 
BRANCH  14  17
ATOM     17  C   UNL     1       5.780   4.696  18.682  0.00  0.00    +0.000 C 
BRANCH  17  18
ATOM     18  N   UNL     1       6.589   5.436  17.681  0.00  0.00    +0.000 NA
BRANCH  18  20
ATOM     19  C   UNL     1       7.655   7.734  17.583  0.00  0.00    +0.000 C 
ATOM     20  C   UNL     1       7.496   6.406  18.316  0.00  0.00    +0.000 C 
ENDBRANCH  18  20
BRANCH  18  21
ATOM     21  C   UNL     1       7.271   4.498  16.768  0.00  0.00    +0.000 C 
ATOM     22  C   UNL     1       7.050   4.714  15.271  0.00  0.00    +0.000 C 
ENDBRANCH  18  21
ENDBRANCH  17  18
ENDBRANCH  14  17
ENDBRANCH   1  14
TORSDOF 8
ENDMDL
MODEL 2
REMARK VINA RESULT:      -6.1      1.824      3.553
REMARK  Name = 
REMARK  10 active torsions:
REMARK  status: ('A' for Active; 'I' for Inactive)
REMARK    1  A    between atoms: C_1  and  C_2
REMARK    2  A    between atoms: C_2  and  N_3
REMARK    3  A    between atoms: N_3  and  C_4
REMARK    4  A    between atoms: N_3  and  C_6
REMARK    5  A    between atoms: C_4  and  C_5
REMARK    6  A    between atoms: C_6  and  C_7
REMARK    7  A    between atoms: C_7  and  N_8
REMARK    8  A    between atoms: C_9  and  C_11
REMARK    9  A    between atoms: C_14  and  C_15
REMARK   10  A    between atoms: C_15  and  O_16
REMARK                            x       y       z     vdW  Elec       q    Type
REMARK                         _______ _______ _______ _____ _____    ______ ____
ROOT
ATOM      1  N   UNL     1       3.378   5.883  17.531  0.00  0.00    +0.000 N 
ATOM      2  C   UNL     1       3.173   6.294  18.841  0.00  0.00    +0.000 C 
ATOM      3  O   UNL     1       3.599   5.700  19.829  0.00  0.00    +0.000 OA
ATOM      4  H   UNL     1       2.723   6.215  16.835  0.00  0.00    +0.000 HD
ENDROOT
BRANCH   2   5
ATOM      5  C   UNL     1       2.357   7.534  19.011  0.00  0.00    +0.000 A 
ATOM      6  C   UNL     1       2.141   8.362  17.901  0.00  0.00    +0.000 A 
ATOM      7  C   UNL     1       1.379   9.530  18.025  0.00  0.00    +0.000 A 
ATOM      8  C   UNL     1       0.803   9.881  19.253  0.00  0.00    +0.000 A 
ATOM      9  C   UNL     1       1.016   9.045  20.359  0.00  0.00    +0.000 A 
ATOM     10  C   UNL     1       1.773   7.874  20.237  0.00  0.00    +0.000 A 
BRANCH   8  11
ATOM     11  C   UNL     1       0.038  11.176  19.384  0.00  0.00    +0.000 C 
BRANCH  11  12
ATOM     12  O   UNL     1       0.689  12.088  20.255  0.00  0.00    +0.000 OA
ATOM     13  H   UNL     1       1.056  11.562  20.987  0.00  0.00    +0.000 HD
ENDBRANCH  11  12
ENDBRANCH   8  11
ENDBRANCH   2   5
BRANCH   1  14
ATOM     14  C   UNL     1       4.084   4.672  17.188  0.00  0.00    +0.000 C 
ATOM     15  C   UNL     1       5.559   4.553  17.535  0.00  0.00    +0.000 C 
ATOM     16  C   UNL     1       5.164   4.774  16.115  0.00  0.00    +0.000 C 
BRANCH  14  17
ATOM     17  C   UNL     1       3.229   3.399  17.194  0.00  0.00    +0.000 C 
BRANCH  17  18
ATOM     18  N   UNL     1       2.845   2.964  18.560  0.00  0.00    +0.000 NA
BRANCH  18  20
ATOM     19  C   UNL     1       0.767   3.292  19.975  0.00  0.00    +0.000 C 
ATOM     20  C   UNL     1       1.391   2.767  18.686  0.00  0.00    +0.000 C 
ENDBRANCH  18  20
BRANCH  18  21
ATOM     21  C   UNL     1       3.640   1.792  18.975  0.00  0.00    +0.000 C 
ATOM     22  C   UNL     1       4.574   1.984  20.169  0.00  0.00    +0.000 C 
ENDBRANCH  18  21
ENDBRANCH  17  18
ENDBRANCH  14  17
ENDBRANCH   1  14
TORSDOF 8
ENDMDL
MODEL 3
REMARK VINA RESULT:      -6.1      1.218      1.418
REMARK  Name = 
REMARK  10 active torsions:
REMARK  status: ('A' for Active; 'I' for Inactive)
REMARK    1  A    between atoms: C_1  and  C_2
REMARK    2  A    between atoms: C_2  and  N_3
REMARK    3  A    between atoms: N_3  and  C_4
REMARK    4  A    between atoms: N_3  and  C_6
REMARK    5  A    between atoms: C_4  and  C_5
REMARK    6  A    between atoms: C_6  and  C_7
REMARK    7  A    between atoms: C_7  and  N_8
REMARK    8  A    between atoms: C_9  and  C_11
REMARK    9  A    between atoms: C_14  and  C_15
REMARK   10  A    between atoms: C_15  and  O_16
REMARK                            x       y       z     vdW  Elec       q    Type
REMARK                         _______ _______ _______ _____ _____    ______ ____
ROOT
ATOM      1  N   UNL     1       2.918   6.134  19.696  0.00  0.00    +0.000 N 
ATOM      2  C   UNL     1       2.459   7.254  19.016  0.00  0.00    +0.000 C 
ATOM      3  O   UNL     1       2.643   7.461  17.818  0.00  0.00    +0.000 OA
ATOM      4  H   UNL     1       3.025   6.216  20.699  0.00  0.00    +0.000 HD
ENDROOT
BRANCH   2   5
ATOM      5  C   UNL     1       1.715   8.254  19.839  0.00  0.00    +0.000 A 
ATOM      6  C   UNL     1       1.180   9.387  19.211  0.00  0.00    +0.000 A 
ATOM      7  C   UNL     1       0.475  10.342  19.954  0.00  0.00    +0.000 A 
ATOM      8  C   UNL     1       0.275  10.173  21.331  0.00  0.00    +0.000 A 
ATOM      9  C   UNL     1       0.806   9.033  21.953  0.00  0.00    +0.000 A 
ATOM     10  C   UNL     1       1.507   8.075  21.212  0.00  0.00    +0.000 A 
BRANCH   8  11
ATOM     11  C   UNL     1      -0.432  11.243  22.127  0.00  0.00    +0.000 C 
BRANCH  11  12
ATOM     12  O   UNL     1      -0.848  10.766  23.398  0.00  0.00    +0.000 OA
ATOM     13  H   UNL     1      -1.273  11.515  23.851  0.00  0.00    +0.000 HD
ENDBRANCH  11  12
ENDBRANCH   8  11
ENDBRANCH   2   5
BRANCH   1  14
ATOM     14  C   UNL     1       3.711   5.103  19.071  0.00  0.00    +0.000 C 
ATOM     15  C   UNL     1       3.050   4.166  18.073  0.00  0.00    +0.000 C 
ATOM     16  C   UNL     1       3.386   3.657  19.433  0.00  0.00    +0.000 C 
BRANCH  14  17
ATOM     17  C   UNL     1       5.190   5.455  18.872  0.00  0.00    +0.000 C 
BRANCH  17  18
ATOM     18  N   UNL     1       5.554   5.650  17.447  0.00  0.00    +0.000 NA
BRANCH  18  20
ATOM     19  C   UNL     1       7.526   7.237  17.589  0.00  0.00    +0.000 C 
ATOM     20  C   UNL     1       6.072   7.005  17.192  0.00  0.00    +0.000 C 
ENDBRANCH  18  20
BRANCH  18  21
ATOM     21  C   UNL     1       6.456   4.576  16.988  0.00  0.00    +0.000 C 
ATOM     22  C   UNL     1       6.095   3.893  15.670  0.00  0.00    +0.000 C 
ENDBRANCH  18  21
ENDBRANCH  17  18
ENDBRANCH  14  17
ENDBRANCH   1  14
TORSDOF 8
ENDMDL
MODEL 4
REMARK VINA RESULT:      -6.1      1.889      3.706
REMARK  Name = 
REMARK  10 active torsions:
REMARK  status: ('A' for Active; 'I' for Inactive)
REMARK    1  A    between atoms: C_1  and  C_2
REMARK    2  A    between atoms: C_2  and  N_3
REMARK    3  A    between atoms: N_3  and  C_4
REMARK    4  A    between atoms: N_3  and  C_6
REMARK    5  A    between atoms: C_4  and  C_5
REMARK    6  A    between atoms: C_6  and  C_7
REMARK    7  A    between atoms: C_7  and  N_8
REMARK    8  A    between atoms: C_9  and  C_11
REMARK    9  A    between atoms: C_14  and  C_15
REMARK   10  A    between atoms: C_15  and  O_16
REMARK                            x       y       z     vdW  Elec       q    Type
REMARK                         _______ _______ _______ _____ _____    ______ ____
ROOT
ATOM      1  N   UNL     1       3.260   5.743  17.510  0.00  0.00    +0.000 N 
ATOM      2  C   UNL     1       3.168   6.269  18.792  0.00  0.00    +0.000 C 
ATOM      3  O   UNL     1       3.688   5.766  19.786  0.00  0.00    +0.000 OA
ATOM      4  H   UNL     1       2.541   6.011  16.849  0.00  0.00    +0.000 HD
ENDROOT
BRANCH   2   5
ATOM      5  C   UNL     1       2.360   7.518  18.925  0.00  0.00    +0.000 A 
ATOM      6  C   UNL     1       1.811   7.842  20.173  0.00  0.00    +0.000 A 
ATOM      7  C   UNL     1       1.050   9.007  20.332  0.00  0.00    +0.000 A 
ATOM      8  C   UNL     1       0.841   9.877  19.254  0.00  0.00    +0.000 A 
ATOM      9  C   UNL     1       1.399   9.552  18.009  0.00  0.00    +0.000 A 
ATOM     10  C   UNL     1       2.164   8.392  17.848  0.00  0.00    +0.000 A 
BRANCH   8  11
ATOM     11  C   UNL     1      -0.034  11.095  19.428  0.00  0.00    +0.000 C 
BRANCH  11  12
ATOM     12  O   UNL     1       0.694  12.197  19.948  0.00  0.00    +0.000 OA
ATOM     13  H   UNL     1       0.641  12.134  20.917  0.00  0.00    +0.000 HD
ENDBRANCH  11  12
ENDBRANCH   8  11
ENDBRANCH   2   5
BRANCH   1  14
ATOM     14  C   UNL     1       3.943   4.507  17.213  0.00  0.00    +0.000 C 
ATOM     15  C   UNL     1       5.437   4.409  17.474  0.00  0.00    +0.000 C 
ATOM     16  C   UNL     1       4.952   4.526  16.069  0.00  0.00    +0.000 C 
BRANCH  14  17
ATOM     17  C   UNL     1       3.091   3.242  17.368  0.00  0.00    +0.000 C 
BRANCH  17  18
ATOM     18  N   UNL     1       2.877   2.855  18.784  0.00  0.00    +0.000 NA
BRANCH  18  20
ATOM     19  C   UNL     1       0.854   3.612  20.111  0.00  0.00    +0.000 C 
ATOM     20  C   UNL     1       1.451   2.650  19.089  0.00  0.00    +0.000 C 
ENDBRANCH  18  20
BRANCH  18  21
ATOM     21  C   UNL     1       3.730   1.706  19.144  0.00  0.00    +0.000 C 
ATOM     22  C   UNL     1       4.658   1.889  20.345  0.00  0.00    +0.000 C 
ENDBRANCH  18  21
ENDBRANCH  17  18
ENDBRANCH  14  17
ENDBRANCH   1  14
TORSDOF 8
ENDMDL
MODEL 5
REMARK VINA RESULT:      -6.1      1.448      1.464
REMARK  Name = 
REMARK  10 active torsions:
REMARK  status: ('A' for Active; 'I' for Inactive)
REMARK    1  A    between atoms: C_1  and  C_2
REMARK    2  A    between atoms: C_2  and  N_3
REMARK    3  A    between atoms: N_3  and  C_4
REMARK    4  A    between atoms: N_3  and  C_6
REMARK    5  A    between atoms: C_4  and  C_5
REMARK    6  A    between atoms: C_6  and  C_7
REMARK    7  A    between atoms: C_7  and  N_8
REMARK    8  A    between atoms: C_9  and  C_11
REMARK    9  A    between atoms: C_14  and  C_15
REMARK   10  A    between atoms: C_15  and  O_16
REMARK                            x       y       z     vdW  Elec       q    Type
REMARK                         _______ _______ _______ _____ _____    ______ ____
ROOT
ATOM      1  N   UNL     1       3.492   5.688  18.073  0.00  0.00    +0.000 N 
ATOM      2  C   UNL     1       2.973   6.150  19.275  0.00  0.00    +0.000 C 
ATOM      3  O   UNL     1       3.045   5.542  20.341  0.00  0.00    +0.000 OA
ATOM      4  H   UNL     1       3.093   6.065  17.223  0.00  0.00    +0.000 HD
ENDROOT
BRANCH   2   5
ATOM      5  C   UNL     1       2.272   7.468  19.214  0.00  0.00    +0.000 A 
ATOM      6  C   UNL     1       2.226   8.157  17.994  0.00  0.00    +0.000 A 
ATOM      7  C   UNL     1       1.576   9.393  17.902  0.00  0.00    +0.000 A 
ATOM      8  C   UNL     1       0.942   9.953  19.020  0.00  0.00    +0.000 A 
ATOM      9  C   UNL     1       0.984   9.256  20.237  0.00  0.00    +0.000 A 
ATOM     10  C   UNL     1       1.629   8.018  20.330  0.00  0.00    +0.000 A 
BRANCH   8  11
ATOM     11  C   UNL     1       0.300  11.315  18.919  0.00  0.00    +0.000 C 
BRANCH  11  12
ATOM     12  O   UNL     1       1.064  12.200  18.113  0.00  0.00    +0.000 OA
ATOM     13  H   UNL     1       1.148  13.030  18.613  0.00  0.00    +0.000 HD
ENDBRANCH  11  12
ENDBRANCH   8  11
ENDBRANCH   2   5
BRANCH   1  14
ATOM     14  C   UNL     1       4.139   4.405  17.936  0.00  0.00    +0.000 C 
ATOM     15  C   UNL     1       3.743   3.498  16.782  0.00  0.00    +0.000 C 
ATOM     16  C   UNL     1       3.279   3.164  18.159  0.00  0.00    +0.000 C 
BRANCH  14  17
ATOM     17  C   UNL     1       5.584   4.350  18.445  0.00  0.00    +0.000 C 
BRANCH  17  18
ATOM     18  N   UNL     1       6.496   5.255  17.702  0.00  0.00    +0.000 NA
BRANCH  18  20
ATOM     19  C   UNL     1       7.852   7.375  18.007  0.00  0.00    +0.000 C 
ATOM     20  C   UNL     1       7.306   6.085  18.609  0.00  0.00    +0.000 C 
ENDBRANCH  18  20
BRANCH  18  21
ATOM     21  C   UNL     1       7.296   4.498  16.720  0.00  0.00    +0.000 C 
ATOM     22  C   UNL     1       6.937   4.689  15.247  0.00  0.00    +0.000 C 
ENDBRANCH  18  21
ENDBRANCH  17  18
ENDBRANCH  14  17
ENDBRANCH   1  14
TORSDOF 8
ENDMDL
MODEL 6
REMARK VINA RESULT:      -6.1      1.593      2.039
REMARK  Name = 
REMARK  10 active torsions:
REMARK  status: ('A' for Active; 'I' for Inactive)
REMARK    1  A    between atoms: C_1  and  C_2
REMARK    2  A    between atoms: C_2  and  N_3
REMARK    3  A    between atoms: N_3  and  C_4
REMARK    4  A    between atoms: N_3  and  C_6
REMARK    5  A    between atoms: C_4  and  C_5
REMARK    6  A    between atoms: C_6  and  C_7
REMARK    7  A    between atoms: C_7  and  N_8
REMARK    8  A    between atoms: C_9  and  C_11
REMARK    9  A    between atoms: C_14  and  C_15
REMARK   10  A    between atoms: C_15  and  O_16
REMARK                            x       y       z     vdW  Elec       q    Type
REMARK                         _______ _______ _______ _____ _____    ______ ____
ROOT
ATOM      1  N   UNL     1       2.904   5.015  17.906  0.00  0.00    +0.000 N 
ATOM      2  C   UNL     1       3.268   5.890  18.921  0.00  0.00    +0.000 C 
ATOM      3  O   UNL     1       4.127   5.650  19.767  0.00  0.00    +0.000 OA
ATOM      4  H   UNL     1       1.988   5.141  17.495  0.00  0.00    +0.000 HD
ENDROOT
BRANCH   2   5
ATOM      5  C   UNL     1       2.526   7.186  18.958  0.00  0.00    +0.000 A 
ATOM      6  C   UNL     1       1.890   7.570  20.147  0.00  0.00    +0.000 A 
ATOM      7  C   UNL     1       1.188   8.779  20.216  0.00  0.00    +0.000 A 
ATOM      8  C   UNL     1       1.126   9.635  19.108  0.00  0.00    +0.000 A 
ATOM      9  C   UNL     1       1.772   9.250  17.923  0.00  0.00    +0.000 A 
ATOM     10  C   UNL     1       2.478   8.044  17.853  0.00  0.00    +0.000 A 
BRANCH   8  11
ATOM     11  C   UNL     1       0.313  10.905  19.180  0.00  0.00    +0.000 C 
BRANCH  11  12
ATOM     12  O   UNL     1      -0.289  11.218  17.933  0.00  0.00    +0.000 OA
ATOM     13  H   UNL     1      -1.251  11.180  18.069  0.00  0.00    +0.000 HD
ENDBRANCH  11  12
ENDBRANCH   8  11
ENDBRANCH   2   5
BRANCH   1  14
ATOM     14  C   UNL     1       3.470   3.696  17.763  0.00  0.00    +0.000 C 
ATOM     15  C   UNL     1       2.548   2.528  17.451  0.00  0.00    +0.000 C 
ATOM     16  C   UNL     1       3.106   2.663  18.826  0.00  0.00    +0.000 C 
BRANCH  14  17
ATOM     17  C   UNL     1       4.903   3.659  17.221  0.00  0.00    +0.000 C 
BRANCH  17  18
ATOM     18  N   UNL     1       5.250   4.857  16.417  0.00  0.00    +0.000 NA
BRANCH  18  20
ATOM     19  C   UNL     1       6.324   7.017  17.197  0.00  0.00    +0.000 C 
ATOM     20  C   UNL     1       6.463   5.524  16.919  0.00  0.00    +0.000 C 
ENDBRANCH  18  20
BRANCH  18  21
ATOM     21  C   UNL     1       5.311   4.520  14.981  0.00  0.00    +0.000 C 
ATOM     22  C   UNL     1       6.693   4.541  14.329  0.00  0.00    +0.000 C 
ENDBRANCH  18  21
ENDBRANCH  17  18
ENDBRANCH  14  17
ENDBRANCH   1  14
TORSDOF 8
ENDMDL
MODEL 7
REMARK VINA RESULT:      -6.0      1.073      1.117
REMARK  Name = 
REMARK  10 active torsions:
REMARK  status: ('A' for Active; 'I' for Inactive)
REMARK    1  A    between atoms: C_1  and  C_2
REMARK    2  A    between atoms: C_2  and  N_3
REMARK    3  A    between atoms: N_3  and  C_4
REMARK    4  A    between atoms: N_3  and  C_6
REMARK    5  A    between atoms: C_4  and  C_5
REMARK    6  A    between atoms: C_6  and  C_7
REMARK    7  A    between atoms: C_7  and  N_8
REMARK    8  A    between atoms: C_9  and  C_11
REMARK    9  A    between atoms: C_14  and  C_15
REMARK   10  A    between atoms: C_15  and  O_16
REMARK                            x       y       z     vdW  Elec       q    Type
REMARK                         _______ _______ _______ _____ _____    ______ ____
ROOT
ATOM      1  N   UNL     1       4.045   5.552  19.278  0.00  0.00    +0.000 N 
ATOM      2  C   UNL     1       2.933   5.961  18.552  0.00  0.00    +0.000 C 
ATOM      3  O   UNL     1       2.480   5.358  17.582  0.00  0.00    +0.000 OA
ATOM      4  H   UNL     1       4.536   6.261  19.808  0.00  0.00    +0.000 HD
ENDROOT
BRANCH   2   5
ATOM      5  C   UNL     1       2.295   7.233  19.005  0.00  0.00    +0.000 A 
ATOM      6  C   UNL     1       2.099   8.263  18.075  0.00  0.00    +0.000 A 
ATOM      7  C   UNL     1       1.501   9.467  18.466  0.00  0.00    +0.000 A 
ATOM      8  C   UNL     1       1.070   9.656  19.786  0.00  0.00    +0.000 A 
ATOM      9  C   UNL     1       1.261   8.619  20.711  0.00  0.00    +0.000 A 
ATOM     10  C   UNL     1       1.854   7.413  20.322  0.00  0.00    +0.000 A 
BRANCH   8  11
ATOM     11  C   UNL     1       0.484  10.983  20.206  0.00  0.00    +0.000 C 
BRANCH  11  12
ATOM     12  O   UNL     1       0.894  11.350  21.515  0.00  0.00    +0.000 OA
ATOM     13  H   UNL     1       0.258  12.015  21.830  0.00  0.00    +0.000 HD
ENDBRANCH  11  12
ENDBRANCH   8  11
ENDBRANCH   2   5
BRANCH   1  14
ATOM     14  C   UNL     1       4.822   4.386  18.937  0.00  0.00    +0.000 C 
ATOM     15  C   UNL     1       4.135   3.215  18.253  0.00  0.00    +0.000 C 
ATOM     16  C   UNL     1       4.512   3.096  19.690  0.00  0.00    +0.000 C 
BRANCH  14  17
ATOM     17  C   UNL     1       6.294   4.662  18.607  0.00  0.00    +0.000 C 
BRANCH  17  18
ATOM     18  N   UNL     1       6.489   5.899  17.811  0.00  0.00    +0.000 NA
BRANCH  18  20
ATOM     19  C   UNL     1       7.811   8.056  17.653  0.00  0.00    +0.000 C 
ATOM     20  C   UNL     1       7.657   6.670  18.270  0.00  0.00    +0.000 C 
ENDBRANCH  18  20
BRANCH  18  21
ATOM     21  C   UNL     1       6.514   5.590  16.368  0.00  0.00    +0.000 C 
ATOM     22  C   UNL     1       5.278   5.986  15.560  0.00  0.00    +0.000 C 
ENDBRANCH  18  21
ENDBRANCH  17  18
ENDBRANCH  14  17
ENDBRANCH   1  14
TORSDOF 8
ENDMDL
MODEL 8
REMARK VINA RESULT:      -6.0      1.633      1.821
REMARK  Name = 
REMARK  10 active torsions:
REMARK  status: ('A' for Active; 'I' for Inactive)
REMARK    1  A    between atoms: C_1  and  C_2
REMARK    2  A    between atoms: C_2  and  N_3
REMARK    3  A    between atoms: N_3  and  C_4
REMARK    4  A    between atoms: N_3  and  C_6
REMARK    5  A    between atoms: C_4  and  C_5
REMARK    6  A    between atoms: C_6  and  C_7
REMARK    7  A    between atoms: C_7  and  N_8
REMARK    8  A    between atoms: C_9  and  C_11
REMARK    9  A    between atoms: C_14  and  C_15
REMARK   10  A    between atoms: C_15  and  O_16
REMARK                            x       y       z     vdW  Elec       q    Type
REMARK                         _______ _______ _______ _____ _____    ______ ____
ROOT
ATOM      1  N   UNL     1       2.896   5.040  17.933  0.00  0.00    +0.000 N 
ATOM      2  C   UNL     1       3.277   5.886  18.967  0.00  0.00    +0.000 C 
ATOM      3  O   UNL     1       4.175   5.637  19.769  0.00  0.00    +0.000 OA
ATOM      4  H   UNL     1       1.960   5.157  17.564  0.00  0.00    +0.000 HD
ENDROOT
BRANCH   2   5
ATOM      5  C   UNL     1       2.505   7.159  19.082  0.00  0.00    +0.000 A 
ATOM      6  C   UNL     1       2.351   7.964  17.945  0.00  0.00    +0.000 A 
ATOM      7  C   UNL     1       1.631   9.163  18.018  0.00  0.00    +0.000 A 
ATOM      8  C   UNL     1       1.035   9.568  19.220  0.00  0.00    +0.000 A 
ATOM      9  C   UNL     1       1.186   8.754  20.353  0.00  0.00    +0.000 A 
ATOM     10  C   UNL     1       1.901   7.553  20.282  0.00  0.00    +0.000 A 
BRANCH   8  11
ATOM     11  C   UNL     1       0.316  10.893  19.297  0.00  0.00    +0.000 C 
BRANCH  11  12
ATOM     12  O   UNL     1       0.286  11.550  18.039  0.00  0.00    +0.000 OA
ATOM     13  H   UNL     1       0.781  12.381  18.147  0.00  0.00    +0.000 HD
ENDBRANCH  11  12
ENDBRANCH   8  11
ENDBRANCH   2   5
BRANCH   1  14
ATOM     14  C   UNL     1       3.488   3.742  17.719  0.00  0.00    +0.000 C 
ATOM     15  C   UNL     1       2.610   2.603  17.226  0.00  0.00    +0.000 C 
ATOM     16  C   UNL     1       3.052   2.614  18.650  0.00  0.00    +0.000 C 
BRANCH  14  17
ATOM     17  C   UNL     1       4.961   3.763  17.295  0.00  0.00    +0.000 C 
BRANCH  17  18
ATOM     18  N   UNL     1       5.284   4.882  16.375  0.00  0.00    +0.000 NA
BRANCH  18  20
ATOM     19  C   UNL     1       7.334   4.913  17.867  0.00  0.00    +0.000 C 
ATOM     20  C   UNL     1       6.503   5.598  16.787  0.00  0.00    +0.000 C 
ENDBRANCH  18  20
BRANCH  18  21
ATOM     21  C   UNL     1       5.319   4.413  14.976  0.00  0.00    +0.000 C 
ATOM     22  C   UNL     1       6.655   4.533  14.244  0.00  0.00    +0.000 C 
ENDBRANCH  18  21
ENDBRANCH  17  18
ENDBRANCH  14  17
ENDBRANCH   1  14
TORSDOF 8
ENDMDL
MODEL 9
REMARK VINA RESULT:      -6.0      1.416      1.804
REMARK  Name = 
REMARK  10 active torsions:
REMARK  status: ('A' for Active; 'I' for Inactive)
REMARK    1  A    between atoms: C_1  and  C_2
REMARK    2  A    between atoms: C_2  and  N_3
REMARK    3  A    between atoms: N_3  and  C_4
REMARK    4  A    between atoms: N_3  and  C_6
REMARK    5  A    between atoms: C_4  and  C_5
REMARK    6  A    between atoms: C_6  and  C_7
REMARK    7  A    between atoms: C_7  and  N_8
REMARK    8  A    between atoms: C_9  and  C_11
REMARK    9  A    between atoms: C_14  and  C_15
REMARK   10  A    between atoms: C_15  and  O_16
REMARK                            x       y       z     vdW  Elec       q    Type
REMARK                         _______ _______ _______ _____ _____    ______ ____
ROOT
ATOM      1  N   UNL     1       3.458   5.687  17.904  0.00  0.00    +0.000 N 
ATOM      2  C   UNL     1       3.087   6.201  19.141  0.00  0.00    +0.000 C 
ATOM      3  O   UNL     1       3.354   5.671  20.218  0.00  0.00    +0.000 OA
ATOM      4  H   UNL     1       2.916   5.982  17.102  0.00  0.00    +0.000 HD
ENDROOT
BRANCH   2   5
ATOM      5  C   UNL     1       2.299   7.469  19.107  0.00  0.00    +0.000 A 
ATOM      6  C   UNL     1       1.708   7.932  20.291  0.00  0.00    +0.000 A 
ATOM      7  C   UNL     1       0.965   9.118  20.294  0.00  0.00    +0.000 A 
ATOM      8  C   UNL     1       0.816   9.873  19.122  0.00  0.00    +0.000 A 
ATOM      9  C   UNL     1       1.417   9.409  17.943  0.00  0.00    +0.000 A 
ATOM     10  C   UNL     1       2.164   8.226  17.937  0.00  0.00    +0.000 A 
BRANCH   8  11
ATOM     11  C   UNL     1      -0.041  11.116  19.130  0.00  0.00    +0.000 C 
BRANCH  11  12
ATOM     12  O   UNL     1      -0.671  11.330  17.876  0.00  0.00    +0.000 OA
ATOM     13  H   UNL     1      -0.279  10.693  17.254  0.00  0.00    +0.000 HD
ENDBRANCH  11  12
ENDBRANCH   8  11
ENDBRANCH   2   5
BRANCH   1  14
ATOM     14  C   UNL     1       4.162   4.438  17.749  0.00  0.00    +0.000 C 
ATOM     15  C   UNL     1       3.676   3.441  16.709  0.00  0.00    +0.000 C 
ATOM     16  C   UNL     1       3.421   3.166  18.152  0.00  0.00    +0.000 C 
BRANCH  14  17
ATOM     17  C   UNL     1       5.662   4.496  18.059  0.00  0.00    +0.000 C 
BRANCH  17  18
ATOM     18  N   UNL     1       6.419   5.344  17.105  0.00  0.00    +0.000 NA
BRANCH  18  20
ATOM     19  C   UNL     1       7.817   5.865  19.155  0.00  0.00    +0.000 C 
ATOM     20  C   UNL     1       7.285   6.313  17.798  0.00  0.00    +0.000 C 
ENDBRANCH  18  20
BRANCH  18  21
ATOM     21  C   UNL     1       7.135   4.509  16.121  0.00  0.00    +0.000 C 
ATOM     22  C   UNL     1       6.691   4.632  14.664  0.00  0.00    +0.000 C 
ENDBRANCH  18  21
ENDBRANCH  17  18
ENDBRANCH  14  17
ENDBRANCH   1  14
TORSDOF 8
ENDMDL
