MODEL 1
REMARK VINA RESULT:      -6.6      0.000      0.000
REMARK  Name = 
REMARK  1 active torsions:
REMARK  status: ('A' for Active; 'I' for Inactive)
REMARK    1  A    between atoms: N_4  and  C_5
REMARK                            x       y       z     vdW  Elec       q    Type
REMARK                         _______ _______ _______ _____ _____    ______ ____
ROOT
ATOM      1  C   UNL     1      -3.743  14.985  23.045  0.00  0.00    +0.000 C 
ATOM      2  C   UNL     1      -3.774  13.533  23.543  0.00  0.00    +0.000 C 
ATOM      3  C   UNL     1      -2.497  12.767  23.243  0.00  0.00    +0.000 C 
ATOM      4  N   UNL     1      -2.236  12.823  21.802  0.00  0.00    +0.000 N 
ATOM      5  C   UNL     1      -1.307  11.836  21.389  0.00  0.00    +0.000 A 
ATOM      6  N   UNL     1      -0.500  11.342  22.375  0.00  0.00    +0.000 NA
ATOM      7  C   UNL     1       0.255  10.302  21.959  0.00  0.00    +0.000 A 
ATOM      8  N   UNL     1       1.089   9.580  22.712  0.00  0.00    +0.000 NA
ATOM      9  O   UNL     1       1.591   8.611  21.845  0.00  0.00    +0.000 OA
ATOM     10  N   UNL     1       1.087   8.753  20.552  0.00  0.00    +0.000 NA
ATOM     11  C   UNL     1       0.261   9.799  20.624  0.00  0.00    +0.000 A 
ATOM     12  N   UNL     1      -0.486  10.316  19.614  0.00  0.00    +0.000 NA
ATOM     13  C   UNL     1      -1.305  11.335  20.014  0.00  0.00    +0.000 A 
ATOM     14  N   UNL     1      -2.146  11.833  19.023  0.00  0.00    +0.000 N 
ATOM     15  C   UNL     1      -1.687  11.810  17.626  0.00  0.00    +0.000 C 
ATOM     16  C   UNL     1      -2.522  10.883  16.743  0.00  0.00    +0.000 C 
ATOM     17  S   UNL     1      -4.281  11.366  16.716  0.00  0.00    +0.000 S 
ATOM     18  C   UNL     1      -4.544  11.324  18.515  0.00  0.00    +0.000 C 
ATOM     19  C   UNL     1      -3.547  12.197  19.274  0.00  0.00    +0.000 C 
ATOM     20  C   UNL     1      -1.983  14.181  21.300  0.00  0.00    +0.000 C 
ATOM     21  C   UNL     1      -3.210  15.057  21.596  0.00  0.00    +0.000 C 
ENDROOT
BRANCH   1  25
ATOM     22  C   UNL     1      -1.614  15.512  25.745  0.00  0.00    +0.000 C 
ATOM     23  C   UNL     1      -0.854  15.812  24.473  0.00  0.00    +0.000 C 
ATOM     24  C   UNL     1      -1.857  16.572  23.632  0.00  0.00    +0.000 C 
ATOM     25  N   UNL     1      -3.162  15.999  23.949  0.00  0.00    +0.000 NA
ATOM     26  C   UNL     1      -3.087  15.551  25.352  0.00  0.00    +0.000 C 
ENDBRANCH   1  25
TORSDOF 1
ENDMDL
MODEL 2
REMARK VINA RESULT:      -6.5      3.522      6.953
REMARK  Name = 
REMARK  1 active torsions:
REMARK  status: ('A' for Active; 'I' for Inactive)
REMARK    1  A    between atoms: N_4  and  C_5
REMARK                            x       y       z     vdW  Elec       q    Type
REMARK                         _______ _______ _______ _____ _____    ______ ____
ROOT
ATOM      1  C   UNL     1      -0.401  11.313  21.337  0.00  0.00    +0.000 C 
ATOM      2  C   UNL     1      -0.876  11.458  22.790  0.00  0.00    +0.000 C 
ATOM      3  C   UNL     1      -2.378  11.642  22.916  0.00  0.00    +0.000 C 
ATOM      4  N   UNL     1      -2.786  12.797  22.111  0.00  0.00    +0.000 N 
ATOM      5  C   UNL     1      -4.074  13.268  22.468  0.00  0.00    +0.000 A 
ATOM      6  N   UNL     1      -4.871  12.364  23.113  0.00  0.00    +0.000 NA
ATOM      7  C   UNL     1      -6.022  12.910  23.562  0.00  0.00    +0.000 A 
ATOM      8  N   UNL     1      -6.963  12.290  24.279  0.00  0.00    +0.000 NA
ATOM      9  O   UNL     1      -7.916  13.276  24.529  0.00  0.00    +0.000 OA
ATOM     10  N   UNL     1      -7.574  14.496  23.945  0.00  0.00    +0.000 NA
ATOM     11  C   UNL     1      -6.402  14.268  23.347  0.00  0.00    +0.000 A 
ATOM     12  N   UNL     1      -5.655  15.167  22.656  0.00  0.00    +0.000 NA
ATOM     13  C   UNL     1      -4.455  14.661  22.234  0.00  0.00    +0.000 A 
ATOM     14  N   UNL     1      -3.627  15.578  21.594  0.00  0.00    +0.000 N 
ATOM     15  C   UNL     1      -4.240  16.667  20.819  0.00  0.00    +0.000 C 
ATOM     16  C   UNL     1      -3.961  18.048  21.414  0.00  0.00    +0.000 C 
ATOM     17  S   UNL     1      -2.175  18.403  21.508  0.00  0.00    +0.000 S 
ATOM     18  C   UNL     1      -1.712  16.932  22.470  0.00  0.00    +0.000 C 
ATOM     19  C   UNL     1      -2.176  15.632  21.815  0.00  0.00    +0.000 C 
ATOM     20  C   UNL     1      -2.551  12.627  20.671  0.00  0.00    +0.000 C 
ATOM     21  C   UNL     1      -1.051  12.389  20.437  0.00  0.00    +0.000 C 
ENDROOT
BRANCH   1  25
ATOM     22  C   UNL     1       1.566   8.752  20.044  0.00  0.00    +0.000 C 
ATOM     23  C   UNL     1       1.254   8.430  21.488  0.00  0.00    +0.000 C 
ATOM     24  C   UNL     1      -0.206   8.804  21.626  0.00  0.00    +0.000 C 
ATOM     25  N   UNL     1      -0.411   9.957  20.753  0.00  0.00    +0.000 NA
ATOM     26  C   UNL     1       0.536   9.800  19.634  0.00  0.00    +0.000 C 
ENDBRANCH   1  25
TORSDOF 1
ENDMDL
MODEL 3
REMARK VINA RESULT:      -6.3      1.253      1.706
REMARK  Name = 
REMARK  1 active torsions:
REMARK  status: ('A' for Active; 'I' for Inactive)
REMARK    1  A    between atoms: N_4  and  C_5
REMARK                            x       y       z     vdW  Elec       q    Type
REMARK                         _______ _______ _______ _____ _____    ______ ____
ROOT
ATOM      1  C   UNL     1      -4.539  14.903  22.709  0.00  0.00    +0.000 C 
ATOM      2  C   UNL     1      -4.528  13.461  23.239  0.00  0.00    +0.000 C 
ATOM      3  C   UNL     1      -3.177  12.781  23.104  0.00  0.00    +0.000 C 
ATOM      4  N   UNL     1      -2.757  12.829  21.701  0.00  0.00    +0.000 N 
ATOM      5  C   UNL     1      -1.722  11.902  21.422  0.00  0.00    +0.000 A 
ATOM      6  N   UNL     1      -1.001  11.484  22.505  0.00  0.00    +0.000 NA
ATOM      7  C   UNL     1      -0.135  10.493  22.205  0.00  0.00    +0.000 A 
ATOM      8  N   UNL     1       0.654   9.844  23.066  0.00  0.00    +0.000 NA
ATOM      9  O   UNL     1       1.316   8.897  22.287  0.00  0.00    +0.000 OA
ATOM     10  N   UNL     1       0.954   8.979  20.942  0.00  0.00    +0.000 NA
ATOM     11  C   UNL     1       0.057   9.966  20.893  0.00  0.00    +0.000 A 
ATOM     12  N   UNL     1      -0.603  10.410  19.792  0.00  0.00    +0.000 NA
ATOM     13  C   UNL     1      -1.530  11.377  20.070  0.00  0.00    +0.000 A 
ATOM     14  N   UNL     1      -2.284  11.796  18.978  0.00  0.00    +0.000 N 
ATOM     15  C   UNL     1      -1.668  11.779  17.643  0.00  0.00    +0.000 C 
ATOM     16  C   UNL     1      -2.332  10.779  16.696  0.00  0.00    +0.000 C 
ATOM     17  S   UNL     1      -4.104  11.136  16.458  0.00  0.00    +0.000 S 
ATOM     18  C   UNL     1      -4.567  11.110  18.216  0.00  0.00    +0.000 C 
ATOM     19  C   UNL     1      -3.725  12.065  19.059  0.00  0.00    +0.000 C 
ATOM     20  C   UNL     1      -2.541  14.191  21.195  0.00  0.00    +0.000 C 
ATOM     21  C   UNL     1      -3.850  14.984  21.328  0.00  0.00    +0.000 C 
ENDROOT
BRANCH   1  25
ATOM     22  C   UNL     1      -4.433  18.339  23.236  0.00  0.00    +0.000 C 
ATOM     23  C   UNL     1      -5.638  17.784  23.959  0.00  0.00    +0.000 C 
ATOM     24  C   UNL     1      -5.119  16.506  24.583  0.00  0.00    +0.000 C 
ATOM     25  N   UNL     1      -4.136  15.972  23.645  0.00  0.00    +0.000 NA
ATOM     26  C   UNL     1      -3.533  17.136  22.970  0.00  0.00    +0.000 C 
ENDBRANCH   1  25
TORSDOF 1
ENDMDL
MODEL 4
REMARK VINA RESULT:      -6.2      3.166      4.924
REMARK  Name = 
REMARK  1 active torsions:
REMARK  status: ('A' for Active; 'I' for Inactive)
REMARK    1  A    between atoms: N_4  and  C_5
REMARK                            x       y       z     vdW  Elec       q    Type
REMARK                         _______ _______ _______ _____ _____    ______ ____
ROOT
ATOM      1  C   UNL     1      -4.541  14.592  23.239  0.00  0.00    +0.000 C 
ATOM      2  C   UNL     1      -4.750  15.105  21.807  0.00  0.00    +0.000 C 
ATOM      3  C   UNL     1      -4.733  14.001  20.764  0.00  0.00    +0.000 C 
ATOM      4  N   UNL     1      -3.476  13.257  20.878  0.00  0.00    +0.000 N 
ATOM      5  C   UNL     1      -3.208  12.481  19.724  0.00  0.00    +0.000 A 
ATOM      6  N   UNL     1      -4.296  12.187  18.950  0.00  0.00    +0.000 NA
ATOM      7  C   UNL     1      -3.963  11.580  17.790  0.00  0.00    +0.000 A 
ATOM      8  N   UNL     1      -4.802  11.233  16.811  0.00  0.00    +0.000 NA
ATOM      9  O   UNL     1      -3.981  10.686  15.826  0.00  0.00    +0.000 OA
ATOM     10  N   UNL     1      -2.639  10.674  16.209  0.00  0.00    +0.000 NA
ATOM     11  C   UNL     1      -2.630  11.227  17.424  0.00  0.00    +0.000 A 
ATOM     12  N   UNL     1      -1.542  11.452  18.206  0.00  0.00    +0.000 NA
ATOM     13  C   UNL     1      -1.837  12.118  19.364  0.00  0.00    +0.000 A 
ATOM     14  N   UNL     1      -0.735  12.439  20.150  0.00  0.00    +0.000 N 
ATOM     15  C   UNL     1       0.433  11.547  20.133  0.00  0.00    +0.000 C 
ATOM     16  C   UNL     1       1.677  12.209  19.539  0.00  0.00    +0.000 C 
ATOM     17  S   UNL     1       2.164  13.703  20.464  0.00  0.00    +0.000 S 
ATOM     18  C   UNL     1       0.570  14.568  20.333  0.00  0.00    +0.000 C 
ATOM     19  C   UNL     1      -0.598  13.726  20.844  0.00  0.00    +0.000 C 
ATOM     20  C   UNL     1      -3.316  12.560  22.162  0.00  0.00    +0.000 C 
ATOM     21  C   UNL     1      -3.363  13.593  23.298  0.00  0.00    +0.000 C 
ENDROOT
BRANCH   1  25
ATOM     22  C   UNL     1      -7.917  13.790  22.986  0.00  0.00    +0.000 C 
ATOM     23  C   UNL     1      -7.119  12.506  22.965  0.00  0.00    +0.000 C 
ATOM     24  C   UNL     1      -6.064  12.727  24.028  0.00  0.00    +0.000 C 
ATOM     25  N   UNL     1      -5.740  14.150  23.982  0.00  0.00    +0.000 NA
ATOM     26  C   UNL     1      -6.971  14.842  23.558  0.00  0.00    +0.000 C 
ENDBRANCH   1  25
TORSDOF 1
ENDMDL
MODEL 5
REMARK VINA RESULT:      -6.2      3.640      7.187
REMARK  Name = 
REMARK  1 active torsions:
REMARK  status: ('A' for Active; 'I' for Inactive)
REMARK    1  A    between atoms: N_4  and  C_5
REMARK                            x       y       z     vdW  Elec       q    Type
REMARK                         _______ _______ _______ _____ _____    ______ ____
ROOT
ATOM      1  C   UNL     1       0.038  12.631  21.166  0.00  0.00    +0.000 C 
ATOM      2  C   UNL     1      -0.636  11.841  22.297  0.00  0.00    +0.000 C 
ATOM      3  C   UNL     1      -2.147  11.988  22.316  0.00  0.00    +0.000 C 
ATOM      4  N   UNL     1      -2.487  13.411  22.395  0.00  0.00    +0.000 N 
ATOM      5  C   UNL     1      -3.829  13.618  22.800  0.00  0.00    +0.000 A 
ATOM      6  N   UNL     1      -4.670  12.559  22.606  0.00  0.00    +0.000 NA
ATOM      7  C   UNL     1      -5.892  12.756  23.147  0.00  0.00    +0.000 A 
ATOM      8  N   UNL     1      -6.897  11.877  23.171  0.00  0.00    +0.000 NA
ATOM      9  O   UNL     1      -7.913  12.528  23.869  0.00  0.00    +0.000 OA
ATOM     10  N   UNL     1      -7.542  13.818  24.253  0.00  0.00    +0.000 NA
ATOM     11  C   UNL     1      -6.292  13.957  23.806  0.00  0.00    +0.000 A 
ATOM     12  N   UNL     1      -5.493  15.045  23.955  0.00  0.00    +0.000 NA
ATOM     13  C   UNL     1      -4.229  14.858  23.466  0.00  0.00    +0.000 A 
ATOM     14  N   UNL     1      -3.357  15.923  23.676  0.00  0.00    +0.000 N 
ATOM     15  C   UNL     1      -3.901  17.289  23.709  0.00  0.00    +0.000 C 
ATOM     16  C   UNL     1      -3.760  17.951  25.079  0.00  0.00    +0.000 C 
ATOM     17  S   UNL     1      -2.018  18.060  25.609  0.00  0.00    +0.000 S 
ATOM     18  C   UNL     1      -1.634  16.290  25.454  0.00  0.00    +0.000 C 
ATOM     19  C   UNL     1      -1.953  15.740  24.066  0.00  0.00    +0.000 C 
ATOM     20  C   UNL     1      -2.051  14.188  21.226  0.00  0.00    +0.000 C 
ATOM     21  C   UNL     1      -0.526  14.069  21.090  0.00  0.00    +0.000 C 
ENDROOT
BRANCH   1  25
ATOM     22  C   UNL     1      -1.386  10.305  19.008  0.00  0.00    +0.000 C 
ATOM     23  C   UNL     1      -1.821  11.686  18.573  0.00  0.00    +0.000 C 
ATOM     24  C   UNL     1      -0.559  12.513  18.707  0.00  0.00    +0.000 C 
ATOM     25  N   UNL     1       0.160  11.965  19.853  0.00  0.00    +0.000 NA
ATOM     26  C   UNL     1      -0.169  10.528  19.900  0.00  0.00    +0.000 C 
ENDBRANCH   1  25
TORSDOF 1
ENDMDL
MODEL 6
REMARK VINA RESULT:      -6.1      9.057     11.621
REMARK  Name = 
REMARK  1 active torsions:
REMARK  status: ('A' for Active; 'I' for Inactive)
REMARK    1  A    between atoms: N_4  and  C_5
REMARK                            x       y       z     vdW  Elec       q    Type
REMARK                         _______ _______ _______ _____ _____    ______ ____
ROOT
ATOM      1  C   UNL     1       9.083  13.417  21.562  0.00  0.00    +0.000 C 
ATOM      2  C   UNL     1       9.133  12.085  22.325  0.00  0.00    +0.000 C 
ATOM      3  C   UNL     1       7.821  11.732  23.005  0.00  0.00    +0.000 C 
ATOM      4  N   UNL     1       7.433  12.832  23.892  0.00  0.00    +0.000 N 
ATOM      5  C   UNL     1       6.454  12.436  24.837  0.00  0.00    +0.000 A 
ATOM      6  N   UNL     1       5.730  11.327  24.500  0.00  0.00    +0.000 NA
ATOM      7  C   UNL     1       4.923  10.908  25.499  0.00  0.00    +0.000 A 
ATOM      8  N   UNL     1       4.148   9.821  25.484  0.00  0.00    +0.000 NA
ATOM      9  O   UNL     1       3.553   9.800  26.745  0.00  0.00    +0.000 OA
ATOM     10  N   UNL     1       3.942  10.889  27.526  0.00  0.00    +0.000 NA
ATOM     11  C   UNL     1       4.789  11.573  26.754  0.00  0.00    +0.000 A 
ATOM     12  N   UNL     1       5.452  12.712  27.085  0.00  0.00    +0.000 NA
ATOM     13  C   UNL     1       6.321  13.133  26.117  0.00  0.00    +0.000 A 
ATOM     14  N   UNL     1       7.079  14.250  26.456  0.00  0.00    +0.000 N 
ATOM     15  C   UNL     1       6.497  15.253  27.360  0.00  0.00    +0.000 C 
ATOM     16  C   UNL     1       7.233  15.347  28.696  0.00  0.00    +0.000 C 
ATOM     17  S   UNL     1       8.991  15.784  28.479  0.00  0.00    +0.000 S 
ATOM     18  C   UNL     1       9.412  14.426  27.345  0.00  0.00    +0.000 C 
ATOM     19  C   UNL     1       8.502  14.381  26.119  0.00  0.00    +0.000 C 
ATOM     20  C   UNL     1       7.161  14.092  23.187  0.00  0.00    +0.000 C 
ATOM     21  C   UNL     1       8.424  14.519  22.424  0.00  0.00    +0.000 C 
ENDROOT
BRANCH   1  25
ATOM     22  C   UNL     1       9.586  14.634  18.343  0.00  0.00    +0.000 C 
ATOM     23  C   UNL     1      10.236  13.273  18.444  0.00  0.00    +0.000 C 
ATOM     24  C   UNL     1       9.227  12.456  19.223  0.00  0.00    +0.000 C 
ATOM     25  N   UNL     1       8.603  13.380  20.166  0.00  0.00    +0.000 NA
ATOM     26  C   UNL     1       8.612  14.703  19.514  0.00  0.00    +0.000 C 
ENDBRANCH   1  25
TORSDOF 1
ENDMDL
MODEL 7
REMARK VINA RESULT:      -6.1      1.279      1.456
REMARK  Name = 
REMARK  1 active torsions:
REMARK  status: ('A' for Active; 'I' for Inactive)
REMARK    1  A    between atoms: N_4  and  C_5
REMARK                            x       y       z     vdW  Elec       q    Type
REMARK                         _______ _______ _______ _____ _____    ______ ____
ROOT
ATOM      1  C   UNL     1      -5.308  15.198  22.046  0.00  0.00    +0.000 C 
ATOM      2  C   UNL     1      -5.304  13.810  22.704  0.00  0.00    +0.000 C 
ATOM      3  C   UNL     1      -3.921  13.187  22.787  0.00  0.00    +0.000 C 
ATOM      4  N   UNL     1      -3.341  13.133  21.442  0.00  0.00    +0.000 N 
ATOM      5  C   UNL     1      -2.247  12.237  21.369  0.00  0.00    +0.000 A 
ATOM      6  N   UNL     1      -1.643  11.950  22.561  0.00  0.00    +0.000 NA
ATOM      7  C   UNL     1      -0.710  10.979  22.453  0.00  0.00    +0.000 A 
ATOM      8  N   UNL     1      -0.004  10.447  23.454  0.00  0.00    +0.000 NA
ATOM      9  O   UNL     1       0.781   9.469  22.845  0.00  0.00    +0.000 OA
ATOM     10  N   UNL     1       0.577   9.417  21.466  0.00  0.00    +0.000 NA
ATOM     11  C   UNL     1      -0.345  10.351  21.225  0.00  0.00    +0.000 A 
ATOM     12  N   UNL     1      -0.887  10.665  20.020  0.00  0.00    +0.000 NA
ATOM     13  C   UNL     1      -1.877  11.606  20.101  0.00  0.00    +0.000 A 
ATOM     14  N   UNL     1      -2.512  11.892  18.897  0.00  0.00    +0.000 N 
ATOM     15  C   UNL     1      -1.743  11.789  17.647  0.00  0.00    +0.000 C 
ATOM     16  C   UNL     1      -2.253  10.680  16.727  0.00  0.00    +0.000 C 
ATOM     17  S   UNL     1      -3.998  10.929  16.257  0.00  0.00    +0.000 S 
ATOM     18  C   UNL     1      -4.663  11.033  17.946  0.00  0.00    +0.000 C 
ATOM     19  C   UNL     1      -3.962  12.097  18.789  0.00  0.00    +0.000 C 
ATOM     20  C   UNL     1      -3.120  14.455  20.841  0.00  0.00    +0.000 C 
ATOM     21  C   UNL     1      -4.465  15.193  20.751  0.00  0.00    +0.000 C 
ENDROOT
BRANCH   1  25
ATOM     22  C   UNL     1      -3.836  16.274  25.008  0.00  0.00    +0.000 C 
ATOM     23  C   UNL     1      -2.891  16.581  23.869  0.00  0.00    +0.000 C 
ATOM     24  C   UNL     1      -3.806  17.102  22.781  0.00  0.00    +0.000 C 
ATOM     25  N   UNL     1      -5.058  16.362  22.920  0.00  0.00    +0.000 NA
ATOM     26  C   UNL     1      -5.196  16.050  24.355  0.00  0.00    +0.000 C 
ENDBRANCH   1  25
TORSDOF 1
ENDMDL
MODEL 8
REMARK VINA RESULT:      -6.0      9.235     12.079
REMARK  Name = 
REMARK  1 active torsions:
REMARK  status: ('A' for Active; 'I' for Inactive)
REMARK    1  A    between atoms: N_4  and  C_5
REMARK                            x       y       z     vdW  Elec       q    Type
REMARK                         _______ _______ _______ _____ _____    ______ ____
ROOT
ATOM      1  C   UNL     1       9.839  13.336  20.392  0.00  0.00    +0.000 C 
ATOM      2  C   UNL     1       9.944  12.281  21.503  0.00  0.00    +0.000 C 
ATOM      3  C   UNL     1       8.635  12.047  22.236  0.00  0.00    +0.000 C 
ATOM      4  N   UNL     1       8.152  13.324  22.769  0.00  0.00    +0.000 N 
ATOM      5  C   UNL     1       7.169  13.146  23.773  0.00  0.00    +0.000 A 
ATOM      6  N   UNL     1       6.524  11.941  23.755  0.00  0.00    +0.000 NA
ATOM      7  C   UNL     1       5.711  11.768  24.820  0.00  0.00    +0.000 A 
ATOM      8  N   UNL     1       5.004  10.671  25.104  0.00  0.00    +0.000 NA
ATOM      9  O   UNL     1       4.371  10.967  26.310  0.00  0.00    +0.000 OA
ATOM     10  N   UNL     1       4.668  12.256  26.755  0.00  0.00    +0.000 NA
ATOM     11  C   UNL     1       5.496  12.750  25.832  0.00  0.00    +0.000 A 
ATOM     12  N   UNL     1       6.078  13.977  25.836  0.00  0.00    +0.000 NA
ATOM     13  C   UNL     1       6.952  14.165  24.800  0.00  0.00    +0.000 A 
ATOM     14  N   UNL     1       7.629  15.380  24.819  0.00  0.00    +0.000 N 
ATOM     15  C   UNL     1       6.958  16.557  25.392  0.00  0.00    +0.000 C 
ATOM     16  C   UNL     1       7.643  17.074  26.657  0.00  0.00    +0.000 C 
ATOM     17  S   UNL     1       9.377  17.548  26.349  0.00  0.00    +0.000 S 
ATOM     18  C   UNL     1       9.917  15.958  25.655  0.00  0.00    +0.000 C 
ATOM     19  C   UNL     1       9.052  15.507  24.479  0.00  0.00    +0.000 C 
ATOM     20  C   UNL     1       7.827  14.312  21.731  0.00  0.00    +0.000 C 
ATOM     21  C   UNL     1       9.087  14.589  20.896  0.00  0.00    +0.000 C 
ENDROOT
BRANCH   1  25
ATOM     22  C   UNL     1      10.784  12.953  17.067  0.00  0.00    +0.000 C 
ATOM     23  C   UNL     1      10.966  11.627  17.769  0.00  0.00    +0.000 C 
ATOM     24  C   UNL     1       9.730  11.513  18.636  0.00  0.00    +0.000 C 
ATOM     25  N   UNL     1       9.408  12.874  19.057  0.00  0.00    +0.000 NA
ATOM     26  C   UNL     1       9.853  13.760  17.965  0.00  0.00    +0.000 C 
ENDBRANCH   1  25
TORSDOF 1
ENDMDL
MODEL 9
REMARK VINA RESULT:      -6.0      9.052     11.212
REMARK  Name = 
REMARK  1 active torsions:
REMARK  status: ('A' for Active; 'I' for Inactive)
REMARK    1  A    between atoms: N_4  and  C_5
REMARK                            x       y       z     vdW  Elec       q    Type
REMARK                         _______ _______ _______ _____ _____    ______ ____
ROOT
ATOM      1  C   UNL     1      10.376  15.066  18.930  0.00  0.00    +0.000 C 
ATOM      2  C   UNL     1      10.550  15.306  20.437  0.00  0.00    +0.000 C 
ATOM      3  C   UNL     1       9.817  14.289  21.296  0.00  0.00    +0.000 C 
ATOM      4  N   UNL     1       8.400  14.284  20.924  0.00  0.00    +0.000 N 
ATOM      5  C   UNL     1       7.591  13.669  21.911  0.00  0.00    +0.000 A 
ATOM      6  N   UNL     1       8.245  12.817  22.757  0.00  0.00    +0.000 NA
ATOM      7  C   UNL     1       7.462  12.380  23.766  0.00  0.00    +0.000 A 
ATOM      8  N   UNL     1       7.840  11.592  24.776  0.00  0.00    +0.000 NA
ATOM      9  O   UNL     1       6.698  11.464  25.565  0.00  0.00    +0.000 OA
ATOM     10  N   UNL     1       5.610  12.152  25.027  0.00  0.00    +0.000 NA
ATOM     11  C   UNL     1       6.083  12.717  23.915  0.00  0.00    +0.000 A 
ATOM     12  N   UNL     1       5.397  13.510  23.052  0.00  0.00    +0.000 NA
ATOM     13  C   UNL     1       6.177  14.017  22.048  0.00  0.00    +0.000 A 
ATOM     14  N   UNL     1       5.526  14.901  21.192  0.00  0.00    +0.000 N 
ATOM     15  C   UNL     1       4.090  14.714  20.938  0.00  0.00    +0.000 C 
ATOM     16  C   UNL     1       3.239  15.867  21.472  0.00  0.00    +0.000 C 
ATOM     17  S   UNL     1       3.707  17.464  20.725  0.00  0.00    +0.000 S 
ATOM     18  C   UNL     1       5.468  17.403  21.172  0.00  0.00    +0.000 C 
ATOM     19  C   UNL     1       6.154  16.128  20.685  0.00  0.00    +0.000 C 
ATOM     20  C   UNL     1       8.153  13.852  19.542  0.00  0.00    +0.000 C 
ATOM     21  C   UNL     1       8.893  14.798  18.585  0.00  0.00    +0.000 C 
ENDROOT
BRANCH   1  25
ATOM     22  C   UNL     1      12.132  12.083  19.272  0.00  0.00    +0.000 C 
ATOM     23  C   UNL     1      10.882  11.810  18.467  0.00  0.00    +0.000 C 
ATOM     24  C   UNL     1      10.797  12.997  17.530  0.00  0.00    +0.000 C 
ATOM     25  N   UNL     1      11.321  14.136  18.278  0.00  0.00    +0.000 NA
ATOM     26  C   UNL     1      12.332  13.594  19.205  0.00  0.00    +0.000 C 
ENDBRANCH   1  25
TORSDOF 1
ENDMDL
