MODEL 1
REMARK VINA RESULT:      -6.8      0.000      0.000
REMARK  Name = 
REMARK  6 active torsions:
REMARK  status: ('A' for Active; 'I' for Inactive)
REMARK    1  A    between atoms: C_1  and  C_2
REMARK    2  A    between atoms: C_2  and  C_3
REMARK    3  A    between atoms: C_4  and  C_5
REMARK    4  A    between atoms: C_12  and  C_13
REMARK    5  A    between atoms: N_15  and  C_16
REMARK    6  A    between atoms: C_16  and  C_17
REMARK                            x       y       z     vdW  Elec       q    Type
REMARK                         _______ _______ _______ _____ _____    ______ ____
ROOT
ATOM      1  C   UNL     1      -3.401  11.678  18.469  0.00  0.00    +0.000 A 
ATOM      2  C   UNL     1      -3.154  12.272  19.647  0.00  0.00    +0.000 A 
ATOM      3  C   UNL     1      -4.120  13.199  20.339  0.00  0.00    +0.000 C 
ATOM      4  N   UNL     1      -1.999  12.075  20.355  0.00  0.00    +0.000 NA
ATOM      5  C   UNL     1      -1.092  11.300  19.874  0.00  0.00    +0.000 A 
ATOM      6  N   UNL     1      -1.167  10.671  18.652  0.00  0.00    +0.000 N 
ATOM      7  C   UNL     1      -2.338  10.791  17.913  0.00  0.00    +0.000 A 
ATOM      8  O   UNL     1      -2.529  10.195  16.855  0.00  0.00    +0.000 OA
ATOM      9  C   UNL     1      -0.169   9.738  18.109  0.00  0.00    +0.000 C 
ATOM     10  C   UNL     1       1.215   9.772  18.752  0.00  0.00    +0.000 C 
ATOM     11  C   UNL     1       1.047   9.610  20.249  0.00  0.00    +0.000 C 
ATOM     12  S   UNL     1       0.312  11.109  20.895  0.00  0.00    +0.000 S 
ENDROOT
BRANCH  10  13
ATOM     13  C   UNL     1       2.103   8.655  18.220  0.00  0.00    +0.000 C 
ATOM     14  O   UNL     1       2.666   8.711  17.132  0.00  0.00    +0.000 OA
ATOM     15  N   UNL     1       2.213   7.570  19.066  0.00  0.00    +0.000 N 
ATOM     16  H   UNL     1       1.967   7.677  20.042  0.00  0.00    +0.000 HD
BRANCH  15  17
ATOM     17  C   UNL     1       3.014   6.420  18.702  0.00  0.00    +0.000 C 
BRANCH  17  18
ATOM     18  C   UNL     1       2.226   5.163  18.919  0.00  0.00    +0.000 A 
ATOM     19  C   UNL     1       1.822   4.208  18.000  0.00  0.00    +0.000 A 
ATOM     20  C   UNL     1       1.109   3.129  18.608  0.00  0.00    +0.000 A 
ATOM     21  C   UNL     1       1.013   3.280  19.972  0.00  0.00    +0.000 A 
ATOM     22  S   UNL     1       1.758   4.719  20.512  0.00  0.00    +0.000 S 
ENDBRANCH  17  18
ENDBRANCH  15  17
ENDBRANCH  10  13
BRANCH   1  24
ATOM     23  C   UNL     1      -5.744  10.841  18.207  0.00  0.00    +0.000 C 
ATOM     24  C   UNL     1      -4.683  11.797  17.683  0.00  0.00    +0.000 C 
ENDBRANCH   1  24
TORSDOF 4
ENDMDL
MODEL 2
REMARK VINA RESULT:      -6.6      3.255      4.360
REMARK  Name = 
REMARK  6 active torsions:
REMARK  status: ('A' for Active; 'I' for Inactive)
REMARK    1  A    between atoms: C_1  and  C_2
REMARK    2  A    between atoms: C_2  and  C_3
REMARK    3  A    between atoms: C_4  and  C_5
REMARK    4  A    between atoms: C_12  and  C_13
REMARK    5  A    between atoms: N_15  and  C_16
REMARK    6  A    between atoms: C_16  and  C_17
REMARK                            x       y       z     vdW  Elec       q    Type
REMARK                         _______ _______ _______ _____ _____    ______ ____
ROOT
ATOM      1  C   UNL     1      -0.299  11.382  21.473  0.00  0.00    +0.000 A 
ATOM      2  C   UNL     1      -0.426  11.832  20.216  0.00  0.00    +0.000 A 
ATOM      3  C   UNL     1      -1.093  13.135  19.855  0.00  0.00    +0.000 C 
ATOM      4  N   UNL     1       0.061  11.160  19.128  0.00  0.00    +0.000 NA
ATOM      5  C   UNL     1       0.658  10.034  19.301  0.00  0.00    +0.000 A 
ATOM      6  N   UNL     1       0.811   9.407  20.518  0.00  0.00    +0.000 N 
ATOM      7  C   UNL     1       0.384  10.068  21.664  0.00  0.00    +0.000 A 
ATOM      8  O   UNL     1       0.558   9.626  22.798  0.00  0.00    +0.000 OA
ATOM      9  C   UNL     1       1.537   8.150  20.745  0.00  0.00    +0.000 C 
ATOM     10  C   UNL     1       1.796   7.282  19.517  0.00  0.00    +0.000 C 
ATOM     11  C   UNL     1       2.469   8.139  18.464  0.00  0.00    +0.000 C 
ATOM     12  S   UNL     1       1.262   9.301  17.835  0.00  0.00    +0.000 S 
ENDROOT
BRANCH  10  13
ATOM     13  C   UNL     1       2.694   6.098  19.853  0.00  0.00    +0.000 C 
ATOM     14  O   UNL     1       2.404   5.260  20.700  0.00  0.00    +0.000 OA
ATOM     15  N   UNL     1       3.866   6.054  19.125  0.00  0.00    +0.000 N 
ATOM     16  H   UNL     1       3.937   6.590  18.269  0.00  0.00    +0.000 HD
BRANCH  15  17
ATOM     17  C   UNL     1       4.832   4.995  19.332  0.00  0.00    +0.000 C 
BRANCH  17  18
ATOM     18  C   UNL     1       5.558   4.713  18.050  0.00  0.00    +0.000 A 
ATOM     19  C   UNL     1       6.904   4.858  17.751  0.00  0.00    +0.000 A 
ATOM     20  C   UNL     1       7.215   4.449  16.418  0.00  0.00    +0.000 A 
ATOM     21  C   UNL     1       6.107   3.984  15.750  0.00  0.00    +0.000 A 
ATOM     22  S   UNL     1       4.699   4.057  16.715  0.00  0.00    +0.000 S 
ENDBRANCH  17  18
ENDBRANCH  15  17
ENDBRANCH  10  13
BRANCH   1  24
ATOM     23  C   UNL     1      -2.188  11.780  23.064  0.00  0.00    +0.000 C 
ATOM     24  C   UNL     1      -0.746  12.114  22.714  0.00  0.00    +0.000 C 
ENDBRANCH   1  24
TORSDOF 4
ENDMDL
MODEL 3
REMARK VINA RESULT:      -6.5      3.066      3.682
REMARK  Name = 
REMARK  6 active torsions:
REMARK  status: ('A' for Active; 'I' for Inactive)
REMARK    1  A    between atoms: C_1  and  C_2
REMARK    2  A    between atoms: C_2  and  C_3
REMARK    3  A    between atoms: C_4  and  C_5
REMARK    4  A    between atoms: C_12  and  C_13
REMARK    5  A    between atoms: N_15  and  C_16
REMARK    6  A    between atoms: C_16  and  C_17
REMARK                            x       y       z     vdW  Elec       q    Type
REMARK                         _______ _______ _______ _____ _____    ______ ____
ROOT
ATOM      1  C   UNL     1      -0.440  11.588  21.522  0.00  0.00    +0.000 A 
ATOM      2  C   UNL     1      -0.577  12.023  20.261  0.00  0.00    +0.000 A 
ATOM      3  C   UNL     1      -1.249  13.320  19.890  0.00  0.00    +0.000 C 
ATOM      4  N   UNL     1      -0.097  11.338  19.177  0.00  0.00    +0.000 NA
ATOM      5  C   UNL     1       0.503  10.215  19.360  0.00  0.00    +0.000 A 
ATOM      6  N   UNL     1       0.666   9.604  20.583  0.00  0.00    +0.000 N 
ATOM      7  C   UNL     1       0.246  10.277  21.724  0.00  0.00    +0.000 A 
ATOM      8  O   UNL     1       0.429   9.850  22.862  0.00  0.00    +0.000 OA
ATOM      9  C   UNL     1       1.395   8.351  20.820  0.00  0.00    +0.000 C 
ATOM     10  C   UNL     1       1.647   7.468  19.601  0.00  0.00    +0.000 C 
ATOM     11  C   UNL     1       2.311   8.313  18.532  0.00  0.00    +0.000 C 
ATOM     12  S   UNL     1       1.097   9.466  17.899  0.00  0.00    +0.000 S 
ENDROOT
BRANCH  10  13
ATOM     13  C   UNL     1       2.549   6.289  19.944  0.00  0.00    +0.000 C 
ATOM     14  O   UNL     1       2.306   5.507  20.857  0.00  0.00    +0.000 OA
ATOM     15  N   UNL     1       3.667   6.182  19.142  0.00  0.00    +0.000 N 
ATOM     16  H   UNL     1       3.687   6.665  18.253  0.00  0.00    +0.000 HD
BRANCH  15  17
ATOM     17  C   UNL     1       4.630   5.119  19.345  0.00  0.00    +0.000 C 
BRANCH  17  18
ATOM     18  C   UNL     1       4.071   3.823  18.838  0.00  0.00    +0.000 A 
ATOM     19  C   UNL     1       3.442   3.547  17.634  0.00  0.00    +0.000 A 
ATOM     20  C   UNL     1       3.078   2.171  17.509  0.00  0.00    +0.000 A 
ATOM     21  C   UNL     1       3.461   1.436  18.607  0.00  0.00    +0.000 A 
ATOM     22  S   UNL     1       4.234   2.400  19.786  0.00  0.00    +0.000 S 
ENDBRANCH  17  18
ENDBRANCH  15  17
ENDBRANCH  10  13
BRANCH   1  24
ATOM     23  C   UNL     1      -2.304  11.969  23.148  0.00  0.00    +0.000 C 
ATOM     24  C   UNL     1      -0.880  12.334  22.758  0.00  0.00    +0.000 C 
ENDBRANCH   1  24
TORSDOF 4
ENDMDL
MODEL 4
REMARK VINA RESULT:      -6.5      3.070      8.234
REMARK  Name = 
REMARK  6 active torsions:
REMARK  status: ('A' for Active; 'I' for Inactive)
REMARK    1  A    between atoms: C_1  and  C_2
REMARK    2  A    between atoms: C_2  and  C_3
REMARK    3  A    between atoms: C_4  and  C_5
REMARK    4  A    between atoms: C_12  and  C_13
REMARK    5  A    between atoms: N_15  and  C_16
REMARK    6  A    between atoms: C_16  and  C_17
REMARK                            x       y       z     vdW  Elec       q    Type
REMARK                         _______ _______ _______ _____ _____    ______ ____
ROOT
ATOM      1  C   UNL     1       3.793   5.066  18.550  0.00  0.00    +0.000 A 
ATOM      2  C   UNL     1       4.097   5.927  17.567  0.00  0.00    +0.000 A 
ATOM      3  C   UNL     1       5.007   5.594  16.412  0.00  0.00    +0.000 C 
ATOM      4  N   UNL     1       3.591   7.197  17.502  0.00  0.00    +0.000 NA
ATOM      5  C   UNL     1       2.796   7.604  18.428  0.00  0.00    +0.000 A 
ATOM      6  N   UNL     1       2.438   6.865  19.534  0.00  0.00    +0.000 N 
ATOM      7  C   UNL     1       2.880   5.551  19.627  0.00  0.00    +0.000 A 
ATOM      8  O   UNL     1       2.541   4.790  20.531  0.00  0.00    +0.000 OA
ATOM      9  C   UNL     1       1.490   7.289  20.573  0.00  0.00    +0.000 C 
ATOM     10  C   UNL     1       1.184   8.783  20.647  0.00  0.00    +0.000 C 
ATOM     11  C   UNL     1       0.757   9.249  19.270  0.00  0.00    +0.000 C 
ATOM     12  S   UNL     1       2.194   9.228  18.204  0.00  0.00    +0.000 S 
ENDROOT
BRANCH  10  13
ATOM     13  C   UNL     1       0.070   9.073  21.646  0.00  0.00    +0.000 C 
ATOM     14  O   UNL     1      -0.753   8.232  21.990  0.00  0.00    +0.000 OA
ATOM     15  N   UNL     1       0.064  10.368  22.123  0.00  0.00    +0.000 N 
ATOM     16  H   UNL     1       0.899  10.934  22.030  0.00  0.00    +0.000 HD
BRANCH  15  17
ATOM     17  C   UNL     1      -0.936  10.807  23.074  0.00  0.00    +0.000 C 
BRANCH  17  18
ATOM     18  C   UNL     1      -1.858  11.793  22.421  0.00  0.00    +0.000 A 
ATOM     19  C   UNL     1      -1.843  12.289  21.127  0.00  0.00    +0.000 A 
ATOM     20  C   UNL     1      -2.918  13.195  20.874  0.00  0.00    +0.000 A 
ATOM     21  C   UNL     1      -3.734  13.344  21.972  0.00  0.00    +0.000 A 
ATOM     22  S   UNL     1      -3.196  12.415  23.301  0.00  0.00    +0.000 S 
ENDBRANCH  17  18
ENDBRANCH  15  17
ENDBRANCH  10  13
BRANCH   1  24
ATOM     23  C   UNL     1       3.332   2.705  17.862  0.00  0.00    +0.000 C 
ATOM     24  C   UNL     1       4.258   3.633  18.632  0.00  0.00    +0.000 C 
ENDBRANCH   1  24
TORSDOF 4
ENDMDL
MODEL 5
REMARK VINA RESULT:      -6.5      5.837      8.452
REMARK  Name = 
REMARK  6 active torsions:
REMARK  status: ('A' for Active; 'I' for Inactive)
REMARK    1  A    between atoms: C_1  and  C_2
REMARK    2  A    between atoms: C_2  and  C_3
REMARK    3  A    between atoms: C_4  and  C_5
REMARK    4  A    between atoms: C_12  and  C_13
REMARK    5  A    between atoms: N_15  and  C_16
REMARK    6  A    between atoms: C_16  and  C_17
REMARK                            x       y       z     vdW  Elec       q    Type
REMARK                         _______ _______ _______ _____ _____    ______ ____
ROOT
ATOM      1  C   UNL     1       2.096   4.232  19.331  0.00  0.00    +0.000 A 
ATOM      2  C   UNL     1       2.094   5.514  19.726  0.00  0.00    +0.000 A 
ATOM      3  C   UNL     1       1.179   6.062  20.792  0.00  0.00    +0.000 C 
ATOM      4  N   UNL     1       2.946   6.455  19.214  0.00  0.00    +0.000 NA
ATOM      5  C   UNL     1       3.782   6.114  18.299  0.00  0.00    +0.000 A 
ATOM      6  N   UNL     1       3.864   4.858  17.742  0.00  0.00    +0.000 N 
ATOM      7  C   UNL     1       3.061   3.848  18.259  0.00  0.00    +0.000 A 
ATOM      8  O   UNL     1       3.128   2.678  17.885  0.00  0.00    +0.000 OA
ATOM      9  C   UNL     1       4.847   4.432  16.737  0.00  0.00    +0.000 C 
ATOM     10  C   UNL     1       5.564   5.542  15.973  0.00  0.00    +0.000 C 
ATOM     11  C   UNL     1       6.167   6.499  16.981  0.00  0.00    +0.000 C 
ATOM     12  S   UNL     1       4.832   7.401  17.761  0.00  0.00    +0.000 S 
ENDROOT
BRANCH  10  13
ATOM     13  C   UNL     1       6.669   4.983  15.085  0.00  0.00    +0.000 C 
ATOM     14  O   UNL     1       7.669   4.431  15.533  0.00  0.00    +0.000 OA
ATOM     15  N   UNL     1       6.451   5.157  13.734  0.00  0.00    +0.000 N 
ATOM     16  H   UNL     1       5.515   5.361  13.406  0.00  0.00    +0.000 HD
BRANCH  15  17
ATOM     17  C   UNL     1       7.412   4.689  12.757  0.00  0.00    +0.000 C 
BRANCH  17  18
ATOM     18  C   UNL     1       6.893   3.453  12.085  0.00  0.00    +0.000 A 
ATOM     19  C   UNL     1       7.592   2.419  11.484  0.00  0.00    +0.000 A 
ATOM     20  C   UNL     1       6.732   1.396  10.981  0.00  0.00    +0.000 A 
ATOM     21  C   UNL     1       5.407   1.666  11.234  0.00  0.00    +0.000 A 
ATOM     22  S   UNL     1       5.202   3.150  12.054  0.00  0.00    +0.000 S 
ENDBRANCH  17  18
ENDBRANCH  15  17
ENDBRANCH  10  13
BRANCH   1  24
ATOM     23  C   UNL     1       1.832   2.591  21.200  0.00  0.00    +0.000 C 
ATOM     24  C   UNL     1       1.237   3.137  19.911  0.00  0.00    +0.000 C 
ENDBRANCH   1  24
TORSDOF 4
ENDMDL
MODEL 6
REMARK VINA RESULT:      -6.4      7.024      8.693
REMARK  Name = 
REMARK  6 active torsions:
REMARK  status: ('A' for Active; 'I' for Inactive)
REMARK    1  A    between atoms: C_1  and  C_2
REMARK    2  A    between atoms: C_2  and  C_3
REMARK    3  A    between atoms: C_4  and  C_5
REMARK    4  A    between atoms: C_12  and  C_13
REMARK    5  A    between atoms: N_15  and  C_16
REMARK    6  A    between atoms: C_16  and  C_17
REMARK                            x       y       z     vdW  Elec       q    Type
REMARK                         _______ _______ _______ _____ _____    ______ ____
ROOT
ATOM      1  C   UNL     1       2.121   3.892  19.134  0.00  0.00    +0.000 A 
ATOM      2  C   UNL     1       2.798   4.278  20.226  0.00  0.00    +0.000 A 
ATOM      3  C   UNL     1       2.224   4.259  21.620  0.00  0.00    +0.000 C 
ATOM      4  N   UNL     1       4.097   4.708  20.187  0.00  0.00    +0.000 NA
ATOM      5  C   UNL     1       4.706   4.766  19.055  0.00  0.00    +0.000 A 
ATOM      6  N   UNL     1       4.130   4.468  17.840  0.00  0.00    +0.000 N 
ATOM      7  C   UNL     1       2.831   3.975  17.824  0.00  0.00    +0.000 A 
ATOM      8  O   UNL     1       2.267   3.600  16.797  0.00  0.00    +0.000 OA
ATOM      9  C   UNL     1       4.821   4.474  16.544  0.00  0.00    +0.000 C 
ATOM     10  C   UNL     1       6.143   5.235  16.480  0.00  0.00    +0.000 C 
ATOM     11  C   UNL     1       7.037   4.726  17.593  0.00  0.00    +0.000 C 
ATOM     12  S   UNL     1       6.366   5.297  19.152  0.00  0.00    +0.000 S 
ENDROOT
BRANCH  10  13
ATOM     13  C   UNL     1       6.839   5.029  15.141  0.00  0.00    +0.000 C 
ATOM     14  O   UNL     1       7.812   5.687  14.787  0.00  0.00    +0.000 OA
ATOM     15  N   UNL     1       6.276   4.043  14.358  0.00  0.00    +0.000 N 
ATOM     16  H   UNL     1       5.668   3.356  14.787  0.00  0.00    +0.000 HD
BRANCH  15  17
ATOM     17  C   UNL     1       6.816   3.730  13.051  0.00  0.00    +0.000 C 
BRANCH  17  18
ATOM     18  C   UNL     1       5.720   3.237  12.154  0.00  0.00    +0.000 A 
ATOM     19  C   UNL     1       4.521   3.844  11.812  0.00  0.00    +0.000 A 
ATOM     20  C   UNL     1       3.753   3.062  10.897  0.00  0.00    +0.000 A 
ATOM     21  C   UNL     1       4.395   1.896  10.549  0.00  0.00    +0.000 A 
ATOM     22  S   UNL     1       5.904   1.738  11.334  0.00  0.00    +0.000 S 
ENDBRANCH  17  18
ENDBRANCH  15  17
ENDBRANCH  10  13
BRANCH   1  24
ATOM     23  C   UNL     1       0.723   1.818  19.201  0.00  0.00    +0.000 C 
ATOM     24  C   UNL     1       0.718   3.337  19.126  0.00  0.00    +0.000 C 
ENDBRANCH   1  24
TORSDOF 4
ENDMDL
MODEL 7
REMARK VINA RESULT:      -6.3      1.816      2.280
REMARK  Name = 
REMARK  6 active torsions:
REMARK  status: ('A' for Active; 'I' for Inactive)
REMARK    1  A    between atoms: C_1  and  C_2
REMARK    2  A    between atoms: C_2  and  C_3
REMARK    3  A    between atoms: C_4  and  C_5
REMARK    4  A    between atoms: C_12  and  C_13
REMARK    5  A    between atoms: N_15  and  C_16
REMARK    6  A    between atoms: C_16  and  C_17
REMARK                            x       y       z     vdW  Elec       q    Type
REMARK                         _______ _______ _______ _____ _____    ______ ____
ROOT
ATOM      1  C   UNL     1      -2.209  12.333  21.059  0.00  0.00    +0.000 A 
ATOM      2  C   UNL     1      -1.942  12.016  22.334  0.00  0.00    +0.000 A 
ATOM      3  C   UNL     1      -2.647  12.631  23.517  0.00  0.00    +0.000 C 
ATOM      4  N   UNL     1      -1.012  11.077  22.693  0.00  0.00    +0.000 NA
ATOM      5  C   UNL     1      -0.343  10.473  21.776  0.00  0.00    +0.000 A 
ATOM      6  N   UNL     1      -0.453  10.732  20.428  0.00  0.00    +0.000 N 
ATOM      7  C   UNL     1      -1.418  11.636  20.001  0.00  0.00    +0.000 A 
ATOM      8  O   UNL     1      -1.648  11.864  18.815  0.00  0.00    +0.000 OA
ATOM      9  C   UNL     1       0.259  10.016  19.361  0.00  0.00    +0.000 C 
ATOM     10  C   UNL     1       1.486   9.212  19.782  0.00  0.00    +0.000 C 
ATOM     11  C   UNL     1       1.081   8.284  20.910  0.00  0.00    +0.000 C 
ATOM     12  S   UNL     1       0.782   9.277  22.369  0.00  0.00    +0.000 S 
ENDROOT
BRANCH  10  13
ATOM     13  C   UNL     1       2.036   8.388  18.624  0.00  0.00    +0.000 C 
ATOM     14  O   UNL     1       2.096   8.810  17.475  0.00  0.00    +0.000 OA
ATOM     15  N   UNL     1       2.453   7.122  18.981  0.00  0.00    +0.000 N 
ATOM     16  H   UNL     1       2.639   6.917  19.955  0.00  0.00    +0.000 HD
BRANCH  15  17
ATOM     17  C   UNL     1       2.993   6.210  17.994  0.00  0.00    +0.000 C 
BRANCH  17  18
ATOM     18  C   UNL     1       2.469   4.827  18.240  0.00  0.00    +0.000 A 
ATOM     19  C   UNL     1       2.543   3.701  17.435  0.00  0.00    +0.000 A 
ATOM     20  C   UNL     1       1.946   2.553  18.041  0.00  0.00    +0.000 A 
ATOM     21  C   UNL     1       1.458   2.830  19.297  0.00  0.00    +0.000 A 
ATOM     22  S   UNL     1       1.700   4.464  19.733  0.00  0.00    +0.000 S 
ENDBRANCH  17  18
ENDBRANCH  15  17
ENDBRANCH  10  13
BRANCH   1  24
ATOM     23  C   UNL     1      -2.816  14.741  20.762  0.00  0.00    +0.000 C 
ATOM     24  C   UNL     1      -3.273  13.299  20.602  0.00  0.00    +0.000 C 
ENDBRANCH   1  24
TORSDOF 4
ENDMDL
MODEL 8
REMARK VINA RESULT:      -6.2      3.196      8.278
REMARK  Name = 
REMARK  6 active torsions:
REMARK  status: ('A' for Active; 'I' for Inactive)
REMARK    1  A    between atoms: C_1  and  C_2
REMARK    2  A    between atoms: C_2  and  C_3
REMARK    3  A    between atoms: C_4  and  C_5
REMARK    4  A    between atoms: C_12  and  C_13
REMARK    5  A    between atoms: N_15  and  C_16
REMARK    6  A    between atoms: C_16  and  C_17
REMARK                            x       y       z     vdW  Elec       q    Type
REMARK                         _______ _______ _______ _____ _____    ______ ____
ROOT
ATOM      1  C   UNL     1       3.904   5.901  18.205  0.00  0.00    +0.000 A 
ATOM      2  C   UNL     1       4.028   6.823  17.239  0.00  0.00    +0.000 A 
ATOM      3  C   UNL     1       4.897   6.648  16.019  0.00  0.00    +0.000 C 
ATOM      4  N   UNL     1       3.357   8.016  17.252  0.00  0.00    +0.000 NA
ATOM      5  C   UNL     1       2.577   8.286  18.238  0.00  0.00    +0.000 A 
ATOM      6  N   UNL     1       2.392   7.475  19.336  0.00  0.00    +0.000 N 
ATOM      7  C   UNL     1       3.007   6.229  19.352  0.00  0.00    +0.000 A 
ATOM      8  O   UNL     1       2.830   5.404  20.247  0.00  0.00    +0.000 OA
ATOM      9  C   UNL     1       1.465   7.738  20.445  0.00  0.00    +0.000 C 
ATOM     10  C   UNL     1       0.972   9.175  20.594  0.00  0.00    +0.000 C 
ATOM     11  C   UNL     1       0.400   9.621  19.264  0.00  0.00    +0.000 C 
ATOM     12  S   UNL     1       1.755   9.822  18.112  0.00  0.00    +0.000 S 
ENDROOT
BRANCH  10  13
ATOM     13  C   UNL     1      -0.103   9.286  21.668  0.00  0.00    +0.000 C 
ATOM     14  O   UNL     1      -0.753   8.324  22.062  0.00  0.00    +0.000 OA
ATOM     15  N   UNL     1      -0.285  10.564  22.155  0.00  0.00    +0.000 N 
ATOM     16  H   UNL     1       0.439  11.258  22.009  0.00  0.00    +0.000 HD
BRANCH  15  17
ATOM     17  C   UNL     1      -1.276  10.840  23.174  0.00  0.00    +0.000 C 
BRANCH  17  18
ATOM     18  C   UNL     1      -2.171  11.955  22.724  0.00  0.00    +0.000 A 
ATOM     19  C   UNL     1      -3.090  12.694  23.453  0.00  0.00    +0.000 A 
ATOM     20  C   UNL     1      -3.730  13.701  22.666  0.00  0.00    +0.000 A 
ATOM     21  C   UNL     1      -3.264  13.716  21.372  0.00  0.00    +0.000 A 
ATOM     22  S   UNL     1      -2.080  12.516  21.103  0.00  0.00    +0.000 S 
ENDBRANCH  17  18
ENDBRANCH  15  17
ENDBRANCH  10  13
BRANCH   1  24
ATOM     23  C   UNL     1       5.941   4.593  18.836  0.00  0.00    +0.000 C 
ATOM     24  C   UNL     1       4.557   4.542  18.206  0.00  0.00    +0.000 C 
ENDBRANCH   1  24
TORSDOF 4
ENDMDL
MODEL 9
REMARK VINA RESULT:      -6.2      2.688      8.174
REMARK  Name = 
REMARK  6 active torsions:
REMARK  status: ('A' for Active; 'I' for Inactive)
REMARK    1  A    between atoms: C_1  and  C_2
REMARK    2  A    between atoms: C_2  and  C_3
REMARK    3  A    between atoms: C_4  and  C_5
REMARK    4  A    between atoms: C_12  and  C_13
REMARK    5  A    between atoms: N_15  and  C_16
REMARK    6  A    between atoms: C_16  and  C_17
REMARK                            x       y       z     vdW  Elec       q    Type
REMARK                         _______ _______ _______ _____ _____    ______ ____
ROOT
ATOM      1  C   UNL     1       3.039   4.239  19.204  0.00  0.00    +0.000 A 
ATOM      2  C   UNL     1       3.412   4.787  18.038  0.00  0.00    +0.000 A 
ATOM      3  C   UNL     1       4.092   4.022  16.931  0.00  0.00    +0.000 C 
ATOM      4  N   UNL     1       3.190   6.101  17.723  0.00  0.00    +0.000 NA
ATOM      5  C   UNL     1       2.611   6.863  18.583  0.00  0.00    +0.000 A 
ATOM      6  N   UNL     1       2.228   6.469  19.846  0.00  0.00    +0.000 N 
ATOM      7  C   UNL     1       2.380   5.134  20.200  0.00  0.00    +0.000 A 
ATOM      8  O   UNL     1       1.987   4.675  21.271  0.00  0.00    +0.000 OA
ATOM      9  C   UNL     1       1.517   7.306  20.821  0.00  0.00    +0.000 C 
ATOM     10  C   UNL     1       1.554   8.813  20.581  0.00  0.00    +0.000 C 
ATOM     11  C   UNL     1       1.087   9.079  19.164  0.00  0.00    +0.000 C 
ATOM     12  S   UNL     1       2.357   8.503  18.041  0.00  0.00    +0.000 S 
ENDROOT
BRANCH  10  13
ATOM     13  C   UNL     1       0.649   9.555  21.557  0.00  0.00    +0.000 C 
ATOM     14  O   UNL     1       0.114   9.009  22.516  0.00  0.00    +0.000 OA
ATOM     15  N   UNL     1       0.480  10.892  21.264  0.00  0.00    +0.000 N 
ATOM     16  H   UNL     1       1.138  11.352  20.647  0.00  0.00    +0.000 HD
BRANCH  15  17
ATOM     17  C   UNL     1      -0.358  11.736  22.091  0.00  0.00    +0.000 C 
BRANCH  17  18
ATOM     18  C   UNL     1      -1.627  12.063  21.361  0.00  0.00    +0.000 A 
ATOM     19  C   UNL     1      -2.795  12.637  21.840  0.00  0.00    +0.000 A 
ATOM     20  C   UNL     1      -3.775  12.818  20.816  0.00  0.00    +0.000 A 
ATOM     21  C   UNL     1      -3.319  12.401  19.587  0.00  0.00    +0.000 A 
ATOM     22  S   UNL     1      -1.730  11.780  19.670  0.00  0.00    +0.000 S 
ENDBRANCH  17  18
ENDBRANCH  15  17
ENDBRANCH  10  13
BRANCH   1  24
ATOM     23  C   UNL     1       1.973   1.977  19.144  0.00  0.00    +0.000 C 
ATOM     24  C   UNL     1       3.188   2.785  19.574  0.00  0.00    +0.000 C 
ENDBRANCH   1  24
TORSDOF 4
ENDMDL
