MODEL 1
REMARK VINA RESULT:      -8.3      0.000      0.000
REMARK  Name = 
REMARK  10 active torsions:
REMARK  status: ('A' for Active; 'I' for Inactive)
REMARK    1  A    between atoms: C_1  and  O_2
REMARK    2  A    between atoms: O_2  and  C_3
REMARK    3  A    between atoms: C_6  and  C_7
REMARK    4  A    between atoms: C_7  and  N_8
REMARK    5  A    between atoms: N_8  and  C_9
REMARK    6  A    between atoms: C_9  and  C_10
REMARK    7  A    between atoms: C_10  and  C_11
REMARK    8  A    between atoms: C_12  and  C_13
REMARK    9  A    between atoms: C_12  and  C_19
REMARK   10  A    between atoms: C_26  and  O_27
REMARK                            x       y       z     vdW  Elec       q    Type
REMARK                         _______ _______ _______ _____ _____    ______ ____
ROOT
ATOM      1  C   UNL     1       4.194   3.963  17.638  0.00  0.00    +0.000 C 
ENDROOT
BRANCH   1   2
ATOM      2  C   UNL     1       4.802   3.897  16.269  0.00  0.00    +0.000 C 
ATOM      3  C   UNL     1       5.912   4.573  15.887  0.00  0.00    +0.000 C 
BRANCH   3   4
ATOM      4  C   UNL     1       6.667   5.406  16.862  0.00  0.00    +0.000 A 
ATOM      5  C   UNL     1       7.383   4.778  17.890  0.00  0.00    +0.000 A 
ATOM      6  C   UNL     1       8.085   5.542  18.834  0.00  0.00    +0.000 A 
ATOM      7  C   UNL     1       8.093   6.932  18.742  0.00  0.00    +0.000 A 
ATOM      8  C   UNL     1       7.385   7.564  17.726  0.00  0.00    +0.000 A 
ATOM      9  C   UNL     1       6.659   6.801  16.799  0.00  0.00    +0.000 A 
ENDBRANCH   3   4
BRANCH   3  10
ATOM     10  C   UNL     1       6.272   4.448  14.459  0.00  0.00    +0.000 A 
ATOM     11  C   UNL     1       5.537   3.589  13.632  0.00  0.00    +0.000 A 
ATOM     12  C   UNL     1       5.913   3.391  12.301  0.00  0.00    +0.000 A 
ATOM     13  C   UNL     1       7.019   4.060  11.782  0.00  0.00    +0.000 A 
ATOM     14  C   UNL     1       7.748   4.929  12.592  0.00  0.00    +0.000 A 
ATOM     15  C   UNL     1       7.381   5.120  13.928  0.00  0.00    +0.000 A 
ENDBRANCH   3  10
ENDBRANCH   1   2
BRANCH   1  16
ATOM     16  C   UNL     1       2.659   3.908  17.677  0.00  0.00    +0.000 C 
BRANCH  16  17
ATOM     17  N   UNL     1       2.138   4.711  18.791  0.00  0.00    +0.000 NA
ATOM     18  H   UNL     1       1.261   5.152  18.514  0.00  0.00    +0.000 HD
BRANCH  17  19
ATOM     19  C   UNL     1       3.077   5.760  19.198  0.00  0.00    +0.000 C 
BRANCH  19  23
ATOM     20  C   UNL     1       1.091   9.572  19.605  0.00  0.00    +0.000 A 
ATOM     21  C   UNL     1       1.100   8.646  20.655  0.00  0.00    +0.000 A 
ATOM     22  C   UNL     1       1.740   7.413  20.525  0.00  0.00    +0.000 A 
ATOM     23  C   UNL     1       2.389   7.088  19.335  0.00  0.00    +0.000 A 
ATOM     24  C   UNL     1       2.358   7.996  18.266  0.00  0.00    +0.000 A 
ATOM     25  C   UNL     1       1.722   9.235  18.407  0.00  0.00    +0.000 A 
BRANCH  20  27
ATOM     26  C   UNL     1       1.206  11.840  20.334  0.00  0.00    +0.000 C 
ATOM     27  O   UNL     1       0.429  10.728  19.923  0.00  0.00    +0.000 OA
ENDBRANCH  20  27
BRANCH  25  28
ATOM     28  O   UNL     1       1.742  10.090  17.338  0.00  0.00    +0.000 OA
ATOM     29  H   UNL     1       1.192  10.864  17.545  0.00  0.00    +0.000 HD
ENDBRANCH  25  28
ENDBRANCH  19  23
ENDBRANCH  17  19
ENDBRANCH  16  17
ENDBRANCH   1  16
TORSDOF 9
ENDMDL
MODEL 2
REMARK VINA RESULT:      -8.3      0.435      1.022
REMARK  Name = 
REMARK  10 active torsions:
REMARK  status: ('A' for Active; 'I' for Inactive)
REMARK    1  A    between atoms: C_1  and  O_2
REMARK    2  A    between atoms: O_2  and  C_3
REMARK    3  A    between atoms: C_6  and  C_7
REMARK    4  A    between atoms: C_7  and  N_8
REMARK    5  A    between atoms: N_8  and  C_9
REMARK    6  A    between atoms: C_9  and  C_10
REMARK    7  A    between atoms: C_10  and  C_11
REMARK    8  A    between atoms: C_12  and  C_13
REMARK    9  A    between atoms: C_12  and  C_19
REMARK   10  A    between atoms: C_26  and  O_27
REMARK                            x       y       z     vdW  Elec       q    Type
REMARK                         _______ _______ _______ _____ _____    ______ ____
ROOT
ATOM      1  C   UNL     1       4.055   4.297  17.591  0.00  0.00    +0.000 C 
ENDROOT
BRANCH   1   2
ATOM      2  C   UNL     1       4.699   4.160  16.244  0.00  0.00    +0.000 C 
ATOM      3  C   UNL     1       5.879   4.725  15.894  0.00  0.00    +0.000 C 
BRANCH   3   4
ATOM      4  C   UNL     1       6.676   5.496  16.888  0.00  0.00    +0.000 A 
ATOM      5  C   UNL     1       6.803   6.883  16.737  0.00  0.00    +0.000 A 
ATOM      6  C   UNL     1       7.566   7.628  17.648  0.00  0.00    +0.000 A 
ATOM      7  C   UNL     1       8.185   6.996  18.724  0.00  0.00    +0.000 A 
ATOM      8  C   UNL     1       8.065   5.619  18.881  0.00  0.00    +0.000 A 
ATOM      9  C   UNL     1       7.326   4.870  17.954  0.00  0.00    +0.000 A 
ENDBRANCH   3   4
BRANCH   3  10
ATOM     10  C   UNL     1       6.273   4.552  14.480  0.00  0.00    +0.000 A 
ATOM     11  C   UNL     1       5.552   3.671  13.663  0.00  0.00    +0.000 A 
ATOM     12  C   UNL     1       5.960   3.428  12.350  0.00  0.00    +0.000 A 
ATOM     13  C   UNL     1       7.082   4.072  11.837  0.00  0.00    +0.000 A 
ATOM     14  C   UNL     1       7.798   4.962  12.636  0.00  0.00    +0.000 A 
ATOM     15  C   UNL     1       7.399   5.199  13.955  0.00  0.00    +0.000 A 
ENDBRANCH   3  10
ENDBRANCH   1   2
BRANCH   1  16
ATOM     16  C   UNL     1       2.600   3.809  17.675  0.00  0.00    +0.000 C 
BRANCH  16  17
ATOM     17  N   UNL     1       1.806   4.690  18.541  0.00  0.00    +0.000 NA
ATOM     18  H   UNL     1       1.233   5.308  17.967  0.00  0.00    +0.000 HD
BRANCH  17  19
ATOM     19  C   UNL     1       2.650   5.514  19.409  0.00  0.00    +0.000 C 
BRANCH  19  23
ATOM     20  C   UNL     1       1.186   9.569  19.644  0.00  0.00    +0.000 A 
ATOM     21  C   UNL     1       1.077   8.696  20.733  0.00  0.00    +0.000 A 
ATOM     22  C   UNL     1       1.548   7.385  20.659  0.00  0.00    +0.000 A 
ATOM     23  C   UNL     1       2.144   6.925  19.486  0.00  0.00    +0.000 A 
ATOM     24  C   UNL     1       2.229   7.782  18.378  0.00  0.00    +0.000 A 
ATOM     25  C   UNL     1       1.763   9.099  18.463  0.00  0.00    +0.000 A 
BRANCH  20  27
ATOM     26  C   UNL     1      -0.452  10.900  20.755  0.00  0.00    +0.000 C 
ATOM     27  O   UNL     1       0.683  10.815  19.909  0.00  0.00    +0.000 OA
ENDBRANCH  20  27
BRANCH  25  28
ATOM     28  O   UNL     1       1.891   9.897  17.357  0.00  0.00    +0.000 OA
ATOM     29  H   UNL     1       2.488   9.463  16.725  0.00  0.00    +0.000 HD
ENDBRANCH  25  28
ENDBRANCH  19  23
ENDBRANCH  17  19
ENDBRANCH  16  17
ENDBRANCH   1  16
TORSDOF 9
ENDMDL
MODEL 3
REMARK VINA RESULT:      -8.1      3.441      5.350
REMARK  Name = 
REMARK  10 active torsions:
REMARK  status: ('A' for Active; 'I' for Inactive)
REMARK    1  A    between atoms: C_1  and  O_2
REMARK    2  A    between atoms: O_2  and  C_3
REMARK    3  A    between atoms: C_6  and  C_7
REMARK    4  A    between atoms: C_7  and  N_8
REMARK    5  A    between atoms: N_8  and  C_9
REMARK    6  A    between atoms: C_9  and  C_10
REMARK    7  A    between atoms: C_10  and  C_11
REMARK    8  A    between atoms: C_12  and  C_13
REMARK    9  A    between atoms: C_12  and  C_19
REMARK   10  A    between atoms: C_26  and  O_27
REMARK                            x       y       z     vdW  Elec       q    Type
REMARK                         _______ _______ _______ _____ _____    ______ ____
ROOT
ATOM      1  C   UNL     1       2.396   8.118  18.487  0.00  0.00    +0.000 C 
ENDROOT
BRANCH   1   2
ATOM      2  C   UNL     1       3.526   7.403  17.808  0.00  0.00    +0.000 C 
ATOM      3  C   UNL     1       3.761   6.073  17.901  0.00  0.00    +0.000 C 
BRANCH   3   4
ATOM      4  C   UNL     1       2.836   5.189  18.662  0.00  0.00    +0.000 A 
ATOM      5  C   UNL     1       1.934   4.377  17.962  0.00  0.00    +0.000 A 
ATOM      6  C   UNL     1       1.037   3.552  18.657  0.00  0.00    +0.000 A 
ATOM      7  C   UNL     1       1.054   3.518  20.050  0.00  0.00    +0.000 A 
ATOM      8  C   UNL     1       1.945   4.321  20.752  0.00  0.00    +0.000 A 
ATOM      9  C   UNL     1       2.822   5.168  20.058  0.00  0.00    +0.000 A 
ENDBRANCH   3   4
BRANCH   3  10
ATOM     10  C   UNL     1       4.995   5.598  17.239  0.00  0.00    +0.000 A 
ATOM     11  C   UNL     1       5.015   5.433  15.848  0.00  0.00    +0.000 A 
ATOM     12  C   UNL     1       6.141   4.904  15.213  0.00  0.00    +0.000 A 
ATOM     13  C   UNL     1       7.261   4.548  15.960  0.00  0.00    +0.000 A 
ATOM     14  C   UNL     1       7.257   4.722  17.343  0.00  0.00    +0.000 A 
ATOM     15  C   UNL     1       6.127   5.240  17.983  0.00  0.00    +0.000 A 
ENDBRANCH   3  10
ENDBRANCH   1   2
BRANCH   1  16
ATOM     16  C   UNL     1       1.337   8.714  17.547  0.00  0.00    +0.000 C 
BRANCH  16  17
ATOM     17  N   UNL     1       1.029  10.100  17.924  0.00  0.00    +0.000 NA
ATOM     18  H   UNL     1       1.864  10.543  18.307  0.00  0.00    +0.000 HD
BRANCH  17  19
ATOM     19  C   UNL     1      -0.037  10.173  18.926  0.00  0.00    +0.000 C 
BRANCH  19  23
ATOM     20  C   UNL     1      -3.822  11.237  17.141  0.00  0.00    +0.000 A 
ATOM     21  C   UNL     1      -3.428  11.772  18.374  0.00  0.00    +0.000 A 
ATOM     22  C   UNL     1      -2.206  11.428  18.953  0.00  0.00    +0.000 A 
ATOM     23  C   UNL     1      -1.352  10.540  18.301  0.00  0.00    +0.000 A 
ATOM     24  C   UNL     1      -1.752   9.974  17.081  0.00  0.00    +0.000 A 
ATOM     25  C   UNL     1      -2.975  10.331  16.501  0.00  0.00    +0.000 A 
BRANCH  20  27
ATOM     26  C   UNL     1      -6.039  11.902  17.714  0.00  0.00    +0.000 C 
ATOM     27  O   UNL     1      -5.042  11.700  16.727  0.00  0.00    +0.000 OA
ENDBRANCH  20  27
BRANCH  25  28
ATOM     28  O   UNL     1      -3.304   9.763  15.299  0.00  0.00    +0.000 OA
ATOM     29  H   UNL     1      -4.223   9.451  15.341  0.00  0.00    +0.000 HD
ENDBRANCH  25  28
ENDBRANCH  19  23
ENDBRANCH  17  19
ENDBRANCH  16  17
ENDBRANCH   1  16
TORSDOF 9
ENDMDL
MODEL 4
REMARK VINA RESULT:      -8.1      0.621      1.606
REMARK  Name = 
REMARK  10 active torsions:
REMARK  status: ('A' for Active; 'I' for Inactive)
REMARK    1  A    between atoms: C_1  and  O_2
REMARK    2  A    between atoms: O_2  and  C_3
REMARK    3  A    between atoms: C_6  and  C_7
REMARK    4  A    between atoms: C_7  and  N_8
REMARK    5  A    between atoms: N_8  and  C_9
REMARK    6  A    between atoms: C_9  and  C_10
REMARK    7  A    between atoms: C_10  and  C_11
REMARK    8  A    between atoms: C_12  and  C_13
REMARK    9  A    between atoms: C_12  and  C_19
REMARK   10  A    between atoms: C_26  and  O_27
REMARK                            x       y       z     vdW  Elec       q    Type
REMARK                         _______ _______ _______ _____ _____    ______ ____
ROOT
ATOM      1  C   UNL     1       4.117   3.738  17.538  0.00  0.00    +0.000 C 
ENDROOT
BRANCH   1   2
ATOM      2  C   UNL     1       4.745   3.730  16.176  0.00  0.00    +0.000 C 
ATOM      3  C   UNL     1       5.854   4.430  15.837  0.00  0.00    +0.000 C 
BRANCH   3   4
ATOM      4  C   UNL     1       6.587   5.231  16.855  0.00  0.00    +0.000 A 
ATOM      5  C   UNL     1       6.470   6.627  16.842  0.00  0.00    +0.000 A 
ATOM      6  C   UNL     1       7.168   7.405  17.778  0.00  0.00    +0.000 A 
ATOM      7  C   UNL     1       7.967   6.792  18.741  0.00  0.00    +0.000 A 
ATOM      8  C   UNL     1       8.090   5.407  18.760  0.00  0.00    +0.000 A 
ATOM      9  C   UNL     1       7.414   4.630  17.806  0.00  0.00    +0.000 A 
ENDBRANCH   3   4
BRANCH   3  10
ATOM     10  C   UNL     1       6.235   4.364  14.410  0.00  0.00    +0.000 A 
ATOM     11  C   UNL     1       5.551   3.495  13.550  0.00  0.00    +0.000 A 
ATOM     12  C   UNL     1       5.951   3.354  12.219  0.00  0.00    +0.000 A 
ATOM     13  C   UNL     1       7.030   4.089  11.733  0.00  0.00    +0.000 A 
ATOM     14  C   UNL     1       7.708   4.968  12.577  0.00  0.00    +0.000 A 
ATOM     15  C   UNL     1       7.316   5.103  13.913  0.00  0.00    +0.000 A 
ENDBRANCH   3  10
ENDBRANCH   1   2
BRANCH   1  16
ATOM     16  C   UNL     1       2.685   4.295  17.597  0.00  0.00    +0.000 C 
BRANCH  16  17
ATOM     17  N   UNL     1       2.387   4.820  18.936  0.00  0.00    +0.000 NA
ATOM     18  H   UNL     1       1.418   5.136  18.971  0.00  0.00    +0.000 HD
BRANCH  17  19
ATOM     19  C   UNL     1       3.255   5.944  19.292  0.00  0.00    +0.000 C 
BRANCH  19  23
ATOM     20  C   UNL     1       1.193   9.717  18.897  0.00  0.00    +0.000 A 
ATOM     21  C   UNL     1       1.960   9.199  17.847  0.00  0.00    +0.000 A 
ATOM     22  C   UNL     1       2.629   7.981  17.972  0.00  0.00    +0.000 A 
ATOM     23  C   UNL     1       2.536   7.255  19.159  0.00  0.00    +0.000 A 
ATOM     24  C   UNL     1       1.795   7.781  20.229  0.00  0.00    +0.000 A 
ATOM     25  C   UNL     1       1.120   8.999  20.092  0.00  0.00    +0.000 A 
BRANCH  20  27
ATOM     26  C   UNL     1       1.355  12.094  18.795  0.00  0.00    +0.000 C 
ATOM     27  O   UNL     1       0.602  10.912  18.584  0.00  0.00    +0.000 OA
ENDBRANCH  20  27
BRANCH  25  28
ATOM     28  O   UNL     1       0.396   9.454  21.162  0.00  0.00    +0.000 OA
ATOM     29  H   UNL     1       0.511  10.416  21.232  0.00  0.00    +0.000 HD
ENDBRANCH  25  28
ENDBRANCH  19  23
ENDBRANCH  17  19
ENDBRANCH  16  17
ENDBRANCH   1  16
TORSDOF 9
ENDMDL
MODEL 5
REMARK VINA RESULT:      -8.1      3.492      5.828
REMARK  Name = 
REMARK  10 active torsions:
REMARK  status: ('A' for Active; 'I' for Inactive)
REMARK    1  A    between atoms: C_1  and  O_2
REMARK    2  A    between atoms: O_2  and  C_3
REMARK    3  A    between atoms: C_6  and  C_7
REMARK    4  A    between atoms: C_7  and  N_8
REMARK    5  A    between atoms: N_8  and  C_9
REMARK    6  A    between atoms: C_9  and  C_10
REMARK    7  A    between atoms: C_10  and  C_11
REMARK    8  A    between atoms: C_12  and  C_13
REMARK    9  A    between atoms: C_12  and  C_19
REMARK   10  A    between atoms: C_26  and  O_27
REMARK                            x       y       z     vdW  Elec       q    Type
REMARK                         _______ _______ _______ _____ _____    ______ ____
ROOT
ATOM      1  C   UNL     1       2.995   8.345  17.694  0.00  0.00    +0.000 C 
ENDROOT
BRANCH   1   2
ATOM      2  C   UNL     1       2.398   7.100  18.277  0.00  0.00    +0.000 C 
ATOM      3  C   UNL     1       3.020   5.899  18.328  0.00  0.00    +0.000 C 
BRANCH   3   4
ATOM      4  C   UNL     1       4.422   5.749  17.848  0.00  0.00    +0.000 A 
ATOM      5  C   UNL     1       5.468   5.740  18.780  0.00  0.00    +0.000 A 
ATOM      6  C   UNL     1       6.798   5.622  18.351  0.00  0.00    +0.000 A 
ATOM      7  C   UNL     1       7.087   5.490  16.994  0.00  0.00    +0.000 A 
ATOM      8  C   UNL     1       6.055   5.499  16.062  0.00  0.00    +0.000 A 
ATOM      9  C   UNL     1       4.726   5.646  16.488  0.00  0.00    +0.000 A 
ENDBRANCH   3   4
BRANCH   3  10
ATOM     10  C   UNL     1       2.204   4.780  18.844  0.00  0.00    +0.000 A 
ATOM     11  C   UNL     1       1.890   4.724  20.209  0.00  0.00    +0.000 A 
ATOM     12  C   UNL     1       1.193   3.633  20.732  0.00  0.00    +0.000 A 
ATOM     13  C   UNL     1       0.793   2.594  19.895  0.00  0.00    +0.000 A 
ATOM     14  C   UNL     1       1.086   2.647  18.533  0.00  0.00    +0.000 A 
ATOM     15  C   UNL     1       1.794   3.733  18.008  0.00  0.00    +0.000 A 
ENDBRANCH   3  10
ENDBRANCH   1   2
BRANCH   1  16
ATOM     16  C   UNL     1       2.135   9.612  17.831  0.00  0.00    +0.000 C 
BRANCH  16  17
ATOM     17  N   UNL     1       0.712   9.264  17.936  0.00  0.00    +0.000 NA
ATOM     18  H   UNL     1       0.284   9.296  17.011  0.00  0.00    +0.000 HD
BRANCH  17  19
ATOM     19  C   UNL     1      -0.015  10.181  18.817  0.00  0.00    +0.000 C 
BRANCH  19  23
ATOM     20  C   UNL     1      -3.879  11.217  17.191  0.00  0.00    +0.000 A 
ATOM     21  C   UNL     1      -3.440  11.751  18.409  0.00  0.00    +0.000 A 
ATOM     22  C   UNL     1      -2.192  11.416  18.937  0.00  0.00    +0.000 A 
ATOM     23  C   UNL     1      -1.357  10.539  18.247  0.00  0.00    +0.000 A 
ATOM     24  C   UNL     1      -1.802   9.974  17.042  0.00  0.00    +0.000 A 
ATOM     25  C   UNL     1      -3.050  10.321  16.514  0.00  0.00    +0.000 A 
BRANCH  20  27
ATOM     26  C   UNL     1      -6.149  11.618  17.801  0.00  0.00    +0.000 C 
ATOM     27  O   UNL     1      -5.118  11.671  16.829  0.00  0.00    +0.000 OA
ENDBRANCH  20  27
BRANCH  25  28
ATOM     28  O   UNL     1      -3.423   9.755  15.324  0.00  0.00    +0.000 OA
ATOM     29  H   UNL     1      -2.853  10.103  14.618  0.00  0.00    +0.000 HD
ENDBRANCH  25  28
ENDBRANCH  19  23
ENDBRANCH  17  19
ENDBRANCH  16  17
ENDBRANCH   1  16
TORSDOF 9
ENDMDL
MODEL 6
REMARK VINA RESULT:      -8.1      3.339      5.522
REMARK  Name = 
REMARK  10 active torsions:
REMARK  status: ('A' for Active; 'I' for Inactive)
REMARK    1  A    between atoms: C_1  and  O_2
REMARK    2  A    between atoms: O_2  and  C_3
REMARK    3  A    between atoms: C_6  and  C_7
REMARK    4  A    between atoms: C_7  and  N_8
REMARK    5  A    between atoms: N_8  and  C_9
REMARK    6  A    between atoms: C_9  and  C_10
REMARK    7  A    between atoms: C_10  and  C_11
REMARK    8  A    between atoms: C_12  and  C_13
REMARK    9  A    between atoms: C_12  and  C_19
REMARK   10  A    between atoms: C_26  and  O_27
REMARK                            x       y       z     vdW  Elec       q    Type
REMARK                         _______ _______ _______ _____ _____    ______ ____
ROOT
ATOM      1  C   UNL     1       2.149   8.197  17.990  0.00  0.00    +0.000 C 
ENDROOT
BRANCH   1   2
ATOM      2  C   UNL     1       3.364   7.453  17.525  0.00  0.00    +0.000 C 
ATOM      3  C   UNL     1       3.642   6.164  17.835  0.00  0.00    +0.000 C 
BRANCH   3   4
ATOM      4  C   UNL     1       2.686   5.352  18.637  0.00  0.00    +0.000 A 
ATOM      5  C   UNL     1       1.908   4.379  17.996  0.00  0.00    +0.000 A 
ATOM      6  C   UNL     1       0.985   3.616  18.726  0.00  0.00    +0.000 A 
ATOM      7  C   UNL     1       0.850   3.807  20.099  0.00  0.00    +0.000 A 
ATOM      8  C   UNL     1       1.617   4.772  20.743  0.00  0.00    +0.000 A 
ATOM      9  C   UNL     1       2.520   5.555  20.009  0.00  0.00    +0.000 A 
ENDBRANCH   3   4
BRANCH   3  10
ATOM     10  C   UNL     1       4.950   5.664  17.361  0.00  0.00    +0.000 A 
ATOM     11  C   UNL     1       5.972   5.411  18.285  0.00  0.00    +0.000 A 
ATOM     12  C   UNL     1       7.240   5.020  17.851  0.00  0.00    +0.000 A 
ATOM     13  C   UNL     1       7.495   4.865  16.490  0.00  0.00    +0.000 A 
ATOM     14  C   UNL     1       6.481   5.099  15.563  0.00  0.00    +0.000 A 
ATOM     15  C   UNL     1       5.213   5.501  15.994  0.00  0.00    +0.000 A 
ENDBRANCH   3  10
ENDBRANCH   1   2
BRANCH   1  16
ATOM     16  C   UNL     1       2.229   9.727  17.864  0.00  0.00    +0.000 C 
BRANCH  16  17
ATOM     17  N   UNL     1       0.948  10.346  18.229  0.00  0.00    +0.000 NA
ATOM     18  H   UNL     1       0.915  10.492  19.238  0.00  0.00    +0.000 HD
BRANCH  17  19
ATOM     19  C   UNL     1      -0.194   9.515  17.842  0.00  0.00    +0.000 C 
BRANCH  19  23
ATOM     20  C   UNL     1      -3.932  11.610  18.371  0.00  0.00    +0.000 A 
ATOM     21  C   UNL     1      -3.843  10.492  17.534  0.00  0.00    +0.000 A 
ATOM     22  C   UNL     1      -2.635   9.814  17.360  0.00  0.00    +0.000 A 
ATOM     23  C   UNL     1      -1.492  10.246  18.030  0.00  0.00    +0.000 A 
ATOM     24  C   UNL     1      -1.564  11.386  18.846  0.00  0.00    +0.000 A 
ATOM     25  C   UNL     1      -2.781  12.055  19.023  0.00  0.00    +0.000 A 
BRANCH  20  27
ATOM     26  C   UNL     1      -5.848  12.413  17.200  0.00  0.00    +0.000 C 
ATOM     27  O   UNL     1      -5.197  12.132  18.427  0.00  0.00    +0.000 OA
ENDBRANCH  20  27
BRANCH  25  28
ATOM     28  O   UNL     1      -2.796  13.148  19.848  0.00  0.00    +0.000 OA
ATOM     29  H   UNL     1      -3.347  12.949  20.623  0.00  0.00    +0.000 HD
ENDBRANCH  25  28
ENDBRANCH  19  23
ENDBRANCH  17  19
ENDBRANCH  16  17
ENDBRANCH   1  16
TORSDOF 9
ENDMDL
MODEL 7
REMARK VINA RESULT:      -8.1      3.433      5.487
REMARK  Name = 
REMARK  10 active torsions:
REMARK  status: ('A' for Active; 'I' for Inactive)
REMARK    1  A    between atoms: C_1  and  O_2
REMARK    2  A    between atoms: O_2  and  C_3
REMARK    3  A    between atoms: C_6  and  C_7
REMARK    4  A    between atoms: C_7  and  N_8
REMARK    5  A    between atoms: N_8  and  C_9
REMARK    6  A    between atoms: C_9  and  C_10
REMARK    7  A    between atoms: C_10  and  C_11
REMARK    8  A    between atoms: C_12  and  C_13
REMARK    9  A    between atoms: C_12  and  C_19
REMARK   10  A    between atoms: C_26  and  O_27
REMARK                            x       y       z     vdW  Elec       q    Type
REMARK                         _______ _______ _______ _____ _____    ______ ____
ROOT
ATOM      1  C   UNL     1       2.263   7.859  18.383  0.00  0.00    +0.000 C 
ENDROOT
BRANCH   1   2
ATOM      2  C   UNL     1       3.405   7.107  17.768  0.00  0.00    +0.000 C 
ATOM      3  C   UNL     1       3.646   5.787  17.952  0.00  0.00    +0.000 C 
BRANCH   3   4
ATOM      4  C   UNL     1       2.714   4.951  18.758  0.00  0.00    +0.000 A 
ATOM      5  C   UNL     1       1.794   4.124  18.101  0.00  0.00    +0.000 A 
ATOM      6  C   UNL     1       0.891   3.342  18.838  0.00  0.00    +0.000 A 
ATOM      7  C   UNL     1       0.919   3.368  20.230  0.00  0.00    +0.000 A 
ATOM      8  C   UNL     1       1.828   4.187  20.890  0.00  0.00    +0.000 A 
ATOM      9  C   UNL     1       2.711   4.990  20.154  0.00  0.00    +0.000 A 
ENDBRANCH   3   4
BRANCH   3  10
ATOM     10  C   UNL     1       4.890   5.276  17.340  0.00  0.00    +0.000 A 
ATOM     11  C   UNL     1       6.079   5.278  18.083  0.00  0.00    +0.000 A 
ATOM     12  C   UNL     1       7.282   4.879  17.496  0.00  0.00    +0.000 A 
ATOM     13  C   UNL     1       7.306   4.463  16.167  0.00  0.00    +0.000 A 
ATOM     14  C   UNL     1       6.126   4.442  15.424  0.00  0.00    +0.000 A 
ATOM     15  C   UNL     1       4.922   4.851  16.005  0.00  0.00    +0.000 A 
ENDBRANCH   3  10
ENDBRANCH   1   2
BRANCH   1  16
ATOM     16  C   UNL     1       2.061   9.289  17.857  0.00  0.00    +0.000 C 
BRANCH  16  17
ATOM     17  N   UNL     1       0.633   9.569  17.651  0.00  0.00    +0.000 NA
ATOM     18  H   UNL     1       0.507  10.070  16.772  0.00  0.00    +0.000 HD
BRANCH  17  19
ATOM     19  C   UNL     1       0.072  10.382  18.733  0.00  0.00    +0.000 C 
BRANCH  19  23
ATOM     20  C   UNL     1      -3.970  11.621  17.855  0.00  0.00    +0.000 A 
ATOM     21  C   UNL     1      -3.324  12.038  19.025  0.00  0.00    +0.000 A 
ATOM     22  C   UNL     1      -2.018  11.638  19.311  0.00  0.00    +0.000 A 
ATOM     23  C   UNL     1      -1.333  10.811  18.422  0.00  0.00    +0.000 A 
ATOM     24  C   UNL     1      -1.983  10.362  17.263  0.00  0.00    +0.000 A 
ATOM     25  C   UNL     1      -3.290  10.775  16.977  0.00  0.00    +0.000 A 
BRANCH  20  27
ATOM     26  C   UNL     1      -6.321  11.246  17.990  0.00  0.00    +0.000 C 
ATOM     27  O   UNL     1      -5.238  12.125  17.739  0.00  0.00    +0.000 OA
ENDBRANCH  20  27
BRANCH  25  28
ATOM     28  O   UNL     1      -3.867  10.322  15.821  0.00  0.00    +0.000 OA
ATOM     29  H   UNL     1      -4.723   9.917  16.036  0.00  0.00    +0.000 HD
ENDBRANCH  25  28
ENDBRANCH  19  23
ENDBRANCH  17  19
ENDBRANCH  16  17
ENDBRANCH   1  16
TORSDOF 9
ENDMDL
MODEL 8
REMARK VINA RESULT:      -8.1      3.379      5.576
REMARK  Name = 
REMARK  10 active torsions:
REMARK  status: ('A' for Active; 'I' for Inactive)
REMARK    1  A    between atoms: C_1  and  O_2
REMARK    2  A    between atoms: O_2  and  C_3
REMARK    3  A    between atoms: C_6  and  C_7
REMARK    4  A    between atoms: C_7  and  N_8
REMARK    5  A    between atoms: N_8  and  C_9
REMARK    6  A    between atoms: C_9  and  C_10
REMARK    7  A    between atoms: C_10  and  C_11
REMARK    8  A    between atoms: C_12  and  C_13
REMARK    9  A    between atoms: C_12  and  C_19
REMARK   10  A    between atoms: C_26  and  O_27
REMARK                            x       y       z     vdW  Elec       q    Type
REMARK                         _______ _______ _______ _____ _____    ______ ____
ROOT
ATOM      1  C   UNL     1       1.898   7.760  18.291  0.00  0.00    +0.000 C 
ENDROOT
BRANCH   1   2
ATOM      2  C   UNL     1       3.079   7.083  17.661  0.00  0.00    +0.000 C 
ATOM      3  C   UNL     1       3.442   5.799  17.889  0.00  0.00    +0.000 C 
BRANCH   3   4
ATOM      4  C   UNL     1       2.619   4.921  18.766  0.00  0.00    +0.000 A 
ATOM      5  C   UNL     1       2.828   4.947  20.151  0.00  0.00    +0.000 A 
ATOM      6  C   UNL     1       2.080   4.114  20.996  0.00  0.00    +0.000 A 
ATOM      7  C   UNL     1       1.106   3.271  20.464  0.00  0.00    +0.000 A 
ATOM      8  C   UNL     1       0.892   3.239  19.091  0.00  0.00    +0.000 A 
ATOM      9  C   UNL     1       1.660   4.050  18.243  0.00  0.00    +0.000 A 
ENDBRANCH   3   4
BRANCH   3  10
ATOM     10  C   UNL     1       4.703   5.371  17.248  0.00  0.00    +0.000 A 
ATOM     11  C   UNL     1       5.859   6.146  17.408  0.00  0.00    +0.000 A 
ATOM     12  C   UNL     1       7.039   5.806  16.742  0.00  0.00    +0.000 A 
ATOM     13  C   UNL     1       7.077   4.682  15.920  0.00  0.00    +0.000 A 
ATOM     14  C   UNL     1       5.937   3.895  15.767  0.00  0.00    +0.000 A 
ATOM     15  C   UNL     1       4.751   4.239  16.423  0.00  0.00    +0.000 A 
ENDBRANCH   3  10
ENDBRANCH   1   2
BRANCH   1  16
ATOM     16  C   UNL     1       1.985   9.292  18.369  0.00  0.00    +0.000 C 
BRANCH  16  17
ATOM     17  N   UNL     1       0.794   9.911  17.771  0.00  0.00    +0.000 NA
ATOM     18  H   UNL     1       1.037  10.317  16.868  0.00  0.00    +0.000 HD
BRANCH  17  19
ATOM     19  C   UNL     1       0.238  10.966  18.621  0.00  0.00    +0.000 C 
BRANCH  19  23
ATOM     20  C   UNL     1      -4.050  11.219  18.188  0.00  0.00    +0.000 A 
ATOM     21  C   UNL     1      -3.304  10.287  17.458  0.00  0.00    +0.000 A 
ATOM     22  C   UNL     1      -1.918  10.204  17.595  0.00  0.00    +0.000 A 
ATOM     23  C   UNL     1      -1.254  11.057  18.475  0.00  0.00    +0.000 A 
ATOM     24  C   UNL     1      -1.989  12.016  19.187  0.00  0.00    +0.000 A 
ATOM     25  C   UNL     1      -3.381  12.087  19.052  0.00  0.00    +0.000 A 
BRANCH  20  27
ATOM     26  C   UNL     1      -5.983  12.191  17.184  0.00  0.00    +0.000 C 
ATOM     27  O   UNL     1      -5.393  11.141  17.933  0.00  0.00    +0.000 OA
ENDBRANCH  20  27
BRANCH  25  28
ATOM     28  O   UNL     1      -4.049  13.029  19.788  0.00  0.00    +0.000 OA
ATOM     29  H   UNL     1      -4.618  13.545  19.194  0.00  0.00    +0.000 HD
ENDBRANCH  25  28
ENDBRANCH  19  23
ENDBRANCH  17  19
ENDBRANCH  16  17
ENDBRANCH   1  16
TORSDOF 9
ENDMDL
MODEL 9
REMARK VINA RESULT:      -8.1      2.627      5.056
REMARK  Name = 
REMARK  10 active torsions:
REMARK  status: ('A' for Active; 'I' for Inactive)
REMARK    1  A    between atoms: C_1  and  O_2
REMARK    2  A    between atoms: O_2  and  C_3
REMARK    3  A    between atoms: C_6  and  C_7
REMARK    4  A    between atoms: C_7  and  N_8
REMARK    5  A    between atoms: N_8  and  C_9
REMARK    6  A    between atoms: C_9  and  C_10
REMARK    7  A    between atoms: C_10  and  C_11
REMARK    8  A    between atoms: C_12  and  C_13
REMARK    9  A    between atoms: C_12  and  C_19
REMARK   10  A    between atoms: C_26  and  O_27
REMARK                            x       y       z     vdW  Elec       q    Type
REMARK                         _______ _______ _______ _____ _____    ______ ____
ROOT
ATOM      1  C   UNL     1       1.960   8.172  18.363  0.00  0.00    +0.000 C 
ENDROOT
BRANCH   1   2
ATOM      2  C   UNL     1       3.134   7.509  17.707  0.00  0.00    +0.000 C 
ATOM      3  C   UNL     1       3.494   6.217  17.897  0.00  0.00    +0.000 C 
BRANCH   3   4
ATOM      4  C   UNL     1       2.672   5.319  18.755  0.00  0.00    +0.000 A 
ATOM      5  C   UNL     1       1.748   4.455  18.153  0.00  0.00    +0.000 A 
ATOM      6  C   UNL     1       0.948   3.614  18.941  0.00  0.00    +0.000 A 
ATOM      7  C   UNL     1       1.083   3.617  20.327  0.00  0.00    +0.000 A 
ATOM      8  C   UNL     1       1.997   4.472  20.933  0.00  0.00    +0.000 A 
ATOM      9  C   UNL     1       2.777   5.334  20.147  0.00  0.00    +0.000 A 
ENDBRANCH   3   4
BRANCH   3  10
ATOM     10  C   UNL     1       4.749   5.803  17.237  0.00  0.00    +0.000 A 
ATOM     11  C   UNL     1       4.791   4.598  16.523  0.00  0.00    +0.000 A 
ATOM     12  C   UNL     1       5.989   4.146  15.964  0.00  0.00    +0.000 A 
ATOM     13  C   UNL     1       7.152   4.900  16.102  0.00  0.00    +0.000 A 
ATOM     14  C   UNL     1       7.118   6.108  16.797  0.00  0.00    +0.000 A 
ATOM     15  C   UNL     1       5.923   6.557  17.368  0.00  0.00    +0.000 A 
ENDBRANCH   3  10
ENDBRANCH   1   2
BRANCH   1  16
ATOM     16  C   UNL     1       1.946   9.707  18.285  0.00  0.00    +0.000 C 
BRANCH  16  17
ATOM     17  N   UNL     1       0.677  10.186  17.723  0.00  0.00    +0.000 NA
ATOM     18  H   UNL     1       0.708  11.201  17.626  0.00  0.00    +0.000 HD
BRANCH  17  19
ATOM     19  C   UNL     1      -0.466   9.836  18.569  0.00  0.00    +0.000 C 
BRANCH  19  23
ATOM     20  C   UNL     1      -0.470  12.128  22.227  0.00  0.00    +0.000 A 
ATOM     21  C   UNL     1      -0.670  12.746  20.987  0.00  0.00    +0.000 A 
ATOM     22  C   UNL     1      -0.667  12.007  19.803  0.00  0.00    +0.000 A 
ATOM     23  C   UNL     1      -0.468  10.628  19.844  0.00  0.00    +0.000 A 
ATOM     24  C   UNL     1      -0.235  10.005  21.079  0.00  0.00    +0.000 A 
ATOM     25  C   UNL     1      -0.248  10.751  22.263  0.00  0.00    +0.000 A 
BRANCH  20  27
ATOM     26  C   UNL     1      -1.517  14.017  23.239  0.00  0.00    +0.000 C 
ATOM     27  O   UNL     1      -0.520  13.010  23.274  0.00  0.00    +0.000 OA
ENDBRANCH  20  27
BRANCH  25  28
ATOM     28  O   UNL     1      -0.035  10.086  23.441  0.00  0.00    +0.000 OA
ATOM     29  H   UNL     1       0.796  10.400  23.833  0.00  0.00    +0.000 HD
ENDBRANCH  25  28
ENDBRANCH  19  23
ENDBRANCH  17  19
ENDBRANCH  16  17
ENDBRANCH   1  16
TORSDOF 9
ENDMDL
