MODEL 1
REMARK VINA RESULT:      -7.4      0.000      0.000
REMARK  Name = 
REMARK  10 active torsions:
REMARK  status: ('A' for Active; 'I' for Inactive)
REMARK    1  A    between atoms: C_1  and  C_2
REMARK    2  A    between atoms: C_2  and  O_3
REMARK    3  A    between atoms: O_3  and  C_4
REMARK    4  A    between atoms: C_4  and  C_5
REMARK    5  A    between atoms: C_5  and  N_6
REMARK    6  A    between atoms: C_7  and  S_8
REMARK    7  A    between atoms: S_8  and  C_9
REMARK    8  A    between atoms: C_9  and  C_10
REMARK    9  A    between atoms: C_10  and  C_11
REMARK   10  A    between atoms: N_25  and  C_26
REMARK                            x       y       z     vdW  Elec       q    Type
REMARK                         _______ _______ _______ _____ _____    ______ ____
ROOT
ATOM      1  N   UNL     1       4.298   6.284  17.947  0.00  0.00    +0.000 N 
ATOM      2  C   UNL     1       3.074   6.838  18.275  0.00  0.00    +0.000 A 
ATOM      3  N   UNL     1       2.393   6.071  19.102  0.00  0.00    +0.000 NA
ATOM      4  C   UNL     1       3.222   5.032  19.367  0.00  0.00    +0.000 A 
ATOM      5  C   UNL     1       4.410   5.139  18.701  0.00  0.00    +0.000 A 
ATOM      6  C   UNL     1       5.460   4.193  18.865  0.00  0.00    +0.000 A 
ATOM      7  O   UNL     1       6.586   4.291  18.391  0.00  0.00    +0.000 OA
ATOM      8  N   UNL     1       5.094   3.130  19.655  0.00  0.00    +0.000 N 
ATOM      9  C   UNL     1       3.931   3.001  20.391  0.00  0.00    +0.000 A 
ATOM     10  O   UNL     1       3.816   2.039  21.148  0.00  0.00    +0.000 OA
ATOM     11  N   UNL     1       2.969   3.988  20.233  0.00  0.00    +0.000 N 
ATOM     12  C   UNL     1       1.738   3.951  20.999  0.00  0.00    +0.000 C 
ATOM     13  H   UNL     1       5.796   2.425  19.817  0.00  0.00    +0.000 HD
ENDROOT
BRANCH   1  14
ATOM     14  C   UNL     1       5.321   6.792  17.047  0.00  0.00    +0.000 C 
BRANCH  14  15
ATOM     15  C   UNL     1       5.183   6.291  15.607  0.00  0.00    +0.000 C 
BRANCH  15  16
ATOM     16  O   UNL     1       6.407   5.699  15.176  0.00  0.00    +0.000 OA
BRANCH  16  18
ATOM     17  C   UNL     1       6.073   3.907  13.641  0.00  0.00    +0.000 C 
ATOM     18  C   UNL     1       6.296   4.278  15.092  0.00  0.00    +0.000 C 
ENDBRANCH  16  18
ENDBRANCH  15  16
ENDBRANCH  14  15
ENDBRANCH   1  14
BRANCH   2  19
ATOM     19  S   UNL     1       2.554   8.406  17.743  0.00  0.00    +0.000 S 
BRANCH  19  20
ATOM     20  C   UNL     1       1.408   8.938  19.064  0.00  0.00    +0.000 C 
BRANCH  20  21
ATOM     21  C   UNL     1       1.046  10.426  19.013  0.00  0.00    +0.000 C 
BRANCH  21  22
ATOM     22  C   UNL     1      -0.410  10.646  18.653  0.00  0.00    +0.000 A 
ATOM     23  C   UNL     1      -1.009   9.894  17.633  0.00  0.00    +0.000 A 
ATOM     24  C   UNL     1      -2.353  10.088  17.305  0.00  0.00    +0.000 A 
ATOM     25  C   UNL     1      -3.109  11.038  17.988  0.00  0.00    +0.000 A 
ATOM     26  C   UNL     1      -2.522  11.797  18.998  0.00  0.00    +0.000 A 
ATOM     27  C   UNL     1      -1.177  11.604  19.328  0.00  0.00    +0.000 A 
ENDBRANCH  21  22
ENDBRANCH  20  21
ENDBRANCH  19  20
ENDBRANCH   2  19
TORSDOF 8
ENDMDL
MODEL 2
REMARK VINA RESULT:      -7.4      1.472      2.014
REMARK  Name = 
REMARK  10 active torsions:
REMARK  status: ('A' for Active; 'I' for Inactive)
REMARK    1  A    between atoms: C_1  and  C_2
REMARK    2  A    between atoms: C_2  and  O_3
REMARK    3  A    between atoms: O_3  and  C_4
REMARK    4  A    between atoms: C_4  and  C_5
REMARK    5  A    between atoms: C_5  and  N_6
REMARK    6  A    between atoms: C_7  and  S_8
REMARK    7  A    between atoms: S_8  and  C_9
REMARK    8  A    between atoms: C_9  and  C_10
REMARK    9  A    between atoms: C_10  and  C_11
REMARK   10  A    between atoms: N_25  and  C_26
REMARK                            x       y       z     vdW  Elec       q    Type
REMARK                         _______ _______ _______ _____ _____    ______ ____
ROOT
ATOM      1  N   UNL     1       4.291   6.295  18.013  0.00  0.00    +0.000 N 
ATOM      2  C   UNL     1       3.052   6.788  18.377  0.00  0.00    +0.000 A 
ATOM      3  N   UNL     1       2.405   5.955  19.168  0.00  0.00    +0.000 NA
ATOM      4  C   UNL     1       3.272   4.934  19.373  0.00  0.00    +0.000 A 
ATOM      5  C   UNL     1       4.450   5.117  18.706  0.00  0.00    +0.000 A 
ATOM      6  C   UNL     1       5.534   4.203  18.815  0.00  0.00    +0.000 A 
ATOM      7  O   UNL     1       6.652   4.365  18.339  0.00  0.00    +0.000 OA
ATOM      8  N   UNL     1       5.213   3.089  19.550  0.00  0.00    +0.000 N 
ATOM      9  C   UNL     1       4.062   2.880  20.287  0.00  0.00    +0.000 A 
ATOM     10  O   UNL     1       3.988   1.877  20.994  0.00  0.00    +0.000 OA
ATOM     11  N   UNL     1       3.063   3.839  20.186  0.00  0.00    +0.000 N 
ATOM     12  C   UNL     1       1.842   3.718  20.957  0.00  0.00    +0.000 C 
ATOM     13  H   UNL     1       5.941   2.401  19.671  0.00  0.00    +0.000 HD
ENDROOT
BRANCH   1  14
ATOM     14  C   UNL     1       5.288   6.886  17.133  0.00  0.00    +0.000 C 
BRANCH  14  15
ATOM     15  C   UNL     1       5.305   6.284  15.726  0.00  0.00    +0.000 C 
BRANCH  15  16
ATOM     16  O   UNL     1       6.646   5.989  15.337  0.00  0.00    +0.000 OA
BRANCH  16  18
ATOM     17  C   UNL     1       5.714   4.178  14.100  0.00  0.00    +0.000 C 
ATOM     18  C   UNL     1       6.811   4.599  15.054  0.00  0.00    +0.000 C 
ENDBRANCH  16  18
ENDBRANCH  15  16
ENDBRANCH  14  15
ENDBRANCH   1  14
BRANCH   2  19
ATOM     19  S   UNL     1       2.471   8.361  17.931  0.00  0.00    +0.000 S 
BRANCH  19  20
ATOM     20  C   UNL     1       1.239   8.737  19.227  0.00  0.00    +0.000 C 
BRANCH  20  21
ATOM     21  C   UNL     1       1.048  10.235  19.488  0.00  0.00    +0.000 C 
BRANCH  21  22
ATOM     22  C   UNL     1       0.250  10.495  20.750  0.00  0.00    +0.000 A 
ATOM     23  C   UNL     1       0.327   9.608  21.833  0.00  0.00    +0.000 A 
ATOM     24  C   UNL     1      -0.400   9.851  23.001  0.00  0.00    +0.000 A 
ATOM     25  C   UNL     1      -1.215  10.976  23.097  0.00  0.00    +0.000 A 
ATOM     26  C   UNL     1      -1.306  11.860  22.024  0.00  0.00    +0.000 A 
ATOM     27  C   UNL     1      -0.579  11.620  20.854  0.00  0.00    +0.000 A 
ENDBRANCH  21  22
ENDBRANCH  20  21
ENDBRANCH  19  20
ENDBRANCH   2  19
TORSDOF 8
ENDMDL
MODEL 3
REMARK VINA RESULT:      -7.4      2.247      4.541
REMARK  Name = 
REMARK  10 active torsions:
REMARK  status: ('A' for Active; 'I' for Inactive)
REMARK    1  A    between atoms: C_1  and  C_2
REMARK    2  A    between atoms: C_2  and  O_3
REMARK    3  A    between atoms: O_3  and  C_4
REMARK    4  A    between atoms: C_4  and  C_5
REMARK    5  A    between atoms: C_5  and  N_6
REMARK    6  A    between atoms: C_7  and  S_8
REMARK    7  A    between atoms: S_8  and  C_9
REMARK    8  A    between atoms: C_9  and  C_10
REMARK    9  A    between atoms: C_10  and  C_11
REMARK   10  A    between atoms: N_25  and  C_26
REMARK                            x       y       z     vdW  Elec       q    Type
REMARK                         _______ _______ _______ _____ _____    ______ ____
ROOT
ATOM      1  N   UNL     1       3.217   5.876  18.313  0.00  0.00    +0.000 N 
ATOM      2  C   UNL     1       3.395   7.179  17.890  0.00  0.00    +0.000 A 
ATOM      3  N   UNL     1       4.658   7.439  17.619  0.00  0.00    +0.000 NA
ATOM      4  C   UNL     1       5.299   6.260  17.807  0.00  0.00    +0.000 A 
ATOM      5  C   UNL     1       4.447   5.269  18.206  0.00  0.00    +0.000 A 
ATOM      6  C   UNL     1       4.882   3.931  18.412  0.00  0.00    +0.000 A 
ATOM      7  O   UNL     1       4.154   2.975  18.655  0.00  0.00    +0.000 OA
ATOM      8  N   UNL     1       6.243   3.793  18.284  0.00  0.00    +0.000 N 
ATOM      9  C   UNL     1       7.138   4.745  17.833  0.00  0.00    +0.000 A 
ATOM     10  O   UNL     1       8.310   4.417  17.657  0.00  0.00    +0.000 OA
ATOM     11  N   UNL     1       6.640   6.018  17.592  0.00  0.00    +0.000 N 
ATOM     12  C   UNL     1       7.502   7.064  17.077  0.00  0.00    +0.000 C 
ATOM     13  H   UNL     1       6.618   2.866  18.412  0.00  0.00    +0.000 HD
ENDROOT
BRANCH   1  14
ATOM     14  C   UNL     1       1.994   5.210  18.737  0.00  0.00    +0.000 C 
BRANCH  14  15
ATOM     15  C   UNL     1       1.743   5.278  20.246  0.00  0.00    +0.000 C 
BRANCH  15  16
ATOM     16  O   UNL     1       0.716   4.358  20.612  0.00  0.00    +0.000 OA
BRANCH  16  18
ATOM     17  C   UNL     1       1.830   2.560  21.710  0.00  0.00    +0.000 C 
ATOM     18  C   UNL     1       1.143   3.007  20.437  0.00  0.00    +0.000 C 
ENDBRANCH  16  18
ENDBRANCH  15  16
ENDBRANCH  14  15
ENDBRANCH   1  14
BRANCH   2  19
ATOM     19  S   UNL     1       2.092   8.299  17.643  0.00  0.00    +0.000 S 
BRANCH  19  20
ATOM     20  C   UNL     1       1.708   8.875  19.334  0.00  0.00    +0.000 C 
BRANCH  20  21
ATOM     21  C   UNL     1       0.807  10.114  19.380  0.00  0.00    +0.000 C 
BRANCH  21  22
ATOM     22  C   UNL     1       0.139  10.283  20.729  0.00  0.00    +0.000 A 
ATOM     23  C   UNL     1       0.193   9.254  21.680  0.00  0.00    +0.000 A 
ATOM     24  C   UNL     1      -0.413   9.411  22.929  0.00  0.00    +0.000 A 
ATOM     25  C   UNL     1      -1.085  10.591  23.237  0.00  0.00    +0.000 A 
ATOM     26  C   UNL     1      -1.153  11.617  22.296  0.00  0.00    +0.000 A 
ATOM     27  C   UNL     1      -0.546  11.463  21.047  0.00  0.00    +0.000 A 
ENDBRANCH  21  22
ENDBRANCH  20  21
ENDBRANCH  19  20
ENDBRANCH   2  19
TORSDOF 8
ENDMDL
MODEL 4
REMARK VINA RESULT:      -7.3      2.132      4.535
REMARK  Name = 
REMARK  10 active torsions:
REMARK  status: ('A' for Active; 'I' for Inactive)
REMARK    1  A    between atoms: C_1  and  C_2
REMARK    2  A    between atoms: C_2  and  O_3
REMARK    3  A    between atoms: O_3  and  C_4
REMARK    4  A    between atoms: C_4  and  C_5
REMARK    5  A    between atoms: C_5  and  N_6
REMARK    6  A    between atoms: C_7  and  S_8
REMARK    7  A    between atoms: S_8  and  C_9
REMARK    8  A    between atoms: C_9  and  C_10
REMARK    9  A    between atoms: C_10  and  C_11
REMARK   10  A    between atoms: N_25  and  C_26
REMARK                            x       y       z     vdW  Elec       q    Type
REMARK                         _______ _______ _______ _____ _____    ______ ____
ROOT
ATOM      1  N   UNL     1       3.310   5.890  18.590  0.00  0.00    +0.000 N 
ATOM      2  C   UNL     1       3.404   7.079  17.890  0.00  0.00    +0.000 A 
ATOM      3  N   UNL     1       4.611   7.263  17.395  0.00  0.00    +0.000 NA
ATOM      4  C   UNL     1       5.292   6.137  17.723  0.00  0.00    +0.000 A 
ATOM      5  C   UNL     1       4.522   5.259  18.432  0.00  0.00    +0.000 A 
ATOM      6  C   UNL     1       5.004   3.985  18.840  0.00  0.00    +0.000 A 
ATOM      7  O   UNL     1       4.334   3.107  19.373  0.00  0.00    +0.000 OA
ATOM      8  N   UNL     1       6.335   3.807  18.549  0.00  0.00    +0.000 N 
ATOM      9  C   UNL     1       7.140   4.635  17.791  0.00  0.00    +0.000 A 
ATOM     10  O   UNL     1       8.280   4.263  17.519  0.00  0.00    +0.000 OA
ATOM     11  N   UNL     1       6.592   5.840  17.371  0.00  0.00    +0.000 N 
ATOM     12  C   UNL     1       7.354   6.748  16.537  0.00  0.00    +0.000 C 
ATOM     13  H   UNL     1       6.739   2.919  18.806  0.00  0.00    +0.000 HD
ENDROOT
BRANCH   1  14
ATOM     14  C   UNL     1       2.171   5.340  19.310  0.00  0.00    +0.000 C 
BRANCH  14  15
ATOM     15  C   UNL     1       1.414   4.258  18.536  0.00  0.00    +0.000 C 
BRANCH  15  16
ATOM     16  O   UNL     1       0.963   3.242  19.431  0.00  0.00    +0.000 OA
BRANCH  16  18
ATOM     17  C   UNL     1       1.575   2.483  21.605  0.00  0.00    +0.000 C 
ATOM     18  C   UNL     1       1.079   3.660  20.792  0.00  0.00    +0.000 C 
ENDBRANCH  16  18
ENDBRANCH  15  16
ENDBRANCH  14  15
ENDBRANCH   1  14
BRANCH   2  19
ATOM     19  S   UNL     1       2.061   8.142  17.612  0.00  0.00    +0.000 S 
BRANCH  19  20
ATOM     20  C   UNL     1       1.711   8.820  19.273  0.00  0.00    +0.000 C 
BRANCH  20  21
ATOM     21  C   UNL     1       0.640   9.917  19.284  0.00  0.00    +0.000 C 
BRANCH  21  22
ATOM     22  C   UNL     1       0.068  10.139  20.669  0.00  0.00    +0.000 A 
ATOM     23  C   UNL     1      -0.557  11.351  20.992  0.00  0.00    +0.000 A 
ATOM     24  C   UNL     1      -1.094  11.555  22.266  0.00  0.00    +0.000 A 
ATOM     25  C   UNL     1      -1.006  10.554  23.230  0.00  0.00    +0.000 A 
ATOM     26  C   UNL     1      -0.379   9.348  22.923  0.00  0.00    +0.000 A 
ATOM     27  C   UNL     1       0.158   9.141  21.649  0.00  0.00    +0.000 A 
ENDBRANCH  21  22
ENDBRANCH  20  21
ENDBRANCH  19  20
ENDBRANCH   2  19
TORSDOF 8
ENDMDL
MODEL 5
REMARK VINA RESULT:      -7.3      1.496      2.066
REMARK  Name = 
REMARK  10 active torsions:
REMARK  status: ('A' for Active; 'I' for Inactive)
REMARK    1  A    between atoms: C_1  and  C_2
REMARK    2  A    between atoms: C_2  and  O_3
REMARK    3  A    between atoms: O_3  and  C_4
REMARK    4  A    between atoms: C_4  and  C_5
REMARK    5  A    between atoms: C_5  and  N_6
REMARK    6  A    between atoms: C_7  and  S_8
REMARK    7  A    between atoms: S_8  and  C_9
REMARK    8  A    between atoms: C_9  and  C_10
REMARK    9  A    between atoms: C_10  and  C_11
REMARK   10  A    between atoms: N_25  and  C_26
REMARK                            x       y       z     vdW  Elec       q    Type
REMARK                         _______ _______ _______ _____ _____    ______ ____
ROOT
ATOM      1  N   UNL     1       4.209   6.159  18.072  0.00  0.00    +0.000 N 
ATOM      2  C   UNL     1       2.945   6.612  18.399  0.00  0.00    +0.000 A 
ATOM      3  N   UNL     1       2.315   5.776  19.200  0.00  0.00    +0.000 NA
ATOM      4  C   UNL     1       3.218   4.795  19.450  0.00  0.00    +0.000 A 
ATOM      5  C   UNL     1       4.400   5.007  18.800  0.00  0.00    +0.000 A 
ATOM      6  C   UNL     1       5.517   4.140  18.954  0.00  0.00    +0.000 A 
ATOM      7  O   UNL     1       6.637   4.333  18.495  0.00  0.00    +0.000 OA
ATOM      8  N   UNL     1       5.225   3.033  19.714  0.00  0.00    +0.000 N 
ATOM      9  C   UNL     1       4.069   2.799  20.434  0.00  0.00    +0.000 A 
ATOM     10  O   UNL     1       4.019   1.813  21.167  0.00  0.00    +0.000 OA
ATOM     11  N   UNL     1       3.036   3.715  20.288  0.00  0.00    +0.000 N 
ATOM     12  C   UNL     1       1.804   3.567  21.040  0.00  0.00    +0.000 C 
ATOM     13  H   UNL     1       5.976   2.379  19.868  0.00  0.00    +0.000 HD
ENDROOT
BRANCH   1  14
ATOM     14  C   UNL     1       5.200   6.765  17.196  0.00  0.00    +0.000 C 
BRANCH  14  15
ATOM     15  C   UNL     1       5.116   6.287  15.743  0.00  0.00    +0.000 C 
BRANCH  15  16
ATOM     16  O   UNL     1       5.098   4.861  15.699  0.00  0.00    +0.000 OA
BRANCH  16  18
ATOM     17  C   UNL     1       5.853   3.979  13.618  0.00  0.00    +0.000 C 
ATOM     18  C   UNL     1       6.251   4.347  15.032  0.00  0.00    +0.000 C 
ENDBRANCH  16  18
ENDBRANCH  15  16
ENDBRANCH  14  15
ENDBRANCH   1  14
BRANCH   2  19
ATOM     19  S   UNL     1       2.312   8.148  17.899  0.00  0.00    +0.000 S 
BRANCH  19  20
ATOM     20  C   UNL     1       1.692   8.874  19.458  0.00  0.00    +0.000 C 
BRANCH  20  21
ATOM     21  C   UNL     1       0.473   9.786  19.277  0.00  0.00    +0.000 C 
BRANCH  21  22
ATOM     22  C   UNL     1      -0.122  10.210  20.605  0.00  0.00    +0.000 A 
ATOM     23  C   UNL     1      -0.832  11.414  20.711  0.00  0.00    +0.000 A 
ATOM     24  C   UNL     1      -1.390  11.802  21.932  0.00  0.00    +0.000 A 
ATOM     25  C   UNL     1      -1.238  10.996  23.058  0.00  0.00    +0.000 A 
ATOM     26  C   UNL     1      -0.526   9.802  22.966  0.00  0.00    +0.000 A 
ATOM     27  C   UNL     1       0.031   9.411  21.746  0.00  0.00    +0.000 A 
ENDBRANCH  21  22
ENDBRANCH  20  21
ENDBRANCH  19  20
ENDBRANCH   2  19
TORSDOF 8
ENDMDL
MODEL 6
REMARK VINA RESULT:      -7.2      5.075      8.811
REMARK  Name = 
REMARK  10 active torsions:
REMARK  status: ('A' for Active; 'I' for Inactive)
REMARK    1  A    between atoms: C_1  and  C_2
REMARK    2  A    between atoms: C_2  and  O_3
REMARK    3  A    between atoms: O_3  and  C_4
REMARK    4  A    between atoms: C_4  and  C_5
REMARK    5  A    between atoms: C_5  and  N_6
REMARK    6  A    between atoms: C_7  and  S_8
REMARK    7  A    between atoms: S_8  and  C_9
REMARK    8  A    between atoms: C_9  and  C_10
REMARK    9  A    between atoms: C_10  and  C_11
REMARK   10  A    between atoms: N_25  and  C_26
REMARK                            x       y       z     vdW  Elec       q    Type
REMARK                         _______ _______ _______ _____ _____    ______ ____
ROOT
ATOM      1  N   UNL     1      -0.551  11.222  19.432  0.00  0.00    +0.000 N 
ATOM      2  C   UNL     1       0.068  10.373  18.533  0.00  0.00    +0.000 A 
ATOM      3  N   UNL     1      -0.749  10.000  17.569  0.00  0.00    +0.000 NA
ATOM      4  C   UNL     1      -1.899  10.674  17.813  0.00  0.00    +0.000 A 
ATOM      5  C   UNL     1      -1.810  11.456  18.930  0.00  0.00    +0.000 A 
ATOM      6  C   UNL     1      -2.875  12.299  19.353  0.00  0.00    +0.000 A 
ATOM      7  O   UNL     1      -2.819  13.107  20.272  0.00  0.00    +0.000 OA
ATOM      8  N   UNL     1      -4.008  12.138  18.594  0.00  0.00    +0.000 N 
ATOM      9  C   UNL     1      -4.134  11.406  17.429  0.00  0.00    +0.000 A 
ATOM     10  O   UNL     1      -5.189  11.471  16.802  0.00  0.00    +0.000 OA
ATOM     11  N   UNL     1      -3.038  10.650  17.035  0.00  0.00    +0.000 N 
ATOM     12  C   UNL     1      -3.071   9.886  15.803  0.00  0.00    +0.000 C 
ATOM     13  H   UNL     1      -4.801  12.712  18.838  0.00  0.00    +0.000 HD
ENDROOT
BRANCH   1  14
ATOM     14  C   UNL     1      -0.012  11.824  20.643  0.00  0.00    +0.000 C 
BRANCH  14  15
ATOM     15  C   UNL     1      -0.103  10.921  21.876  0.00  0.00    +0.000 C 
BRANCH  15  16
ATOM     16  O   UNL     1       1.176  10.359  22.165  0.00  0.00    +0.000 OA
BRANCH  16  18
ATOM     17  C   UNL     1      -0.255   8.501  21.744  0.00  0.00    +0.000 C 
ATOM     18  C   UNL     1       1.119   8.933  22.211  0.00  0.00    +0.000 C 
ENDBRANCH  16  18
ENDBRANCH  15  16
ENDBRANCH  14  15
ENDBRANCH   1  14
BRANCH   2  19
ATOM     19  S   UNL     1       1.748   9.945  18.613  0.00  0.00    +0.000 S 
BRANCH  19  20
ATOM     20  C   UNL     1       1.820   8.360  17.704  0.00  0.00    +0.000 C 
BRANCH  20  21
ATOM     21  C   UNL     1       2.903   7.402  18.210  0.00  0.00    +0.000 C 
BRANCH  21  22
ATOM     22  C   UNL     1       2.317   6.117  18.757  0.00  0.00    +0.000 A 
ATOM     23  C   UNL     1       2.011   5.054  17.896  0.00  0.00    +0.000 A 
ATOM     24  C   UNL     1       1.478   3.864  18.399  0.00  0.00    +0.000 A 
ATOM     25  C   UNL     1       1.239   3.728  19.765  0.00  0.00    +0.000 A 
ATOM     26  C   UNL     1       1.531   4.781  20.629  0.00  0.00    +0.000 A 
ATOM     27  C   UNL     1       2.065   5.971  20.128  0.00  0.00    +0.000 A 
ENDBRANCH  21  22
ENDBRANCH  20  21
ENDBRANCH  19  20
ENDBRANCH   2  19
TORSDOF 8
ENDMDL
MODEL 7
REMARK VINA RESULT:      -7.2      0.442      1.043
REMARK  Name = 
REMARK  10 active torsions:
REMARK  status: ('A' for Active; 'I' for Inactive)
REMARK    1  A    between atoms: C_1  and  C_2
REMARK    2  A    between atoms: C_2  and  O_3
REMARK    3  A    between atoms: O_3  and  C_4
REMARK    4  A    between atoms: C_4  and  C_5
REMARK    5  A    between atoms: C_5  and  N_6
REMARK    6  A    between atoms: C_7  and  S_8
REMARK    7  A    between atoms: S_8  and  C_9
REMARK    8  A    between atoms: C_9  and  C_10
REMARK    9  A    between atoms: C_10  and  C_11
REMARK   10  A    between atoms: N_25  and  C_26
REMARK                            x       y       z     vdW  Elec       q    Type
REMARK                         _______ _______ _______ _____ _____    ______ ____
ROOT
ATOM      1  N   UNL     1       4.378   6.436  17.859  0.00  0.00    +0.000 N 
ATOM      2  C   UNL     1       3.191   7.059  18.197  0.00  0.00    +0.000 A 
ATOM      3  N   UNL     1       2.458   6.315  19.001  0.00  0.00    +0.000 NA
ATOM      4  C   UNL     1       3.217   5.218  19.241  0.00  0.00    +0.000 A 
ATOM      5  C   UNL     1       4.413   5.266  18.582  0.00  0.00    +0.000 A 
ATOM      6  C   UNL     1       5.399   4.252  18.724  0.00  0.00    +0.000 A 
ATOM      7  O   UNL     1       6.532   4.289  18.257  0.00  0.00    +0.000 OA
ATOM      8  N   UNL     1       4.962   3.194  19.483  0.00  0.00    +0.000 N 
ATOM      9  C   UNL     1       3.790   3.119  20.212  0.00  0.00    +0.000 A 
ATOM     10  O   UNL     1       3.610   2.148  20.943  0.00  0.00    +0.000 OA
ATOM     11  N   UNL     1       2.893   4.170  20.077  0.00  0.00    +0.000 N 
ATOM     12  C   UNL     1       1.659   4.192  20.839  0.00  0.00    +0.000 C 
ATOM     13  H   UNL     1       5.617   2.441  19.629  0.00  0.00    +0.000 HD
ENDROOT
BRANCH   1  14
ATOM     14  C   UNL     1       5.436   6.902  16.975  0.00  0.00    +0.000 C 
BRANCH  14  15
ATOM     15  C   UNL     1       5.207   6.559  15.501  0.00  0.00    +0.000 C 
BRANCH  15  16
ATOM     16  O   UNL     1       6.192   5.625  15.059  0.00  0.00    +0.000 OA
BRANCH  16  18
ATOM     17  C   UNL     1       6.194   3.838  13.483  0.00  0.00    +0.000 C 
ATOM     18  C   UNL     1       5.612   4.350  14.783  0.00  0.00    +0.000 C 
ENDBRANCH  16  18
ENDBRANCH  15  16
ENDBRANCH  14  15
ENDBRANCH   1  14
BRANCH   2  19
ATOM     19  S   UNL     1       2.774   8.671  17.706  0.00  0.00    +0.000 S 
BRANCH  19  20
ATOM     20  C   UNL     1       0.981   8.763  18.047  0.00  0.00    +0.000 C 
BRANCH  20  21
ATOM     21  C   UNL     1       0.542  10.066  18.723  0.00  0.00    +0.000 C 
BRANCH  21  22
ATOM     22  C   UNL     1      -0.883  10.439  18.368  0.00  0.00    +0.000 A 
ATOM     23  C   UNL     1      -1.565  11.415  19.109  0.00  0.00    +0.000 A 
ATOM     24  C   UNL     1      -2.876  11.768  18.778  0.00  0.00    +0.000 A 
ATOM     25  C   UNL     1      -3.519  11.146  17.710  0.00  0.00    +0.000 A 
ATOM     26  C   UNL     1      -2.854  10.169  16.973  0.00  0.00    +0.000 A 
ATOM     27  C   UNL     1      -1.542   9.815  17.301  0.00  0.00    +0.000 A 
ENDBRANCH  21  22
ENDBRANCH  20  21
ENDBRANCH  19  20
ENDBRANCH   2  19
TORSDOF 8
ENDMDL
MODEL 8
REMARK VINA RESULT:      -7.0      1.408      2.266
REMARK  Name = 
REMARK  10 active torsions:
REMARK  status: ('A' for Active; 'I' for Inactive)
REMARK    1  A    between atoms: C_1  and  C_2
REMARK    2  A    between atoms: C_2  and  O_3
REMARK    3  A    between atoms: O_3  and  C_4
REMARK    4  A    between atoms: C_4  and  C_5
REMARK    5  A    between atoms: C_5  and  N_6
REMARK    6  A    between atoms: C_7  and  S_8
REMARK    7  A    between atoms: S_8  and  C_9
REMARK    8  A    between atoms: C_9  and  C_10
REMARK    9  A    between atoms: C_10  and  C_11
REMARK   10  A    between atoms: N_25  and  C_26
REMARK                            x       y       z     vdW  Elec       q    Type
REMARK                         _______ _______ _______ _____ _____    ______ ____
ROOT
ATOM      1  N   UNL     1       4.283   6.303  17.964  0.00  0.00    +0.000 N 
ATOM      2  C   UNL     1       3.041   6.823  18.277  0.00  0.00    +0.000 A 
ATOM      3  N   UNL     1       2.367   6.032  19.088  0.00  0.00    +0.000 NA
ATOM      4  C   UNL     1       3.219   5.013  19.359  0.00  0.00    +0.000 A 
ATOM      5  C   UNL     1       4.414   5.156  18.712  0.00  0.00    +0.000 A 
ATOM      6  C   UNL     1       5.485   4.237  18.886  0.00  0.00    +0.000 A 
ATOM      7  O   UNL     1       6.616   4.368  18.430  0.00  0.00    +0.000 OA
ATOM      8  N   UNL     1       5.135   3.159  19.662  0.00  0.00    +0.000 N 
ATOM      9  C   UNL     1       3.966   2.994  20.379  0.00  0.00    +0.000 A 
ATOM     10  O   UNL     1       3.864   2.024  21.128  0.00  0.00    +0.000 OA
ATOM     11  N   UNL     1       2.980   3.957  20.213  0.00  0.00    +0.000 N 
ATOM     12  C   UNL     1       1.739   3.882  20.960  0.00  0.00    +0.000 C 
ATOM     13  H   UNL     1       5.853   2.471  19.830  0.00  0.00    +0.000 HD
ENDROOT
BRANCH   1  14
ATOM     14  C   UNL     1       5.307   6.845  17.084  0.00  0.00    +0.000 C 
BRANCH  14  15
ATOM     15  C   UNL     1       5.124   6.460  15.613  0.00  0.00    +0.000 C 
BRANCH  15  16
ATOM     16  O   UNL     1       6.234   5.678  15.172  0.00  0.00    +0.000 OA
BRANCH  16  18
ATOM     17  C   UNL     1       6.200   3.893  13.594  0.00  0.00    +0.000 C 
ATOM     18  C   UNL     1       5.872   4.306  15.013  0.00  0.00    +0.000 C 
ENDBRANCH  16  18
ENDBRANCH  15  16
ENDBRANCH  14  15
ENDBRANCH   1  14
BRANCH   2  19
ATOM     19  S   UNL     1       2.487   8.381  17.748  0.00  0.00    +0.000 S 
BRANCH  19  20
ATOM     20  C   UNL     1       1.548   9.003  19.188  0.00  0.00    +0.000 C 
BRANCH  20  21
ATOM     21  C   UNL     1       0.650  10.204  18.873  0.00  0.00    +0.000 C 
BRANCH  21  22
ATOM     22  C   UNL     1       1.327  11.521  19.196  0.00  0.00    +0.000 A 
ATOM     23  C   UNL     1       2.136  12.154  18.241  0.00  0.00    +0.000 A 
ATOM     24  C   UNL     1       2.754  13.373  18.533  0.00  0.00    +0.000 A 
ATOM     25  C   UNL     1       2.577  13.966  19.781  0.00  0.00    +0.000 A 
ATOM     26  C   UNL     1       1.783  13.341  20.740  0.00  0.00    +0.000 A 
ATOM     27  C   UNL     1       1.162  12.122  20.450  0.00  0.00    +0.000 A 
ENDBRANCH  21  22
ENDBRANCH  20  21
ENDBRANCH  19  20
ENDBRANCH   2  19
TORSDOF 8
ENDMDL
MODEL 9
REMARK VINA RESULT:      -7.0      0.821      1.490
REMARK  Name = 
REMARK  10 active torsions:
REMARK  status: ('A' for Active; 'I' for Inactive)
REMARK    1  A    between atoms: C_1  and  C_2
REMARK    2  A    between atoms: C_2  and  O_3
REMARK    3  A    between atoms: O_3  and  C_4
REMARK    4  A    between atoms: C_4  and  C_5
REMARK    5  A    between atoms: C_5  and  N_6
REMARK    6  A    between atoms: C_7  and  S_8
REMARK    7  A    between atoms: S_8  and  C_9
REMARK    8  A    between atoms: C_9  and  C_10
REMARK    9  A    between atoms: C_10  and  C_11
REMARK   10  A    between atoms: N_25  and  C_26
REMARK                            x       y       z     vdW  Elec       q    Type
REMARK                         _______ _______ _______ _____ _____    ______ ____
ROOT
ATOM      1  N   UNL     1       4.304   6.330  17.910  0.00  0.00    +0.000 N 
ATOM      2  C   UNL     1       3.099   6.926  18.232  0.00  0.00    +0.000 A 
ATOM      3  N   UNL     1       2.381   6.175  19.043  0.00  0.00    +0.000 NA
ATOM      4  C   UNL     1       3.168   5.102  19.303  0.00  0.00    +0.000 A 
ATOM      5  C   UNL     1       4.366   5.173  18.651  0.00  0.00    +0.000 A 
ATOM      6  C   UNL     1       5.378   4.187  18.814  0.00  0.00    +0.000 A 
ATOM      7  O   UNL     1       6.512   4.248  18.353  0.00  0.00    +0.000 OA
ATOM      8  N   UNL     1       4.965   3.129  19.586  0.00  0.00    +0.000 N 
ATOM      9  C   UNL     1       3.791   3.034  20.309  0.00  0.00    +0.000 A 
ATOM     10  O   UNL     1       3.632   2.068  21.053  0.00  0.00    +0.000 OA
ATOM     11  N   UNL     1       2.867   4.058  20.153  0.00  0.00    +0.000 N 
ATOM     12  C   UNL     1       1.628   4.057  20.907  0.00  0.00    +0.000 C 
ATOM     13  H   UNL     1       5.638   2.396  19.747  0.00  0.00    +0.000 HD
ENDROOT
BRANCH   1  14
ATOM     14  C   UNL     1       5.355   6.811  17.027  0.00  0.00    +0.000 C 
BRANCH  14  15
ATOM     15  C   UNL     1       5.232   6.307  15.586  0.00  0.00    +0.000 C 
BRANCH  15  16
ATOM     16  O   UNL     1       6.421   5.615  15.208  0.00  0.00    +0.000 OA
BRANCH  16  18
ATOM     17  C   UNL     1       6.127   3.917  13.562  0.00  0.00    +0.000 C 
ATOM     18  C   UNL     1       6.180   4.217  15.045  0.00  0.00    +0.000 C 
ENDBRANCH  16  18
ENDBRANCH  15  16
ENDBRANCH  14  15
ENDBRANCH   1  14
BRANCH   2  19
ATOM     19  S   UNL     1       2.642   8.518  17.715  0.00  0.00    +0.000 S 
BRANCH  19  20
ATOM     20  C   UNL     1       1.378   9.011  18.940  0.00  0.00    +0.000 C 
BRANCH  20  21
ATOM     21  C   UNL     1       0.233   9.843  18.352  0.00  0.00    +0.000 C 
BRANCH  21  22
ATOM     22  C   UNL     1      -0.348  10.808  19.366  0.00  0.00    +0.000 A 
ATOM     23  C   UNL     1       0.390  11.172  20.501  0.00  0.00    +0.000 A 
ATOM     24  C   UNL     1      -0.140  12.069  21.432  0.00  0.00    +0.000 A 
ATOM     25  C   UNL     1      -1.411  12.604  21.243  0.00  0.00    +0.000 A 
ATOM     26  C   UNL     1      -2.157  12.243  20.123  0.00  0.00    +0.000 A 
ATOM     27  C   UNL     1      -1.629  11.347  19.189  0.00  0.00    +0.000 A 
ENDBRANCH  21  22
ENDBRANCH  20  21
ENDBRANCH  19  20
ENDBRANCH   2  19
TORSDOF 8
ENDMDL
