MODEL 1
REMARK VINA RESULT:      -9.0      0.000      0.000
REMARK  Name = 
REMARK  6 active torsions:
REMARK  status: ('A' for Active; 'I' for Inactive)
REMARK    1  A    between atoms: C_1  and  C_2
REMARK    2  A    between atoms: C_3  and  O_4
REMARK    3  A    between atoms: O_4  and  C_5
REMARK    4  A    between atoms: C_5  and  C_6
REMARK    5  A    between atoms: N_8  and  C_9
REMARK    6  A    between atoms: C_9  and  C_10
REMARK                            x       y       z     vdW  Elec       q    Type
REMARK                         _______ _______ _______ _____ _____    ______ ____
ROOT
ATOM      1  C   UNL     1       7.586   5.732  19.547  0.00  0.00    +0.000 C 
ATOM      2  C   UNL     1       6.585   5.700  18.429  0.00  0.00    +0.000 A 
ATOM      3  C   UNL     1       6.652   6.583  17.335  0.00  0.00    +0.000 A 
ATOM      4  C   UNL     1       5.643   6.551  16.361  0.00  0.00    +0.000 A 
ATOM      5  C   UNL     1       4.531   5.705  16.505  0.00  0.00    +0.000 A 
ATOM      6  C   UNL     1       4.447   4.845  17.595  0.00  0.00    +0.000 A 
ATOM      7  C   UNL     1       3.332   3.962  17.855  0.00  0.00    +0.000 A 
ATOM      8  C   UNL     1       3.472   2.880  18.631  0.00  0.00    +0.000 A 
ATOM      9  C   UNL     1       4.592   2.782  19.579  0.00  0.00    +0.000 A 
ATOM     10  O   UNL     1       4.610   1.938  20.461  0.00  0.00    +0.000 OA
ATOM     11  O   UNL     1       5.518   3.824  19.525  0.00  0.00    +0.000 OA
ATOM     12  C   UNL     1       5.506   4.802  18.500  0.00  0.00    +0.000 A 
ATOM     13  C   UNL     1       2.171   2.178  18.813  0.00  0.00    +0.000 C 
ATOM     14  C   UNL     1       1.272   3.406  18.808  0.00  0.00    +0.000 C 
ATOM     15  C   UNL     1       1.878   4.295  17.702  0.00  0.00    +0.000 C 
ENDROOT
BRANCH   3  16
ATOM     16  O   UNL     1       7.732   7.430  17.320  0.00  0.00    +0.000 OA
BRANCH  16  17
ATOM     17  C   UNL     1       7.509   8.835  17.395  0.00  0.00    +0.000 C 
BRANCH  17  18
ATOM     18  C   UNL     1       8.483   9.488  18.357  0.00  0.00    +0.000 C 
ATOM     19  O   UNL     1       9.095   8.845  19.211  0.00  0.00    +0.000 OA
ATOM     20  N   UNL     1       8.669  10.833  18.141  0.00  0.00    +0.000 N 
ATOM     21  H   UNL     1       7.982  11.299  17.559  0.00  0.00    +0.000 HD
BRANCH  20  22
ATOM     22  C   UNL     1       9.518  11.636  18.994  0.00  0.00    +0.000 C 
BRANCH  22  23
ATOM     23  C   UNL     1      10.151  12.763  18.228  0.00  0.00    +0.000 A 
ATOM     24  C   UNL     1      11.261  12.551  17.406  0.00  0.00    +0.000 A 
ATOM     25  C   UNL     1      11.846  13.625  16.742  0.00  0.00    +0.000 A 
ATOM     26  C   UNL     1      11.301  14.884  16.926  0.00  0.00    +0.000 A 
ATOM     27  N   UNL     1      10.234  15.130  17.715  0.00  0.00    +0.000 NA
ATOM     28  C   UNL     1       9.690  14.067  18.350  0.00  0.00    +0.000 A 
ENDBRANCH  22  23
ENDBRANCH  20  22
ENDBRANCH  17  18
ENDBRANCH  16  17
ENDBRANCH   3  16
TORSDOF 5
ENDMDL
MODEL 2
REMARK VINA RESULT:      -8.8      5.170      7.377
REMARK  Name = 
REMARK  6 active torsions:
REMARK  status: ('A' for Active; 'I' for Inactive)
REMARK    1  A    between atoms: C_1  and  C_2
REMARK    2  A    between atoms: C_3  and  O_4
REMARK    3  A    between atoms: O_4  and  C_5
REMARK    4  A    between atoms: C_5  and  C_6
REMARK    5  A    between atoms: N_8  and  C_9
REMARK    6  A    between atoms: C_9  and  C_10
REMARK                            x       y       z     vdW  Elec       q    Type
REMARK                         _______ _______ _______ _____ _____    ______ ____
ROOT
ATOM      1  C   UNL     1       4.555   2.119  20.335  0.00  0.00    +0.000 C 
ATOM      2  C   UNL     1       3.939   2.760  19.125  0.00  0.00    +0.000 A 
ATOM      3  C   UNL     1       2.581   2.596  18.797  0.00  0.00    +0.000 A 
ATOM      4  C   UNL     1       2.085   3.160  17.612  0.00  0.00    +0.000 A 
ATOM      5  C   UNL     1       2.942   3.817  16.714  0.00  0.00    +0.000 A 
ATOM      6  C   UNL     1       4.291   3.963  17.022  0.00  0.00    +0.000 A 
ATOM      7  C   UNL     1       5.264   4.589  16.153  0.00  0.00    +0.000 A 
ATOM      8  C   UNL     1       6.407   5.087  16.640  0.00  0.00    +0.000 A 
ATOM      9  C   UNL     1       6.916   4.646  17.946  0.00  0.00    +0.000 A 
ATOM     10  O   UNL     1       8.059   4.888  18.301  0.00  0.00    +0.000 OA
ATOM     11  O   UNL     1       6.084   3.778  18.654  0.00  0.00    +0.000 OA
ATOM     12  C   UNL     1       4.755   3.498  18.251  0.00  0.00    +0.000 A 
ATOM     13  C   UNL     1       7.275   5.606  15.546  0.00  0.00    +0.000 C 
ATOM     14  C   UNL     1       6.896   4.585  14.482  0.00  0.00    +0.000 C 
ATOM     15  C   UNL     1       5.374   4.413  14.668  0.00  0.00    +0.000 C 
ENDROOT
BRANCH   3  16
ATOM     16  O   UNL     1       1.836   1.870  19.694  0.00  0.00    +0.000 OA
BRANCH  16  17
ATOM     17  C   UNL     1       0.907   2.551  20.531  0.00  0.00    +0.000 C 
BRANCH  17  18
ATOM     18  C   UNL     1       1.548   3.765  21.176  0.00  0.00    +0.000 C 
ATOM     19  O   UNL     1       2.232   3.683  22.197  0.00  0.00    +0.000 OA
ATOM     20  N   UNL     1       1.356   4.937  20.483  0.00  0.00    +0.000 N 
ATOM     21  H   UNL     1       0.625   4.935  19.780  0.00  0.00    +0.000 HD
BRANCH  20  22
ATOM     22  C   UNL     1       1.846   6.207  20.974  0.00  0.00    +0.000 C 
BRANCH  22  23
ATOM     23  C   UNL     1       1.951   7.216  19.865  0.00  0.00    +0.000 A 
ATOM     24  C   UNL     1       2.692   6.952  18.709  0.00  0.00    +0.000 A 
ATOM     25  C   UNL     1       2.801   7.924  17.720  0.00  0.00    +0.000 A 
ATOM     26  C   UNL     1       2.167   9.137  17.921  0.00  0.00    +0.000 A 
ATOM     27  N   UNL     1       1.447   9.432  19.025  0.00  0.00    +0.000 NA
ATOM     28  C   UNL     1       1.362   8.468  19.970  0.00  0.00    +0.000 A 
ENDBRANCH  22  23
ENDBRANCH  20  22
ENDBRANCH  17  18
ENDBRANCH  16  17
ENDBRANCH   3  16
TORSDOF 5
ENDMDL
MODEL 3
REMARK VINA RESULT:      -8.7      0.765      1.201
REMARK  Name = 
REMARK  6 active torsions:
REMARK  status: ('A' for Active; 'I' for Inactive)
REMARK    1  A    between atoms: C_1  and  C_2
REMARK    2  A    between atoms: C_3  and  O_4
REMARK    3  A    between atoms: O_4  and  C_5
REMARK    4  A    between atoms: C_5  and  C_6
REMARK    5  A    between atoms: N_8  and  C_9
REMARK    6  A    between atoms: C_9  and  C_10
REMARK                            x       y       z     vdW  Elec       q    Type
REMARK                         _______ _______ _______ _____ _____    ______ ____
ROOT
ATOM      1  C   UNL     1       7.726   5.693  19.634  0.00  0.00    +0.000 C 
ATOM      2  C   UNL     1       6.700   5.783  18.541  0.00  0.00    +0.000 A 
ATOM      3  C   UNL     1       6.752   6.773  17.543  0.00  0.00    +0.000 A 
ATOM      4  C   UNL     1       5.722   6.849  16.593  0.00  0.00    +0.000 A 
ATOM      5  C   UNL     1       4.605   6.000  16.675  0.00  0.00    +0.000 A 
ATOM      6  C   UNL     1       4.537   5.034  17.673  0.00  0.00    +0.000 A 
ATOM      7  C   UNL     1       3.420   4.136  17.866  0.00  0.00    +0.000 A 
ATOM      8  C   UNL     1       3.567   2.979  18.524  0.00  0.00    +0.000 A 
ATOM      9  C   UNL     1       4.706   2.777  19.431  0.00  0.00    +0.000 A 
ATOM     10  O   UNL     1       4.735   1.846  20.222  0.00  0.00    +0.000 OA
ATOM     11  O   UNL     1       5.640   3.812  19.464  0.00  0.00    +0.000 OA
ATOM     12  C   UNL     1       5.615   4.890  18.545  0.00  0.00    +0.000 A 
ATOM     13  C   UNL     1       2.263   2.271  18.662  0.00  0.00    +0.000 C 
ATOM     14  C   UNL     1       1.376   3.500  18.803  0.00  0.00    +0.000 C 
ATOM     15  C   UNL     1       1.966   4.494  17.780  0.00  0.00    +0.000 C 
ENDROOT
BRANCH   3  16
ATOM     16  O   UNL     1       7.840   7.610  17.590  0.00  0.00    +0.000 OA
BRANCH  16  17
ATOM     17  C   UNL     1       7.628   9.018  17.570  0.00  0.00    +0.000 C 
BRANCH  17  18
ATOM     18  C   UNL     1       8.703   9.739  18.362  0.00  0.00    +0.000 C 
ATOM     19  O   UNL     1       9.166   9.283  19.408  0.00  0.00    +0.000 OA
ATOM     20  N   UNL     1       9.154  10.896  17.772  0.00  0.00    +0.000 N 
ATOM     21  H   UNL     1       8.579  11.283  17.032  0.00  0.00    +0.000 HD
BRANCH  20  22
ATOM     22  C   UNL     1      10.137  11.747  18.408  0.00  0.00    +0.000 C 
BRANCH  22  23
ATOM     23  C   UNL     1       9.726  13.191  18.350  0.00  0.00    +0.000 A 
ATOM     24  C   UNL     1       8.412  13.562  18.048  0.00  0.00    +0.000 A 
ATOM     25  C   UNL     1       8.076  14.910  17.965  0.00  0.00    +0.000 A 
ATOM     26  C   UNL     1       9.069  15.848  18.183  0.00  0.00    +0.000 A 
ATOM     27  N   UNL     1      10.349  15.530  18.471  0.00  0.00    +0.000 NA
ATOM     28  C   UNL     1      10.646  14.212  18.543  0.00  0.00    +0.000 A 
ENDBRANCH  22  23
ENDBRANCH  20  22
ENDBRANCH  17  18
ENDBRANCH  16  17
ENDBRANCH   3  16
TORSDOF 5
ENDMDL
MODEL 4
REMARK VINA RESULT:      -8.4      1.045      1.346
REMARK  Name = 
REMARK  6 active torsions:
REMARK  status: ('A' for Active; 'I' for Inactive)
REMARK    1  A    between atoms: C_1  and  C_2
REMARK    2  A    between atoms: C_3  and  O_4
REMARK    3  A    between atoms: O_4  and  C_5
REMARK    4  A    between atoms: C_5  and  C_6
REMARK    5  A    between atoms: N_8  and  C_9
REMARK    6  A    between atoms: C_9  and  C_10
REMARK                            x       y       z     vdW  Elec       q    Type
REMARK                         _______ _______ _______ _____ _____    ______ ____
ROOT
ATOM      1  C   UNL     1       7.806   5.772  19.582  0.00  0.00    +0.000 C 
ATOM      2  C   UNL     1       6.761   5.931  18.515  0.00  0.00    +0.000 A 
ATOM      3  C   UNL     1       6.819   6.957  17.555  0.00  0.00    +0.000 A 
ATOM      4  C   UNL     1       5.773   7.096  16.630  0.00  0.00    +0.000 A 
ATOM      5  C   UNL     1       4.635   6.275  16.703  0.00  0.00    +0.000 A 
ATOM      6  C   UNL     1       4.562   5.273  17.665  0.00  0.00    +0.000 A 
ATOM      7  C   UNL     1       3.424   4.398  17.848  0.00  0.00    +0.000 A 
ATOM      8  C   UNL     1       3.553   3.213  18.458  0.00  0.00    +0.000 A 
ATOM      9  C   UNL     1       4.704   2.947  19.332  0.00  0.00    +0.000 A 
ATOM     10  O   UNL     1       4.724   1.986  20.086  0.00  0.00    +0.000 OA
ATOM     11  O   UNL     1       5.667   3.955  19.384  0.00  0.00    +0.000 OA
ATOM     12  C   UNL     1       5.652   5.068  18.508  0.00  0.00    +0.000 A 
ATOM     13  C   UNL     1       2.234   2.535  18.597  0.00  0.00    +0.000 C 
ATOM     14  C   UNL     1       1.383   3.781  18.803  0.00  0.00    +0.000 C 
ATOM     15  C   UNL     1       1.979   4.797  17.806  0.00  0.00    +0.000 C 
ENDROOT
BRANCH   3  16
ATOM     16  O   UNL     1       7.930   7.763  17.610  0.00  0.00    +0.000 OA
BRANCH  16  17
ATOM     17  C   UNL     1       7.756   9.175  17.657  0.00  0.00    +0.000 C 
BRANCH  17  18
ATOM     18  C   UNL     1       8.853   9.830  18.476  0.00  0.00    +0.000 C 
ATOM     19  O   UNL     1       9.093   9.499  19.637  0.00  0.00    +0.000 OA
ATOM     20  N   UNL     1       9.589  10.763  17.784  0.00  0.00    +0.000 N 
ATOM     21  H   UNL     1       9.192  11.103  16.916  0.00  0.00    +0.000 HD
BRANCH  20  22
ATOM     22  C   UNL     1      10.641  11.530  18.416  0.00  0.00    +0.000 C 
BRANCH  22  23
ATOM     23  C   UNL     1      10.144  12.879  18.853  0.00  0.00    +0.000 A 
ATOM     24  C   UNL     1      10.640  13.499  20.004  0.00  0.00    +0.000 A 
ATOM     25  C   UNL     1      10.129  14.731  20.402  0.00  0.00    +0.000 A 
ATOM     26  C   UNL     1       9.130  15.303  19.635  0.00  0.00    +0.000 A 
ATOM     27  N   UNL     1       8.620  14.735  18.521  0.00  0.00    +0.000 NA
ATOM     28  C   UNL     1       9.135  13.536  18.162  0.00  0.00    +0.000 A 
ENDBRANCH  22  23
ENDBRANCH  20  22
ENDBRANCH  17  18
ENDBRANCH  16  17
ENDBRANCH   3  16
TORSDOF 5
ENDMDL
MODEL 5
REMARK VINA RESULT:      -8.4      1.405      1.773
REMARK  Name = 
REMARK  6 active torsions:
REMARK  status: ('A' for Active; 'I' for Inactive)
REMARK    1  A    between atoms: C_1  and  C_2
REMARK    2  A    between atoms: C_3  and  O_4
REMARK    3  A    between atoms: O_4  and  C_5
REMARK    4  A    between atoms: C_5  and  C_6
REMARK    5  A    between atoms: N_8  and  C_9
REMARK    6  A    between atoms: C_9  and  C_10
REMARK                            x       y       z     vdW  Elec       q    Type
REMARK                         _______ _______ _______ _____ _____    ______ ____
ROOT
ATOM      1  C   UNL     1       7.101   4.528  17.561  0.00  0.00    +0.000 C 
ATOM      2  C   UNL     1       5.765   5.214  17.585  0.00  0.00    +0.000 A 
ATOM      3  C   UNL     1       5.613   6.571  17.246  0.00  0.00    +0.000 A 
ATOM      4  C   UNL     1       4.350   7.172  17.361  0.00  0.00    +0.000 A 
ATOM      5  C   UNL     1       3.258   6.458  17.882  0.00  0.00    +0.000 A 
ATOM      6  C   UNL     1       3.408   5.122  18.240  0.00  0.00    +0.000 A 
ATOM      7  C   UNL     1       2.361   4.308  18.817  0.00  0.00    +0.000 A 
ATOM      8  C   UNL     1       2.402   2.972  18.743  0.00  0.00    +0.000 A 
ATOM      9  C   UNL     1       3.672   2.279  18.482  0.00  0.00    +0.000 A 
ATOM     10  O   UNL     1       3.789   1.075  18.653  0.00  0.00    +0.000 OA
ATOM     11  O   UNL     1       4.766   3.104  18.224  0.00  0.00    +0.000 OA
ATOM     12  C   UNL     1       4.636   4.500  18.019  0.00  0.00    +0.000 A 
ATOM     13  C   UNL     1       1.260   2.358  19.476  0.00  0.00    +0.000 C 
ATOM     14  C   UNL     1       1.159   3.386  20.595  0.00  0.00    +0.000 C 
ATOM     15  C   UNL     1       1.387   4.731  19.875  0.00  0.00    +0.000 C 
ENDROOT
BRANCH   3  16
ATOM     16  O   UNL     1       6.752   7.212  16.824  0.00  0.00    +0.000 OA
BRANCH  16  17
ATOM     17  C   UNL     1       6.971   8.562  17.220  0.00  0.00    +0.000 C 
BRANCH  17  18
ATOM     18  C   UNL     1       8.119   8.658  18.208  0.00  0.00    +0.000 C 
ATOM     19  O   UNL     1       8.635   7.660  18.714  0.00  0.00    +0.000 OA
ATOM     20  N   UNL     1       8.569   9.938  18.424  0.00  0.00    +0.000 N 
ATOM     21  H   UNL     1       7.961  10.691  18.123  0.00  0.00    +0.000 HD
BRANCH  20  22
ATOM     22  C   UNL     1       9.620  10.231  19.374  0.00  0.00    +0.000 C 
BRANCH  22  23
ATOM     23  C   UNL     1      10.242  11.572  19.104  0.00  0.00    +0.000 A 
ATOM     24  C   UNL     1      10.068  12.645  19.983  0.00  0.00    +0.000 A 
ATOM     25  C   UNL     1      10.625  13.884  19.681  0.00  0.00    +0.000 A 
ATOM     26  C   UNL     1      11.337  14.013  18.502  0.00  0.00    +0.000 A 
ATOM     27  N   UNL     1      11.523  13.003  17.625  0.00  0.00    +0.000 NA
ATOM     28  C   UNL     1      10.967  11.812  17.945  0.00  0.00    +0.000 A 
ENDBRANCH  22  23
ENDBRANCH  20  22
ENDBRANCH  17  18
ENDBRANCH  16  17
ENDBRANCH   3  16
TORSDOF 5
ENDMDL
MODEL 6
REMARK VINA RESULT:      -8.2      1.829      2.548
REMARK  Name = 
REMARK  6 active torsions:
REMARK  status: ('A' for Active; 'I' for Inactive)
REMARK    1  A    between atoms: C_1  and  C_2
REMARK    2  A    between atoms: C_3  and  O_4
REMARK    3  A    between atoms: O_4  and  C_5
REMARK    4  A    between atoms: C_5  and  C_6
REMARK    5  A    between atoms: N_8  and  C_9
REMARK    6  A    between atoms: C_9  and  C_10
REMARK                            x       y       z     vdW  Elec       q    Type
REMARK                         _______ _______ _______ _____ _____    ______ ____
ROOT
ATOM      1  C   UNL     1       5.700   4.304  16.072  0.00  0.00    +0.000 C 
ATOM      2  C   UNL     1       4.762   5.209  16.819  0.00  0.00    +0.000 A 
ATOM      3  C   UNL     1       4.938   6.604  16.857  0.00  0.00    +0.000 A 
ATOM      4  C   UNL     1       4.070   7.386  17.634  0.00  0.00    +0.000 A 
ATOM      5  C   UNL     1       3.080   6.787  18.431  0.00  0.00    +0.000 A 
ATOM      6  C   UNL     1       2.916   5.406  18.414  0.00  0.00    +0.000 A 
ATOM      7  C   UNL     1       1.954   4.688  19.221  0.00  0.00    +0.000 A 
ATOM      8  C   UNL     1       1.536   3.464  18.875  0.00  0.00    +0.000 A 
ATOM      9  C   UNL     1       2.327   2.640  17.949  0.00  0.00    +0.000 A 
ATOM     10  O   UNL     1       2.107   1.447  17.809  0.00  0.00    +0.000 OA
ATOM     11  O   UNL     1       3.450   3.260  17.402  0.00  0.00    +0.000 OA
ATOM     12  C   UNL     1       3.708   4.645  17.556  0.00  0.00    +0.000 A 
ATOM     13  C   UNL     1       0.612   2.902  19.900  0.00  0.00    +0.000 C 
ATOM     14  C   UNL     1       1.265   3.524  21.127  0.00  0.00    +0.000 C 
ATOM     15  C   UNL     1       1.629   4.950  20.662  0.00  0.00    +0.000 C 
ENDROOT
BRANCH   3  16
ATOM     16  O   UNL     1       5.981   7.094  16.111  0.00  0.00    +0.000 OA
BRANCH  16  17
ATOM     17  C   UNL     1       7.306   6.669  16.415  0.00  0.00    +0.000 C 
BRANCH  17  18
ATOM     18  C   UNL     1       7.776   7.259  17.731  0.00  0.00    +0.000 C 
ATOM     19  O   UNL     1       7.823   6.597  18.769  0.00  0.00    +0.000 OA
ATOM     20  N   UNL     1       8.207   8.562  17.641  0.00  0.00    +0.000 N 
ATOM     21  H   UNL     1       7.944   9.071  16.804  0.00  0.00    +0.000 HD
BRANCH  20  22
ATOM     22  C   UNL     1       8.639   9.308  18.802  0.00  0.00    +0.000 C 
BRANCH  22  23
ATOM     23  C   UNL     1       9.160  10.664  18.416  0.00  0.00    +0.000 A 
ATOM     24  C   UNL     1      10.459  11.065  18.743  0.00  0.00    +0.000 A 
ATOM     25  C   UNL     1      10.895  12.342  18.405  0.00  0.00    +0.000 A 
ATOM     26  C   UNL     1      10.013  13.184  17.751  0.00  0.00    +0.000 A 
ATOM     27  N   UNL     1       8.750  12.836  17.423  0.00  0.00    +0.000 NA
ATOM     28  C   UNL     1       8.354  11.589  17.768  0.00  0.00    +0.000 A 
ENDBRANCH  22  23
ENDBRANCH  20  22
ENDBRANCH  17  18
ENDBRANCH  16  17
ENDBRANCH   3  16
TORSDOF 5
ENDMDL
MODEL 7
REMARK VINA RESULT:      -8.2      1.383      1.510
REMARK  Name = 
REMARK  6 active torsions:
REMARK  status: ('A' for Active; 'I' for Inactive)
REMARK    1  A    between atoms: C_1  and  C_2
REMARK    2  A    between atoms: C_3  and  O_4
REMARK    3  A    between atoms: O_4  and  C_5
REMARK    4  A    between atoms: C_5  and  C_6
REMARK    5  A    between atoms: N_8  and  C_9
REMARK    6  A    between atoms: C_9  and  C_10
REMARK                            x       y       z     vdW  Elec       q    Type
REMARK                         _______ _______ _______ _____ _____    ______ ____
ROOT
ATOM      1  C   UNL     1       7.696   5.234  18.373  0.00  0.00    +0.000 C 
ATOM      2  C   UNL     1       6.272   5.637  18.117  0.00  0.00    +0.000 A 
ATOM      3  C   UNL     1       5.939   6.784  17.374  0.00  0.00    +0.000 A 
ATOM      4  C   UNL     1       4.590   7.146  17.234  0.00  0.00    +0.000 A 
ATOM      5  C   UNL     1       3.580   6.424  17.890  0.00  0.00    +0.000 A 
ATOM      6  C   UNL     1       3.905   5.302  18.645  0.00  0.00    +0.000 A 
ATOM      7  C   UNL     1       2.948   4.511  19.388  0.00  0.00    +0.000 A 
ATOM      8  C   UNL     1       3.213   3.244  19.727  0.00  0.00    +0.000 A 
ATOM      9  C   UNL     1       4.598   2.753  19.757  0.00  0.00    +0.000 A 
ATOM     10  O   UNL     1       4.889   1.695  20.292  0.00  0.00    +0.000 OA
ATOM     11  O   UNL     1       5.566   3.656  19.316  0.00  0.00    +0.000 OA
ATOM     12  C   UNL     1       5.234   4.883  18.689  0.00  0.00    +0.000 A 
ATOM     13  C   UNL     1       2.113   2.668  20.552  0.00  0.00    +0.000 C 
ATOM     14  C   UNL     1       1.730   3.939  21.298  0.00  0.00    +0.000 C 
ATOM     15  C   UNL     1       1.812   5.035  20.214  0.00  0.00    +0.000 C 
ENDROOT
BRANCH   3  16
ATOM     16  O   UNL     1       6.998   7.474  16.836  0.00  0.00    +0.000 OA
BRANCH  16  17
ATOM     17  C   UNL     1       8.145   7.715  17.644  0.00  0.00    +0.000 C 
BRANCH  17  18
ATOM     18  C   UNL     1       8.170   9.150  18.135  0.00  0.00    +0.000 C 
ATOM     19  O   UNL     1       7.446  10.022  17.654  0.00  0.00    +0.000 OA
ATOM     20  N   UNL     1       9.013   9.365  19.200  0.00  0.00    +0.000 N 
ATOM     21  H   UNL     1       9.701   8.644  19.388  0.00  0.00    +0.000 HD
BRANCH  20  22
ATOM     22  C   UNL     1       9.210  10.681  19.768  0.00  0.00    +0.000 C 
BRANCH  22  23
ATOM     23  C   UNL     1      10.022  11.553  18.853  0.00  0.00    +0.000 A 
ATOM     24  C   UNL     1      11.400  11.366  18.702  0.00  0.00    +0.000 A 
ATOM     25  C   UNL     1      12.127  12.217  17.876  0.00  0.00    +0.000 A 
ATOM     26  C   UNL     1      11.452  13.236  17.228  0.00  0.00    +0.000 A 
ATOM     27  N   UNL     1      10.125  13.452  17.351  0.00  0.00    +0.000 NA
ATOM     28  C   UNL     1       9.445  12.610  18.163  0.00  0.00    +0.000 A 
ENDBRANCH  22  23
ENDBRANCH  20  22
ENDBRANCH  17  18
ENDBRANCH  16  17
ENDBRANCH   3  16
TORSDOF 5
ENDMDL
MODEL 8
REMARK VINA RESULT:      -8.1      6.467      9.039
REMARK  Name = 
REMARK  6 active torsions:
REMARK  status: ('A' for Active; 'I' for Inactive)
REMARK    1  A    between atoms: C_1  and  C_2
REMARK    2  A    between atoms: C_3  and  O_4
REMARK    3  A    between atoms: O_4  and  C_5
REMARK    4  A    between atoms: C_5  and  C_6
REMARK    5  A    between atoms: N_8  and  C_9
REMARK    6  A    between atoms: C_9  and  C_10
REMARK                            x       y       z     vdW  Elec       q    Type
REMARK                         _______ _______ _______ _____ _____    ______ ____
ROOT
ATOM      1  C   UNL     1       1.274   9.280  17.981  0.00  0.00    +0.000 C 
ATOM      2  C   UNL     1       1.193   9.260  19.481  0.00  0.00    +0.000 A 
ATOM      3  C   UNL     1       1.666   8.176  20.243  0.00  0.00    +0.000 A 
ATOM      4  C   UNL     1       1.493   8.185  21.636  0.00  0.00    +0.000 A 
ATOM      5  C   UNL     1       0.787   9.224  22.265  0.00  0.00    +0.000 A 
ATOM      6  C   UNL     1       0.298  10.288  21.514  0.00  0.00    +0.000 A 
ATOM      7  C   UNL     1      -0.470  11.387  22.057  0.00  0.00    +0.000 A 
ATOM      8  C   UNL     1      -0.543  12.562  21.419  0.00  0.00    +0.000 A 
ATOM      9  C   UNL     1      -0.236  12.652  19.985  0.00  0.00    +0.000 A 
ATOM     10  O   UNL     1      -0.529  13.640  19.330  0.00  0.00    +0.000 OA
ATOM     11  O   UNL     1       0.223  11.475  19.393  0.00  0.00    +0.000 OA
ATOM     12  C   UNL     1       0.570  10.327  20.147  0.00  0.00    +0.000 A 
ATOM     13  C   UNL     1      -1.453  13.503  22.132  0.00  0.00    +0.000 C 
ATOM     14  C   UNL     1      -2.453  12.475  22.642  0.00  0.00    +0.000 C 
ATOM     15  C   UNL     1      -1.566  11.288  23.075  0.00  0.00    +0.000 C 
ENDROOT
BRANCH   3  16
ATOM     16  O   UNL     1       2.270   7.167  19.534  0.00  0.00    +0.000 OA
BRANCH  16  17
ATOM     17  C   UNL     1       2.043   5.817  19.924  0.00  0.00    +0.000 C 
BRANCH  17  18
ATOM     18  C   UNL     1       3.304   4.988  19.770  0.00  0.00    +0.000 C 
ATOM     19  O   UNL     1       3.356   3.803  20.103  0.00  0.00    +0.000 OA
ATOM     20  N   UNL     1       4.344   5.653  19.166  0.00  0.00    +0.000 N 
ATOM     21  H   UNL     1       4.269   6.663  19.115  0.00  0.00    +0.000 HD
BRANCH  20  22
ATOM     22  C   UNL     1       5.642   5.042  18.984  0.00  0.00    +0.000 C 
BRANCH  22  23
ATOM     23  C   UNL     1       6.011   4.968  17.529  0.00  0.00    +0.000 A 
ATOM     24  C   UNL     1       5.341   4.111  16.651  0.00  0.00    +0.000 A 
ATOM     25  C   UNL     1       5.735   4.039  15.319  0.00  0.00    +0.000 A 
ATOM     26  C   UNL     1       6.795   4.827  14.905  0.00  0.00    +0.000 A 
ATOM     27  N   UNL     1       7.471   5.663  15.723  0.00  0.00    +0.000 NA
ATOM     28  C   UNL     1       7.066   5.708  17.013  0.00  0.00    +0.000 A 
ENDBRANCH  22  23
ENDBRANCH  20  22
ENDBRANCH  17  18
ENDBRANCH  16  17
ENDBRANCH   3  16
TORSDOF 5
ENDMDL
MODEL 9
REMARK VINA RESULT:      -8.1      5.284      7.460
REMARK  Name = 
REMARK  6 active torsions:
REMARK  status: ('A' for Active; 'I' for Inactive)
REMARK    1  A    between atoms: C_1  and  C_2
REMARK    2  A    between atoms: C_3  and  O_4
REMARK    3  A    between atoms: O_4  and  C_5
REMARK    4  A    between atoms: C_5  and  C_6
REMARK    5  A    between atoms: N_8  and  C_9
REMARK    6  A    between atoms: C_9  and  C_10
REMARK                            x       y       z     vdW  Elec       q    Type
REMARK                         _______ _______ _______ _____ _____    ______ ____
ROOT
ATOM      1  C   UNL     1       7.689   5.157  18.031  0.00  0.00    +0.000 C 
ATOM      2  C   UNL     1       6.527   4.741  17.176  0.00  0.00    +0.000 A 
ATOM      3  C   UNL     1       5.308   4.307  17.728  0.00  0.00    +0.000 A 
ATOM      4  C   UNL     1       4.286   3.861  16.875  0.00  0.00    +0.000 A 
ATOM      5  C   UNL     1       4.495   3.770  15.489  0.00  0.00    +0.000 A 
ATOM      6  C   UNL     1       5.706   4.177  14.940  0.00  0.00    +0.000 A 
ATOM      7  C   UNL     1       6.035   4.092  13.534  0.00  0.00    +0.000 A 
ATOM      8  C   UNL     1       6.990   4.863  12.999  0.00  0.00    +0.000 A 
ATOM      9  C   UNL     1       8.014   5.481  13.853  0.00  0.00    +0.000 A 
ATOM     10  O   UNL     1       9.026   5.976  13.380  0.00  0.00    +0.000 OA
ATOM     11  O   UNL     1       7.849   5.291  15.224  0.00  0.00    +0.000 OA
ATOM     12  C   UNL     1       6.676   4.723  15.779  0.00  0.00    +0.000 A 
ATOM     13  C   UNL     1       7.199   4.537  11.560  0.00  0.00    +0.000 C 
ATOM     14  C   UNL     1       6.925   3.042  11.646  0.00  0.00    +0.000 C 
ATOM     15  C   UNL     1       5.729   2.947  12.616  0.00  0.00    +0.000 C 
ENDROOT
BRANCH   3  16
ATOM     16  O   UNL     1       5.223   4.354  19.097  0.00  0.00    +0.000 OA
BRANCH  16  17
ATOM     17  C   UNL     1       4.387   3.418  19.770  0.00  0.00    +0.000 C 
BRANCH  17  18
ATOM     18  C   UNL     1       3.177   4.106  20.372  0.00  0.00    +0.000 C 
ATOM     19  O   UNL     1       2.363   3.507  21.077  0.00  0.00    +0.000 OA
ATOM     20  N   UNL     1       3.114   5.456  20.120  0.00  0.00    +0.000 N 
ATOM     21  H   UNL     1       3.708   5.808  19.377  0.00  0.00    +0.000 HD
BRANCH  20  22
ATOM     22  C   UNL     1       2.003   6.268  20.566  0.00  0.00    +0.000 C 
BRANCH  22  23
ATOM     23  C   UNL     1       1.866   7.510  19.732  0.00  0.00    +0.000 A 
ATOM     24  C   UNL     1       2.318   7.552  18.409  0.00  0.00    +0.000 A 
ATOM     25  C   UNL     1       2.211   8.731  17.678  0.00  0.00    +0.000 A 
ATOM     26  C   UNL     1       1.658   9.837  18.297  0.00  0.00    +0.000 A 
ATOM     27  N   UNL     1       1.215   9.839  19.573  0.00  0.00    +0.000 NA
ATOM     28  C   UNL     1       1.335   8.679  20.259  0.00  0.00    +0.000 A 
ENDBRANCH  22  23
ENDBRANCH  20  22
ENDBRANCH  17  18
ENDBRANCH  16  17
ENDBRANCH   3  16
TORSDOF 5
ENDMDL
