MODEL 1
REMARK VINA RESULT:      -7.5      0.000      0.000
REMARK  Name = 
REMARK  8 active torsions:
REMARK  status: ('A' for Active; 'I' for Inactive)
REMARK    1  A    between atoms: C_1  and  C_2
REMARK    2  A    between atoms: C_2  and  C_3
REMARK    3  A    between atoms: C_2  and  C_4
REMARK    4  A    between atoms: C_2  and  C_5
REMARK    5  A    between atoms: C_8  and  O_9
REMARK    6  A    between atoms: O_9  and  C_10
REMARK    7  A    between atoms: C_13  and  C_14
REMARK    8  A    between atoms: N_15  and  N_16
REMARK                            x       y       z     vdW  Elec       q    Type
REMARK                         _______ _______ _______ _____ _____    ______ ____
ROOT
ATOM      1  C   UNL     1       4.066   5.564  18.049  0.00  0.00    +0.000 A 
ATOM      2  C   UNL     1       5.239   6.287  17.846  0.00  0.00    +0.000 A 
ATOM      3  C   UNL     1       6.118   5.978  16.817  0.00  0.00    +0.000 A 
ATOM      4  C   UNL     1       5.939   4.807  16.095  0.00  0.00    +0.000 A 
ATOM      5  C   UNL     1       4.836   3.989  16.353  0.00  0.00    +0.000 A 
ATOM      6  C   UNL     1       3.893   4.378  17.323  0.00  0.00    +0.000 A 
ENDROOT
BRANCH   4   7
ATOM      7  C   UNL     1       6.994   4.521  15.111  0.00  0.00    +0.000 C 
ATOM      8  N   UNL     1       6.899   4.250  13.845  0.00  0.00    +0.000 NA
BRANCH   8   9
ATOM      9  N   UNL     1       5.664   4.159  13.282  0.00  0.00    +0.000 N 
ATOM     10  C   UNL     1       5.407   3.275  12.266  0.00  0.00    +0.000 C 
ATOM     11  N   UNL     1       6.473   2.537  11.882  0.00  0.00    +0.000 N 
ATOM     12  O   UNL     1       4.310   3.173  11.743  0.00  0.00    +0.000 OA
ATOM     13  H   UNL     1       4.869   4.668  13.652  0.00  0.00    +0.000 HD
ATOM     14  H   UNL     1       7.204   2.477  12.576  0.00  0.00    +0.000 HD
ATOM     15  H   UNL     1       6.300   1.760  11.267  0.00  0.00    +0.000 HD
ENDBRANCH   8   9
ENDBRANCH   4   7
BRANCH   1  16
ATOM     16  O   UNL     1       3.118   5.870  19.003  0.00  0.00    +0.000 OA
BRANCH  16  20
ATOM     17  C   UNL     1       1.092   9.594  19.231  0.00  0.00    +0.000 A 
ATOM     18  C   UNL     1       1.236   8.735  20.330  0.00  0.00    +0.000 A 
ATOM     19  C   UNL     1       1.900   7.496  20.212  0.00  0.00    +0.000 A 
ATOM     20  C   UNL     1       2.436   7.076  18.992  0.00  0.00    +0.000 A 
ATOM     21  C   UNL     1       2.301   7.941  17.914  0.00  0.00    +0.000 A 
ATOM     22  C   UNL     1       1.640   9.162  18.024  0.00  0.00    +0.000 A 
BRANCH  17  24
ATOM     23  C   UNL     1       1.255  12.088  18.671  0.00  0.00    +0.000 C 
ATOM     24  C   UNL     1       0.393  10.959  19.259  0.00  0.00    +0.000 C 
ATOM     25  C   UNL     1       0.041  11.334  20.717  0.00  0.00    +0.000 C 
ATOM     26  C   UNL     1      -0.919  10.892  18.441  0.00  0.00    +0.000 C 
ENDBRANCH  17  24
ENDBRANCH  16  20
ENDBRANCH   1  16
TORSDOF 5
ENDMDL
MODEL 2
REMARK VINA RESULT:      -7.5      0.250      1.374
REMARK  Name = 
REMARK  8 active torsions:
REMARK  status: ('A' for Active; 'I' for Inactive)
REMARK    1  A    between atoms: C_1  and  C_2
REMARK    2  A    between atoms: C_2  and  C_3
REMARK    3  A    between atoms: C_2  and  C_4
REMARK    4  A    between atoms: C_2  and  C_5
REMARK    5  A    between atoms: C_8  and  O_9
REMARK    6  A    between atoms: O_9  and  C_10
REMARK    7  A    between atoms: C_13  and  C_14
REMARK    8  A    between atoms: N_15  and  N_16
REMARK                            x       y       z     vdW  Elec       q    Type
REMARK                         _______ _______ _______ _____ _____    ______ ____
ROOT
ATOM      1  C   UNL     1       4.056   5.418  18.270  0.00  0.00    +0.000 A 
ATOM      2  C   UNL     1       5.306   6.029  18.223  0.00  0.00    +0.000 A 
ATOM      3  C   UNL     1       6.204   5.776  17.195  0.00  0.00    +0.000 A 
ATOM      4  C   UNL     1       5.945   4.748  16.301  0.00  0.00    +0.000 A 
ATOM      5  C   UNL     1       4.751   4.027  16.391  0.00  0.00    +0.000 A 
ATOM      6  C   UNL     1       3.802   4.375  17.370  0.00  0.00    +0.000 A 
ENDROOT
BRANCH   4   7
ATOM      7  C   UNL     1       7.018   4.491  15.327  0.00  0.00    +0.000 C 
ATOM      8  N   UNL     1       6.945   4.255  14.053  0.00  0.00    +0.000 NA
BRANCH   8   9
ATOM      9  N   UNL     1       5.721   4.177  13.466  0.00  0.00    +0.000 N 
ATOM     10  C   UNL     1       5.497   3.363  12.386  0.00  0.00    +0.000 C 
ATOM     11  N   UNL     1       6.585   2.678  11.967  0.00  0.00    +0.000 N 
ATOM     12  O   UNL     1       4.410   3.275  11.840  0.00  0.00    +0.000 OA
ATOM     13  H   UNL     1       4.909   4.641  13.860  0.00  0.00    +0.000 HD
ATOM     14  H   UNL     1       7.309   2.585  12.666  0.00  0.00    +0.000 HD
ATOM     15  H   UNL     1       6.438   1.943  11.296  0.00  0.00    +0.000 HD
ENDBRANCH   8   9
ENDBRANCH   4   7
BRANCH   1  16
ATOM     16  O   UNL     1       3.093   5.688  19.221  0.00  0.00    +0.000 OA
BRANCH  16  20
ATOM     17  C   UNL     1       1.113   9.443  19.197  0.00  0.00    +0.000 A 
ATOM     18  C   UNL     1       1.694   8.879  18.052  0.00  0.00    +0.000 A 
ATOM     19  C   UNL     1       2.361   7.637  18.102  0.00  0.00    +0.000 A 
ATOM     20  C   UNL     1       2.470   6.922  19.298  0.00  0.00    +0.000 A 
ATOM     21  C   UNL     1       1.877   7.483  20.422  0.00  0.00    +0.000 A 
ATOM     22  C   UNL     1       1.224   8.712  20.378  0.00  0.00    +0.000 A 
BRANCH  17  24
ATOM     23  C   UNL     1      -0.113  11.154  20.656  0.00  0.00    +0.000 C 
ATOM     24  C   UNL     1       0.365  10.781  19.244  0.00  0.00    +0.000 C 
ATOM     25  C   UNL     1      -0.873  10.718  18.319  0.00  0.00    +0.000 C 
ATOM     26  C   UNL     1       1.291  11.916  18.743  0.00  0.00    +0.000 C 
ENDBRANCH  17  24
ENDBRANCH  16  20
ENDBRANCH   1  16
TORSDOF 5
ENDMDL
MODEL 3
REMARK VINA RESULT:      -7.4      0.397      1.065
REMARK  Name = 
REMARK  8 active torsions:
REMARK  status: ('A' for Active; 'I' for Inactive)
REMARK    1  A    between atoms: C_1  and  C_2
REMARK    2  A    between atoms: C_2  and  C_3
REMARK    3  A    between atoms: C_2  and  C_4
REMARK    4  A    between atoms: C_2  and  C_5
REMARK    5  A    between atoms: C_8  and  O_9
REMARK    6  A    between atoms: O_9  and  C_10
REMARK    7  A    between atoms: C_13  and  C_14
REMARK    8  A    between atoms: N_15  and  N_16
REMARK                            x       y       z     vdW  Elec       q    Type
REMARK                         _______ _______ _______ _____ _____    ______ ____
ROOT
ATOM      1  C   UNL     1       3.622   5.591  17.899  0.00  0.00    +0.000 A 
ATOM      2  C   UNL     1       4.627   6.474  17.512  0.00  0.00    +0.000 A 
ATOM      3  C   UNL     1       5.584   6.124  16.570  0.00  0.00    +0.000 A 
ATOM      4  C   UNL     1       5.674   4.806  16.146  0.00  0.00    +0.000 A 
ATOM      5  C   UNL     1       4.755   3.859  16.607  0.00  0.00    +0.000 A 
ATOM      6  C   UNL     1       3.721   4.260  17.474  0.00  0.00    +0.000 A 
ENDROOT
BRANCH   4   7
ATOM      7  C   UNL     1       6.797   4.524  15.239  0.00  0.00    +0.000 C 
ATOM      8  N   UNL     1       6.792   4.238  13.974  0.00  0.00    +0.000 NA
BRANCH   8   9
ATOM      9  N   UNL     1       5.600   4.122  13.329  0.00  0.00    +0.000 N 
ATOM     10  C   UNL     1       5.442   3.267  12.269  0.00  0.00    +0.000 C 
ATOM     11  N   UNL     1       6.557   2.582  11.930  0.00  0.00    +0.000 N 
ATOM     12  O   UNL     1       4.385   3.145  11.673  0.00  0.00    +0.000 OA
ATOM     13  H   UNL     1       4.764   4.589  13.664  0.00  0.00    +0.000 HD
ATOM     14  H   UNL     1       7.245   2.524  12.668  0.00  0.00    +0.000 HD
ATOM     15  H   UNL     1       6.453   1.822  11.279  0.00  0.00    +0.000 HD
ENDBRANCH   8   9
ENDBRANCH   4   7
BRANCH   1  16
ATOM     16  O   UNL     1       2.600   5.908  18.770  0.00  0.00    +0.000 OA
BRANCH  16  20
ATOM     17  C   UNL     1       1.225   9.910  19.104  0.00  0.00    +0.000 A 
ATOM     18  C   UNL     1       1.600   9.331  17.883  0.00  0.00    +0.000 A 
ATOM     19  C   UNL     1       2.070   8.003  17.813  0.00  0.00    +0.000 A 
ATOM     20  C   UNL     1       2.183   7.215  18.961  0.00  0.00    +0.000 A 
ATOM     21  C   UNL     1       1.794   7.793  20.163  0.00  0.00    +0.000 A 
ATOM     22  C   UNL     1       1.336   9.106  20.237  0.00  0.00    +0.000 A 
BRANCH  17  24
ATOM     23  C   UNL     1       1.619  12.401  18.659  0.00  0.00    +0.000 C 
ATOM     24  C   UNL     1       0.699  11.340  19.282  0.00  0.00    +0.000 C 
ATOM     25  C   UNL     1       0.552  11.657  20.789  0.00  0.00    +0.000 C 
ATOM     26  C   UNL     1      -0.693  11.471  18.617  0.00  0.00    +0.000 C 
ENDBRANCH  17  24
ENDBRANCH  16  20
ENDBRANCH   1  16
TORSDOF 5
ENDMDL
MODEL 4
REMARK VINA RESULT:      -7.4      1.767      2.218
REMARK  Name = 
REMARK  8 active torsions:
REMARK  status: ('A' for Active; 'I' for Inactive)
REMARK    1  A    between atoms: C_1  and  C_2
REMARK    2  A    between atoms: C_2  and  C_3
REMARK    3  A    between atoms: C_2  and  C_4
REMARK    4  A    between atoms: C_2  and  C_5
REMARK    5  A    between atoms: C_8  and  O_9
REMARK    6  A    between atoms: O_9  and  C_10
REMARK    7  A    between atoms: C_13  and  C_14
REMARK    8  A    between atoms: N_15  and  N_16
REMARK                            x       y       z     vdW  Elec       q    Type
REMARK                         _______ _______ _______ _____ _____    ______ ____
ROOT
ATOM      1  C   UNL     1       3.406   6.308  18.726  0.00  0.00    +0.000 A 
ATOM      2  C   UNL     1       4.137   6.901  17.701  0.00  0.00    +0.000 A 
ATOM      3  C   UNL     1       5.396   6.441  17.340  0.00  0.00    +0.000 A 
ATOM      4  C   UNL     1       6.034   5.502  18.138  0.00  0.00    +0.000 A 
ATOM      5  C   UNL     1       5.377   4.970  19.252  0.00  0.00    +0.000 A 
ATOM      6  C   UNL     1       4.056   5.366  19.534  0.00  0.00    +0.000 A 
ENDROOT
BRANCH   4   7
ATOM      7  C   UNL     1       7.408   5.174  17.729  0.00  0.00    +0.000 C 
ATOM      8  N   UNL     1       7.831   4.483  16.716  0.00  0.00    +0.000 NA
BRANCH   8   9
ATOM      9  N   UNL     1       6.922   3.906  15.886  0.00  0.00    +0.000 N 
ATOM     10  C   UNL     1       6.754   4.342  14.597  0.00  0.00    +0.000 C 
ATOM     11  N   UNL     1       7.548   5.380  14.249  0.00  0.00    +0.000 N 
ATOM     12  O   UNL     1       5.945   3.844  13.833  0.00  0.00    +0.000 OA
ATOM     13  H   UNL     1       6.404   3.076  16.155  0.00  0.00    +0.000 HD
ATOM     14  H   UNL     1       8.368   5.485  14.831  0.00  0.00    +0.000 HD
ATOM     15  H   UNL     1       7.590   5.624  13.274  0.00  0.00    +0.000 HD
ENDBRANCH   8   9
ENDBRANCH   4   7
BRANCH   1  16
ATOM     16  O   UNL     1       2.122   6.670  19.078  0.00  0.00    +0.000 OA
BRANCH  16  20
ATOM     17  C   UNL     1       1.014  10.735  19.596  0.00  0.00    +0.000 A 
ATOM     18  C   UNL     1       0.983   9.796  20.638  0.00  0.00    +0.000 A 
ATOM     19  C   UNL     1       1.341   8.449  20.423  0.00  0.00    +0.000 A 
ATOM     20  C   UNL     1       1.736   7.997  19.162  0.00  0.00    +0.000 A 
ATOM     21  C   UNL     1       1.778   8.939  18.141  0.00  0.00    +0.000 A 
ATOM     22  C   UNL     1       1.419  10.268  18.347  0.00  0.00    +0.000 A 
BRANCH  17  24
ATOM     23  C   UNL     1      -0.363  12.687  18.672  0.00  0.00    +0.000 C 
ATOM     24  C   UNL     1       0.649  12.219  19.729  0.00  0.00    +0.000 C 
ATOM     25  C   UNL     1       1.924  13.083  19.589  0.00  0.00    +0.000 C 
ATOM     26  C   UNL     1       0.031  12.482  21.124  0.00  0.00    +0.000 C 
ENDBRANCH  17  24
ENDBRANCH  16  20
ENDBRANCH   1  16
TORSDOF 5
ENDMDL
MODEL 5
REMARK VINA RESULT:      -7.4      1.744      2.456
REMARK  Name = 
REMARK  8 active torsions:
REMARK  status: ('A' for Active; 'I' for Inactive)
REMARK    1  A    between atoms: C_1  and  C_2
REMARK    2  A    between atoms: C_2  and  C_3
REMARK    3  A    between atoms: C_2  and  C_4
REMARK    4  A    between atoms: C_2  and  C_5
REMARK    5  A    between atoms: C_8  and  O_9
REMARK    6  A    between atoms: O_9  and  C_10
REMARK    7  A    between atoms: C_13  and  C_14
REMARK    8  A    between atoms: N_15  and  N_16
REMARK                            x       y       z     vdW  Elec       q    Type
REMARK                         _______ _______ _______ _____ _____    ______ ____
ROOT
ATOM      1  C   UNL     1       3.414   6.288  18.768  0.00  0.00    +0.000 A 
ATOM      2  C   UNL     1       4.144   6.870  17.735  0.00  0.00    +0.000 A 
ATOM      3  C   UNL     1       5.400   6.400  17.374  0.00  0.00    +0.000 A 
ATOM      4  C   UNL     1       6.036   5.465  18.177  0.00  0.00    +0.000 A 
ATOM      5  C   UNL     1       5.380   4.944  19.296  0.00  0.00    +0.000 A 
ATOM      6  C   UNL     1       4.063   5.349  19.581  0.00  0.00    +0.000 A 
ENDROOT
BRANCH   4   7
ATOM      7  C   UNL     1       7.407   5.127  17.765  0.00  0.00    +0.000 C 
ATOM      8  N   UNL     1       7.824   4.444  16.744  0.00  0.00    +0.000 NA
BRANCH   8   9
ATOM      9  N   UNL     1       6.909   3.889  15.904  0.00  0.00    +0.000 N 
ATOM     10  C   UNL     1       6.743   4.350  14.624  0.00  0.00    +0.000 C 
ATOM     11  N   UNL     1       7.544   5.388  14.294  0.00  0.00    +0.000 N 
ATOM     12  O   UNL     1       5.930   3.872  13.851  0.00  0.00    +0.000 OA
ATOM     13  H   UNL     1       6.386   3.059  16.159  0.00  0.00    +0.000 HD
ATOM     14  H   UNL     1       8.365   5.477  14.876  0.00  0.00    +0.000 HD
ATOM     15  H   UNL     1       7.587   5.649  13.323  0.00  0.00    +0.000 HD
ENDBRANCH   8   9
ENDBRANCH   4   7
BRANCH   1  16
ATOM     16  O   UNL     1       2.133   6.659  19.121  0.00  0.00    +0.000 OA
BRANCH  16  20
ATOM     17  C   UNL     1       0.942  10.731  19.268  0.00  0.00    +0.000 A 
ATOM     18  C   UNL     1       1.387  10.107  18.093  0.00  0.00    +0.000 A 
ATOM     19  C   UNL     1       1.792   8.756  18.087  0.00  0.00    +0.000 A 
ATOM     20  C   UNL     1       1.770   7.989  19.253  0.00  0.00    +0.000 A 
ATOM     21  C   UNL     1       1.313   8.612  20.408  0.00  0.00    +0.000 A 
ATOM     22  C   UNL     1       0.918   9.947  20.420  0.00  0.00    +0.000 A 
BRANCH  17  24
ATOM     23  C   UNL     1       0.168  12.616  20.820  0.00  0.00    +0.000 C 
ATOM     24  C   UNL     1       0.476  12.188  19.376  0.00  0.00    +0.000 C 
ATOM     25  C   UNL     1      -0.804  12.390  18.533  0.00  0.00    +0.000 C 
ATOM     26  C   UNL     1       1.575  13.130  18.829  0.00  0.00    +0.000 C 
ENDBRANCH  17  24
ENDBRANCH  16  20
ENDBRANCH   1  16
TORSDOF 5
ENDMDL
MODEL 6
REMARK VINA RESULT:      -7.4      6.553     10.107
REMARK  Name = 
REMARK  8 active torsions:
REMARK  status: ('A' for Active; 'I' for Inactive)
REMARK    1  A    between atoms: C_1  and  C_2
REMARK    2  A    between atoms: C_2  and  C_3
REMARK    3  A    between atoms: C_2  and  C_4
REMARK    4  A    between atoms: C_2  and  C_5
REMARK    5  A    between atoms: C_8  and  O_9
REMARK    6  A    between atoms: O_9  and  C_10
REMARK    7  A    between atoms: C_13  and  C_14
REMARK    8  A    between atoms: N_15  and  N_16
REMARK                            x       y       z     vdW  Elec       q    Type
REMARK                         _______ _______ _______ _____ _____    ______ ____
ROOT
ATOM      1  C   UNL     1      -0.685  10.820  18.481  0.00  0.00    +0.000 A 
ATOM      2  C   UNL     1      -1.341   9.956  17.609  0.00  0.00    +0.000 A 
ATOM      3  C   UNL     1      -2.655  10.171  17.218  0.00  0.00    +0.000 A 
ATOM      4  C   UNL     1      -3.405  11.148  17.856  0.00  0.00    +0.000 A 
ATOM      5  C   UNL     1      -2.814  11.960  18.828  0.00  0.00    +0.000 A 
ATOM      6  C   UNL     1      -1.448  11.801  19.129  0.00  0.00    +0.000 A 
ENDROOT
BRANCH   4   7
ATOM      7  C   UNL     1      -4.817  11.210  17.446  0.00  0.00    +0.000 C 
ATOM      8  N   UNL     1      -5.871  11.517  18.138  0.00  0.00    +0.000 NA
BRANCH   8   9
ATOM      9  N   UNL     1      -5.732  11.794  19.462  0.00  0.00    +0.000 N 
ATOM     10  C   UNL     1      -6.655  11.366  20.382  0.00  0.00    +0.000 C 
ATOM     11  N   UNL     1      -7.691  10.675  19.855  0.00  0.00    +0.000 N 
ATOM     12  O   UNL     1      -6.555  11.601  21.574  0.00  0.00    +0.000 OA
ATOM     13  H   UNL     1      -4.899  12.241  19.830  0.00  0.00    +0.000 HD
ATOM     14  H   UNL     1      -7.503  10.279  18.945  0.00  0.00    +0.000 HD
ATOM     15  H   UNL     1      -8.299  10.194  20.496  0.00  0.00    +0.000 HD
ENDBRANCH   8   9
ENDBRANCH   4   7
BRANCH   1  16
ATOM     16  O   UNL     1       0.641  10.702  18.844  0.00  0.00    +0.000 OA
BRANCH  16  20
ATOM     17  C   UNL     1       2.395   6.858  19.252  0.00  0.00    +0.000 A 
ATOM     18  C   UNL     1       1.745   7.516  20.306  0.00  0.00    +0.000 A 
ATOM     19  C   UNL     1       1.190   8.802  20.138  0.00  0.00    +0.000 A 
ATOM     20  C   UNL     1       1.271   9.471  18.914  0.00  0.00    +0.000 A 
ATOM     21  C   UNL     1       1.904   8.803  17.873  0.00  0.00    +0.000 A 
ATOM     22  C   UNL     1       2.459   7.537  18.036  0.00  0.00    +0.000 A 
BRANCH  17  24
ATOM     23  C   UNL     1       4.561   5.496  19.377  0.00  0.00    +0.000 C 
ATOM     24  C   UNL     1       3.025   5.462  19.333  0.00  0.00    +0.000 C 
ATOM     25  C   UNL     1       2.598   4.626  18.104  0.00  0.00    +0.000 C 
ATOM     26  C   UNL     1       2.532   4.740  20.611  0.00  0.00    +0.000 C 
ENDBRANCH  17  24
ENDBRANCH  16  20
ENDBRANCH   1  16
TORSDOF 5
ENDMDL
MODEL 7
REMARK VINA RESULT:      -7.4      6.213      9.944
REMARK  Name = 
REMARK  8 active torsions:
REMARK  status: ('A' for Active; 'I' for Inactive)
REMARK    1  A    between atoms: C_1  and  C_2
REMARK    2  A    between atoms: C_2  and  C_3
REMARK    3  A    between atoms: C_2  and  C_4
REMARK    4  A    between atoms: C_2  and  C_5
REMARK    5  A    between atoms: C_8  and  O_9
REMARK    6  A    between atoms: O_9  and  C_10
REMARK    7  A    between atoms: C_13  and  C_14
REMARK    8  A    between atoms: N_15  and  N_16
REMARK                            x       y       z     vdW  Elec       q    Type
REMARK                         _______ _______ _______ _____ _____    ______ ____
ROOT
ATOM      1  C   UNL     1      -0.583  10.653  18.778  0.00  0.00    +0.000 A 
ATOM      2  C   UNL     1      -1.149   9.902  17.751  0.00  0.00    +0.000 A 
ATOM      3  C   UNL     1      -2.346  10.270  17.152  0.00  0.00    +0.000 A 
ATOM      4  C   UNL     1      -3.103  11.290  17.710  0.00  0.00    +0.000 A 
ATOM      5  C   UNL     1      -2.622  11.990  18.821  0.00  0.00    +0.000 A 
ATOM      6  C   UNL     1      -1.354  11.676  19.344  0.00  0.00    +0.000 A 
ENDROOT
BRANCH   4   7
ATOM      7  C   UNL     1      -4.406  11.516  17.066  0.00  0.00    +0.000 C 
ATOM      8  N   UNL     1      -5.600  11.225  17.480  0.00  0.00    +0.000 NA
BRANCH   8   9
ATOM      9  N   UNL     1      -5.746  10.571  18.664  0.00  0.00    +0.000 N 
ATOM     10  C   UNL     1      -6.809  10.822  19.493  0.00  0.00    +0.000 C 
ATOM     11  N   UNL     1      -7.664  11.765  19.036  0.00  0.00    +0.000 N 
ATOM     12  O   UNL     1      -6.963  10.251  20.559  0.00  0.00    +0.000 OA
ATOM     13  H   UNL     1      -5.131   9.811  18.933  0.00  0.00    +0.000 HD
ATOM     14  H   UNL     1      -7.614  11.920  18.039  0.00  0.00    +0.000 HD
ATOM     15  H   UNL     1      -8.543  11.862  19.516  0.00  0.00    +0.000 HD
ENDBRANCH   8   9
ENDBRANCH   4   7
BRANCH   1  16
ATOM     16  O   UNL     1       0.640  10.381  19.358  0.00  0.00    +0.000 OA
BRANCH  16  20
ATOM     17  C   UNL     1       2.908   6.931  18.374  0.00  0.00    +0.000 A 
ATOM     18  C   UNL     1       2.725   8.003  17.488  0.00  0.00    +0.000 A 
ATOM     19  C   UNL     1       1.949   9.125  17.843  0.00  0.00    +0.000 A 
ATOM     20  C   UNL     1       1.329   9.210  19.092  0.00  0.00    +0.000 A 
ATOM     21  C   UNL     1       1.529   8.150  19.967  0.00  0.00    +0.000 A 
ATOM     22  C   UNL     1       2.289   7.037  19.618  0.00  0.00    +0.000 A 
BRANCH  17  24
ATOM     23  C   UNL     1       4.663   5.830  16.867  0.00  0.00    +0.000 C 
ATOM     24  C   UNL     1       3.736   5.672  18.083  0.00  0.00    +0.000 C 
ATOM     25  C   UNL     1       2.791   4.478  17.815  0.00  0.00    +0.000 C 
ATOM     26  C   UNL     1       4.618   5.332  19.309  0.00  0.00    +0.000 C 
ENDBRANCH  17  24
ENDBRANCH  16  20
ENDBRANCH   1  16
TORSDOF 5
ENDMDL
MODEL 8
REMARK VINA RESULT:      -7.3      1.817      2.422
REMARK  Name = 
REMARK  8 active torsions:
REMARK  status: ('A' for Active; 'I' for Inactive)
REMARK    1  A    between atoms: C_1  and  C_2
REMARK    2  A    between atoms: C_2  and  C_3
REMARK    3  A    between atoms: C_2  and  C_4
REMARK    4  A    between atoms: C_2  and  C_5
REMARK    5  A    between atoms: C_8  and  O_9
REMARK    6  A    between atoms: O_9  and  C_10
REMARK    7  A    between atoms: C_13  and  C_14
REMARK    8  A    between atoms: N_15  and  N_16
REMARK                            x       y       z     vdW  Elec       q    Type
REMARK                         _______ _______ _______ _____ _____    ______ ____
ROOT
ATOM      1  C   UNL     1       3.311   6.416  18.504  0.00  0.00    +0.000 A 
ATOM      2  C   UNL     1       4.137   7.049  17.580  0.00  0.00    +0.000 A 
ATOM      3  C   UNL     1       5.410   6.576  17.294  0.00  0.00    +0.000 A 
ATOM      4  C   UNL     1       5.959   5.574  18.080  0.00  0.00    +0.000 A 
ATOM      5  C   UNL     1       5.201   4.994  19.102  0.00  0.00    +0.000 A 
ATOM      6  C   UNL     1       3.871   5.410  19.302  0.00  0.00    +0.000 A 
ENDROOT
BRANCH   4   7
ATOM      7  C   UNL     1       7.354   5.233  17.764  0.00  0.00    +0.000 C 
ATOM      8  N   UNL     1       7.834   4.499  16.807  0.00  0.00    +0.000 NA
BRANCH   8   9
ATOM      9  N   UNL     1       6.972   3.885  15.953  0.00  0.00    +0.000 N 
ATOM     10  C   UNL     1       6.823   4.312  14.658  0.00  0.00    +0.000 C 
ATOM     11  N   UNL     1       7.584   5.381  14.330  0.00  0.00    +0.000 N 
ATOM     12  O   UNL     1       6.058   3.780  13.872  0.00  0.00    +0.000 OA
ATOM     13  H   UNL     1       6.481   3.035  16.209  0.00  0.00    +0.000 HD
ATOM     14  H   UNL     1       8.382   5.520  14.934  0.00  0.00    +0.000 HD
ATOM     15  H   UNL     1       7.644   5.624  13.356  0.00  0.00    +0.000 HD
ENDBRANCH   8   9
ENDBRANCH   4   7
BRANCH   1  16
ATOM     16  O   UNL     1       2.011   6.792  18.773  0.00  0.00    +0.000 OA
BRANCH  16  20
ATOM     17  C   UNL     1       0.928  10.791  19.702  0.00  0.00    +0.000 A 
ATOM     18  C   UNL     1       1.252  10.369  18.404  0.00  0.00    +0.000 A 
ATOM     19  C   UNL     1       1.626   9.036  18.137  0.00  0.00    +0.000 A 
ATOM     20  C   UNL     1       1.691   8.084  19.157  0.00  0.00    +0.000 A 
ATOM     21  C   UNL     1       1.352   8.509  20.436  0.00  0.00    +0.000 A 
ATOM     22  C   UNL     1       0.990   9.826  20.705  0.00  0.00    +0.000 A 
BRANCH  17  24
ATOM     23  C   UNL     1      -0.052  13.021  18.909  0.00  0.00    +0.000 C 
ATOM     24  C   UNL     1       0.506  12.213  20.092  0.00  0.00    +0.000 C 
ATOM     25  C   UNL     1       1.722  12.978  20.665  0.00  0.00    +0.000 C 
ATOM     26  C   UNL     1      -0.591  12.152  21.182  0.00  0.00    +0.000 C 
ENDBRANCH  17  24
ENDBRANCH  16  20
ENDBRANCH   1  16
TORSDOF 5
ENDMDL
MODEL 9
REMARK VINA RESULT:      -7.3      1.861      2.485
REMARK  Name = 
REMARK  8 active torsions:
REMARK  status: ('A' for Active; 'I' for Inactive)
REMARK    1  A    between atoms: C_1  and  C_2
REMARK    2  A    between atoms: C_2  and  C_3
REMARK    3  A    between atoms: C_2  and  C_4
REMARK    4  A    between atoms: C_2  and  C_5
REMARK    5  A    between atoms: C_8  and  O_9
REMARK    6  A    between atoms: O_9  and  C_10
REMARK    7  A    between atoms: C_13  and  C_14
REMARK    8  A    between atoms: N_15  and  N_16
REMARK                            x       y       z     vdW  Elec       q    Type
REMARK                         _______ _______ _______ _____ _____    ______ ____
ROOT
ATOM      1  C   UNL     1       3.301   6.488  18.650  0.00  0.00    +0.000 A 
ATOM      2  C   UNL     1       4.008   5.548  19.394  0.00  0.00    +0.000 A 
ATOM      3  C   UNL     1       5.347   5.278  19.148  0.00  0.00    +0.000 A 
ATOM      4  C   UNL     1       5.951   5.802  18.014  0.00  0.00    +0.000 A 
ATOM      5  C   UNL     1       5.234   6.657  17.172  0.00  0.00    +0.000 A 
ATOM      6  C   UNL     1       3.912   7.009  17.502  0.00  0.00    +0.000 A 
ENDROOT
BRANCH   4   7
ATOM      7  C   UNL     1       7.335   5.357  17.790  0.00  0.00    +0.000 C 
ATOM      8  N   UNL     1       7.812   4.538  16.903  0.00  0.00    +0.000 NA
BRANCH   8   9
ATOM      9  N   UNL     1       6.954   3.928  16.042  0.00  0.00    +0.000 N 
ATOM     10  C   UNL     1       6.825   4.349  14.743  0.00  0.00    +0.000 C 
ATOM     11  N   UNL     1       7.601   5.408  14.418  0.00  0.00    +0.000 N 
ATOM     12  O   UNL     1       6.064   3.820  13.951  0.00  0.00    +0.000 OA
ATOM     13  H   UNL     1       6.451   3.085  16.297  0.00  0.00    +0.000 HD
ATOM     14  H   UNL     1       8.393   5.542  15.031  0.00  0.00    +0.000 HD
ATOM     15  H   UNL     1       7.675   5.645  13.443  0.00  0.00    +0.000 HD
ENDBRANCH   8   9
ENDBRANCH   4   7
BRANCH   1  16
ATOM     16  O   UNL     1       1.994   6.855  18.897  0.00  0.00    +0.000 OA
BRANCH  16  20
ATOM     17  C   UNL     1       0.993  10.857  19.899  0.00  0.00    +0.000 A 
ATOM     18  C   UNL     1       0.984   9.811  20.834  0.00  0.00    +0.000 A 
ATOM     19  C   UNL     1       1.305   8.489  20.459  0.00  0.00    +0.000 A 
ATOM     20  C   UNL     1       1.640   8.171  19.141  0.00  0.00    +0.000 A 
ATOM     21  C   UNL     1       1.660   9.218  18.227  0.00  0.00    +0.000 A 
ATOM     22  C   UNL     1       1.338  10.522  18.591  0.00  0.00    +0.000 A 
BRANCH  17  24
ATOM     23  C   UNL     1      -0.079  12.506  21.540  0.00  0.00    +0.000 C 
ATOM     24  C   UNL     1       0.665  12.323  20.207  0.00  0.00    +0.000 C 
ATOM     25  C   UNL     1      -0.218  12.908  19.081  0.00  0.00    +0.000 C 
ATOM     26  C   UNL     1       1.974  13.147  20.280  0.00  0.00    +0.000 C 
ENDBRANCH  17  24
ENDBRANCH  16  20
ENDBRANCH   1  16
TORSDOF 5
ENDMDL
