MODEL 1
REMARK VINA RESULT:      -8.1      0.000      0.000
REMARK  Name = 
REMARK  9 active torsions:
REMARK  status: ('A' for Active; 'I' for Inactive)
REMARK    1  A    between atoms: C_1  and  C_2
REMARK    2  A    between atoms: N_4  and  C_5
REMARK    3  A    between atoms: C_5  and  C_6
REMARK    4  A    between atoms: C_6  and  C_7
REMARK    5  A    between atoms: C_7  and  N_8
REMARK    6  A    between atoms: C_22  and  C_23
REMARK    7  A    between atoms: N_24  and  C_25
REMARK    8  A    between atoms: C_25  and  C_26
REMARK    9  A    between atoms: C_26  and  N_27
REMARK                            x       y       z     vdW  Elec       q    Type
REMARK                         _______ _______ _______ _____ _____    ______ ____
ROOT
ATOM      1  C   UNL     1       1.804   8.025  17.995  0.00  0.00    +0.000 C 
ENDROOT
BRANCH   1   2
ATOM      2  C   UNL     1       2.216   9.502  18.010  0.00  0.00    +0.000 C 
BRANCH   2   6
ATOM      3  C   UNL     1      -1.942  10.962  18.404  0.00  0.00    +0.000 C 
ATOM      4  C   UNL     1      -0.989  10.870  19.614  0.00  0.00    +0.000 C 
ATOM      5  C   UNL     1       0.170   9.888  19.290  0.00  0.00    +0.000 C 
ATOM      6  N   UNL     1       1.095  10.413  18.267  0.00  0.00    +0.000 NA
ATOM      7  C   UNL     1       1.575  11.763  18.635  0.00  0.00    +0.000 C 
ATOM      8  C   UNL     1       0.417  12.737  19.004  0.00  0.00    +0.000 C 
ATOM      9  C   UNL     1       0.938  14.161  19.214  0.00  0.00    +0.000 C 
ATOM     10  N   UNL     1      -0.490  12.212  20.071  0.00  0.00    +0.000 NA
BRANCH  10  11
ATOM     11  C   UNL     1       0.134  12.053  21.415  0.00  0.00    +0.000 C 
BRANCH  11  12
ATOM     12  C   UNL     1      -0.686  11.284  22.465  0.00  0.00    +0.000 C 
BRANCH  12  13
ATOM     13  N   UNL     1      -1.367  12.235  23.371  0.00  0.00    +0.000 NA
ATOM     14  C   UNL     1      -2.463  12.492  23.037  0.00  0.00    +0.000 C 
ATOM     15  S   UNL     1      -3.940  12.835  22.547  0.00  0.00    +0.000 S 
ENDBRANCH  12  13
ENDBRANCH  11  12
ENDBRANCH  10  11
ENDBRANCH   2   6
ENDBRANCH   1   2
BRANCH   1  16
ATOM     16  C   UNL     1       2.630   7.183  18.968  0.00  0.00    +0.000 C 
BRANCH  16  17
ATOM     17  N   UNL     1       2.950   5.875  18.414  0.00  0.00    +0.000 N 
ATOM     18  C   UNL     1       2.337   4.687  18.768  0.00  0.00    +0.000 A 
ATOM     19  C   UNL     1       1.334   4.398  19.710  0.00  0.00    +0.000 A 
ATOM     20  C   UNL     1       0.901   3.072  19.834  0.00  0.00    +0.000 A 
ATOM     21  C   UNL     1       1.450   2.064  19.051  0.00  0.00    +0.000 A 
ATOM     22  C   UNL     1       2.455   2.355  18.122  0.00  0.00    +0.000 A 
ATOM     23  C   UNL     1       2.909   3.686  17.980  0.00  0.00    +0.000 A 
ATOM     24  C   UNL     1       3.902   4.300  17.157  0.00  0.00    +0.000 A 
ATOM     25  C   UNL     1       4.805   3.805  16.191  0.00  0.00    +0.000 A 
ATOM     26  C   UNL     1       5.681   4.682  15.546  0.00  0.00    +0.000 A 
ATOM     27  C   UNL     1       5.671   6.040  15.852  0.00  0.00    +0.000 A 
ATOM     28  C   UNL     1       4.791   6.553  16.805  0.00  0.00    +0.000 A 
ATOM     29  C   UNL     1       3.914   5.663  17.448  0.00  0.00    +0.000 A 
ENDBRANCH  16  17
ENDBRANCH   1  16
TORSDOF 7
ENDMDL
MODEL 2
REMARK VINA RESULT:      -8.0      0.513      3.015
REMARK  Name = 
REMARK  9 active torsions:
REMARK  status: ('A' for Active; 'I' for Inactive)
REMARK    1  A    between atoms: C_1  and  C_2
REMARK    2  A    between atoms: N_4  and  C_5
REMARK    3  A    between atoms: C_5  and  C_6
REMARK    4  A    between atoms: C_6  and  C_7
REMARK    5  A    between atoms: C_7  and  N_8
REMARK    6  A    between atoms: C_22  and  C_23
REMARK    7  A    between atoms: N_24  and  C_25
REMARK    8  A    between atoms: C_25  and  C_26
REMARK    9  A    between atoms: C_26  and  N_27
REMARK                            x       y       z     vdW  Elec       q    Type
REMARK                         _______ _______ _______ _____ _____    ______ ____
ROOT
ATOM      1  C   UNL     1       1.919   8.115  17.956  0.00  0.00    +0.000 C 
ENDROOT
BRANCH   1   2
ATOM      2  C   UNL     1       2.247   9.606  18.100  0.00  0.00    +0.000 C 
BRANCH   2   6
ATOM      3  C   UNL     1      -1.998  10.807  18.429  0.00  0.00    +0.000 C 
ATOM      4  C   UNL     1      -1.083  10.687  19.667  0.00  0.00    +0.000 C 
ATOM      5  C   UNL     1       0.140   9.793  19.324  0.00  0.00    +0.000 C 
ATOM      6  N   UNL     1       1.069  10.435  18.373  0.00  0.00    +0.000 NA
ATOM      7  C   UNL     1       1.458  11.781  18.845  0.00  0.00    +0.000 C 
ATOM      8  C   UNL     1       0.234  12.664  19.232  0.00  0.00    +0.000 C 
ATOM      9  C   UNL     1       0.665  14.097  19.553  0.00  0.00    +0.000 C 
ATOM     10  N   UNL     1      -0.677  12.021  20.228  0.00  0.00    +0.000 NA
BRANCH  10  11
ATOM     11  C   UNL     1      -0.092  11.807  21.581  0.00  0.00    +0.000 C 
BRANCH  11  12
ATOM     12  C   UNL     1      -1.057  11.928  22.773  0.00  0.00    +0.000 C 
BRANCH  12  13
ATOM     13  N   UNL     1      -2.364  12.451  22.316  0.00  0.00    +0.000 NA
ATOM     14  C   UNL     1      -3.156  12.538  23.177  0.00  0.00    +0.000 C 
ATOM     15  S   UNL     1      -4.216  12.627  24.364  0.00  0.00    +0.000 S 
ENDBRANCH  12  13
ENDBRANCH  11  12
ENDBRANCH  10  11
ENDBRANCH   2   6
ENDBRANCH   1   2
BRANCH   1  16
ATOM     16  C   UNL     1       2.728   7.247  18.920  0.00  0.00    +0.000 C 
BRANCH  16  17
ATOM     17  N   UNL     1       3.025   5.940  18.351  0.00  0.00    +0.000 N 
ATOM     18  C   UNL     1       3.971   5.692  17.373  0.00  0.00    +0.000 A 
ATOM     19  C   UNL     1       4.832   6.551  16.667  0.00  0.00    +0.000 A 
ATOM     20  C   UNL     1       5.706   5.990  15.727  0.00  0.00    +0.000 A 
ATOM     21  C   UNL     1       5.721   4.621  15.492  0.00  0.00    +0.000 A 
ATOM     22  C   UNL     1       4.856   3.772  16.190  0.00  0.00    +0.000 A 
ATOM     23  C   UNL     1       3.964   4.315  17.143  0.00  0.00    +0.000 A 
ATOM     24  C   UNL     1       2.969   3.741  17.993  0.00  0.00    +0.000 A 
ATOM     25  C   UNL     1       2.500   2.424  18.187  0.00  0.00    +0.000 A 
ATOM     26  C   UNL     1       1.481   2.179  19.112  0.00  0.00    +0.000 A 
ATOM     27  C   UNL     1       0.925   3.226  19.841  0.00  0.00    +0.000 A 
ATOM     28  C   UNL     1       1.369   4.537  19.665  0.00  0.00    +0.000 A 
ATOM     29  C   UNL     1       2.394   4.773  18.733  0.00  0.00    +0.000 A 
ENDBRANCH  16  17
ENDBRANCH   1  16
TORSDOF 7
ENDMDL
MODEL 3
REMARK VINA RESULT:      -7.9      1.781      4.004
REMARK  Name = 
REMARK  9 active torsions:
REMARK  status: ('A' for Active; 'I' for Inactive)
REMARK    1  A    between atoms: C_1  and  C_2
REMARK    2  A    between atoms: N_4  and  C_5
REMARK    3  A    between atoms: C_5  and  C_6
REMARK    4  A    between atoms: C_6  and  C_7
REMARK    5  A    between atoms: C_7  and  N_8
REMARK    6  A    between atoms: C_22  and  C_23
REMARK    7  A    between atoms: N_24  and  C_25
REMARK    8  A    between atoms: C_25  and  C_26
REMARK    9  A    between atoms: C_26  and  N_27
REMARK                            x       y       z     vdW  Elec       q    Type
REMARK                         _______ _______ _______ _____ _____    ______ ____
ROOT
ATOM      1  C   UNL     1       2.036   7.989  17.722  0.00  0.00    +0.000 C 
ENDROOT
BRANCH   1   2
ATOM      2  C   UNL     1       2.015   9.477  18.092  0.00  0.00    +0.000 C 
BRANCH   2   6
ATOM      3  C   UNL     1      -0.469  10.443  21.623  0.00  0.00    +0.000 C 
ATOM      4  C   UNL     1      -0.147  11.492  20.538  0.00  0.00    +0.000 C 
ATOM      5  C   UNL     1       1.104  11.040  19.734  0.00  0.00    +0.000 C 
ATOM      6  N   UNL     1       0.845   9.859  18.888  0.00  0.00    +0.000 NA
ATOM      7  C   UNL     1      -0.340  10.077  18.029  0.00  0.00    +0.000 C 
ATOM      8  C   UNL     1      -1.583  10.573  18.827  0.00  0.00    +0.000 C 
ATOM      9  C   UNL     1      -2.827  10.625  17.937  0.00  0.00    +0.000 C 
ATOM     10  N   UNL     1      -1.319  11.794  19.648  0.00  0.00    +0.000 NA
BRANCH  10  11
ATOM     11  C   UNL     1      -1.018  13.030  18.871  0.00  0.00    +0.000 C 
BRANCH  11  12
ATOM     12  C   UNL     1      -0.756  14.306  19.688  0.00  0.00    +0.000 C 
BRANCH  12  13
ATOM     13  N   UNL     1       0.243  15.153  18.998  0.00  0.00    +0.000 NA
ATOM     14  C   UNL     1      -0.187  16.189  18.650  0.00  0.00    +0.000 C 
ATOM     15  S   UNL     1      -0.805  17.579  18.174  0.00  0.00    +0.000 S 
ENDBRANCH  12  13
ENDBRANCH  11  12
ENDBRANCH  10  11
ENDBRANCH   2   6
ENDBRANCH   1   2
BRANCH   1  16
ATOM     16  C   UNL     1       2.839   7.154  18.718  0.00  0.00    +0.000 C 
BRANCH  16  17
ATOM     17  N   UNL     1       3.127   5.823  18.202  0.00  0.00    +0.000 N 
ATOM     18  C   UNL     1       4.080   5.528  17.245  0.00  0.00    +0.000 A 
ATOM     19  C   UNL     1       4.960   6.349  16.518  0.00  0.00    +0.000 A 
ATOM     20  C   UNL     1       5.836   5.743  15.609  0.00  0.00    +0.000 A 
ATOM     21  C   UNL     1       5.837   4.365  15.426  0.00  0.00    +0.000 A 
ATOM     22  C   UNL     1       4.953   3.553  16.145  0.00  0.00    +0.000 A 
ATOM     23  C   UNL     1       4.058   4.143  17.067  0.00  0.00    +0.000 A 
ATOM     24  C   UNL     1       3.047   3.614  17.926  0.00  0.00    +0.000 A 
ATOM     25  C   UNL     1       2.559   2.310  18.164  0.00  0.00    +0.000 A 
ATOM     26  C   UNL     1       1.528   2.113  19.086  0.00  0.00    +0.000 A 
ATOM     27  C   UNL     1       0.976   3.193  19.769  0.00  0.00    +0.000 A 
ATOM     28  C   UNL     1       1.439   4.491  19.549  0.00  0.00    +0.000 A 
ATOM     29  C   UNL     1       2.476   4.679  18.620  0.00  0.00    +0.000 A 
ENDBRANCH  16  17
ENDBRANCH   1  16
TORSDOF 7
ENDMDL
MODEL 4
REMARK VINA RESULT:      -7.9      1.181      1.262
REMARK  Name = 
REMARK  9 active torsions:
REMARK  status: ('A' for Active; 'I' for Inactive)
REMARK    1  A    between atoms: C_1  and  C_2
REMARK    2  A    between atoms: N_4  and  C_5
REMARK    3  A    between atoms: C_5  and  C_6
REMARK    4  A    between atoms: C_6  and  C_7
REMARK    5  A    between atoms: C_7  and  N_8
REMARK    6  A    between atoms: C_22  and  C_23
REMARK    7  A    between atoms: N_24  and  C_25
REMARK    8  A    between atoms: C_25  and  C_26
REMARK    9  A    between atoms: C_26  and  N_27
REMARK                            x       y       z     vdW  Elec       q    Type
REMARK                         _______ _______ _______ _____ _____    ______ ____
ROOT
ATOM      1  C   UNL     1       1.637   7.927  19.197  0.00  0.00    +0.000 C 
ENDROOT
BRANCH   1   2
ATOM      2  C   UNL     1       1.992   8.952  18.113  0.00  0.00    +0.000 C 
BRANCH   2   6
ATOM      3  C   UNL     1      -1.677  11.395  17.731  0.00  0.00    +0.000 C 
ATOM      4  C   UNL     1      -0.947  11.220  19.079  0.00  0.00    +0.000 C 
ATOM      5  C   UNL     1      -0.042   9.959  19.020  0.00  0.00    +0.000 C 
ATOM      6  N   UNL     1       1.114  10.126  18.117  0.00  0.00    +0.000 NA
ATOM      7  C   UNL     1       1.866  11.356  18.448  0.00  0.00    +0.000 C 
ATOM      8  C   UNL     1       0.952  12.614  18.552  0.00  0.00    +0.000 C 
ATOM      9  C   UNL     1       1.783  13.888  18.727  0.00  0.00    +0.000 C 
ATOM     10  N   UNL     1      -0.191  12.448  19.501  0.00  0.00    +0.000 NA
BRANCH  10  11
ATOM     11  C   UNL     1       0.189  12.302  20.934  0.00  0.00    +0.000 C 
BRANCH  11  12
ATOM     12  C   UNL     1      -0.939  12.481  21.964  0.00  0.00    +0.000 C 
BRANCH  12  13
ATOM     13  N   UNL     1      -0.697  11.614  23.138  0.00  0.00    +0.000 NA
ATOM     14  C   UNL     1      -0.544  10.484  22.859  0.00  0.00    +0.000 C 
ATOM     15  S   UNL     1      -0.359   8.956  22.448  0.00  0.00    +0.000 S 
ENDBRANCH  12  13
ENDBRANCH  11  12
ENDBRANCH  10  11
ENDBRANCH   2   6
ENDBRANCH   1   2
BRANCH   1  16
ATOM     16  C   UNL     1       2.850   7.109  19.642  0.00  0.00    +0.000 C 
BRANCH  16  17
ATOM     17  N   UNL     1       3.020   5.909  18.834  0.00  0.00    +0.000 N 
ATOM     18  C   UNL     1       2.316   4.731  19.000  0.00  0.00    +0.000 A 
ATOM     19  C   UNL     1       1.337   4.350  19.934  0.00  0.00    +0.000 A 
ATOM     20  C   UNL     1       0.789   3.065  19.837  0.00  0.00    +0.000 A 
ATOM     21  C   UNL     1       1.204   2.184  18.845  0.00  0.00    +0.000 A 
ATOM     22  C   UNL     1       2.185   2.564  17.923  0.00  0.00    +0.000 A 
ATOM     23  C   UNL     1       2.754   3.855  18.003  0.00  0.00    +0.000 A 
ATOM     24  C   UNL     1       3.759   4.532  17.246  0.00  0.00    +0.000 A 
ATOM     25  C   UNL     1       4.564   4.158  16.148  0.00  0.00    +0.000 A 
ATOM     26  C   UNL     1       5.487   5.067  15.623  0.00  0.00    +0.000 A 
ATOM     27  C   UNL     1       5.618   6.338  16.177  0.00  0.00    +0.000 A 
ATOM     28  C   UNL     1       4.836   6.730  17.263  0.00  0.00    +0.000 A 
ATOM     29  C   UNL     1       3.912   5.808  17.785  0.00  0.00    +0.000 A 
ENDBRANCH  16  17
ENDBRANCH   1  16
TORSDOF 7
ENDMDL
MODEL 5
REMARK VINA RESULT:      -7.9      1.957      4.282
REMARK  Name = 
REMARK  9 active torsions:
REMARK  status: ('A' for Active; 'I' for Inactive)
REMARK    1  A    between atoms: C_1  and  C_2
REMARK    2  A    between atoms: N_4  and  C_5
REMARK    3  A    between atoms: C_5  and  C_6
REMARK    4  A    between atoms: C_6  and  C_7
REMARK    5  A    between atoms: C_7  and  N_8
REMARK    6  A    between atoms: C_22  and  C_23
REMARK    7  A    between atoms: N_24  and  C_25
REMARK    8  A    between atoms: C_25  and  C_26
REMARK    9  A    between atoms: C_26  and  N_27
REMARK                            x       y       z     vdW  Elec       q    Type
REMARK                         _______ _______ _______ _____ _____    ______ ____
ROOT
ATOM      1  C   UNL     1       1.858   7.709  19.452  0.00  0.00    +0.000 C 
ENDROOT
BRANCH   1   2
ATOM      2  C   UNL     1       1.261   8.325  20.722  0.00  0.00    +0.000 C 
BRANCH   2   6
ATOM      3  C   UNL     1       1.742  12.518  19.393  0.00  0.00    +0.000 C 
ATOM      4  C   UNL     1       0.461  11.708  19.099  0.00  0.00    +0.000 C 
ATOM      5  C   UNL     1       0.767  10.189  19.221  0.00  0.00    +0.000 C 
ATOM      6  N   UNL     1       1.029   9.769  20.611  0.00  0.00    +0.000 NA
ATOM      7  C   UNL     1      -0.062  10.207  21.508  0.00  0.00    +0.000 C 
ATOM      8  C   UNL     1      -0.401  11.720  21.354  0.00  0.00    +0.000 C 
ATOM      9  C   UNL     1      -1.412  12.171  22.411  0.00  0.00    +0.000 C 
ATOM     10  N   UNL     1      -0.706  12.126  19.949  0.00  0.00    +0.000 NA
BRANCH  10  11
ATOM     11  C   UNL     1      -1.947  11.537  19.371  0.00  0.00    +0.000 C 
BRANCH  11  12
ATOM     12  C   UNL     1      -2.086  11.595  17.841  0.00  0.00    +0.000 C 
BRANCH  12  13
ATOM     13  N   UNL     1      -2.267  10.231  17.296  0.00  0.00    +0.000 NA
ATOM     14  C   UNL     1      -2.653  10.220  16.188  0.00  0.00    +0.000 C 
ATOM     15  S   UNL     1      -3.194  10.239  14.689  0.00  0.00    +0.000 S 
ENDBRANCH  12  13
ENDBRANCH  11  12
ENDBRANCH  10  11
ENDBRANCH   2   6
ENDBRANCH   1   2
BRANCH   1  16
ATOM     16  C   UNL     1       3.095   6.860  19.746  0.00  0.00    +0.000 C 
BRANCH  16  17
ATOM     17  N   UNL     1       3.184   5.707  18.859  0.00  0.00    +0.000 N 
ATOM     18  C   UNL     1       4.028   5.604  17.769  0.00  0.00    +0.000 A 
ATOM     19  C   UNL     1       4.950   6.507  17.212  0.00  0.00    +0.000 A 
ATOM     20  C   UNL     1       5.684   6.101  16.090  0.00  0.00    +0.000 A 
ATOM     21  C   UNL     1       5.505   4.838  15.538  0.00  0.00    +0.000 A 
ATOM     22  C   UNL     1       4.580   3.946  16.090  0.00  0.00    +0.000 A 
ATOM     23  C   UNL     1       3.827   4.335  17.221  0.00  0.00    +0.000 A 
ATOM     24  C   UNL     1       2.819   3.685  17.997  0.00  0.00    +0.000 A 
ATOM     25  C   UNL     1       2.193   2.422  17.916  0.00  0.00    +0.000 A 
ATOM     26  C   UNL     1       1.210   2.073  18.846  0.00  0.00    +0.000 A 
ATOM     27  C   UNL     1       0.840   2.964  19.849  0.00  0.00    +0.000 A 
ATOM     28  C   UNL     1       1.441   4.220  19.949  0.00  0.00    +0.000 A 
ATOM     29  C   UNL     1       2.429   4.561  19.010  0.00  0.00    +0.000 A 
ENDBRANCH  16  17
ENDBRANCH   1  16
TORSDOF 7
ENDMDL
MODEL 6
REMARK VINA RESULT:      -7.8      1.324      1.480
REMARK  Name = 
REMARK  9 active torsions:
REMARK  status: ('A' for Active; 'I' for Inactive)
REMARK    1  A    between atoms: C_1  and  C_2
REMARK    2  A    between atoms: N_4  and  C_5
REMARK    3  A    between atoms: C_5  and  C_6
REMARK    4  A    between atoms: C_6  and  C_7
REMARK    5  A    between atoms: C_7  and  N_8
REMARK    6  A    between atoms: C_22  and  C_23
REMARK    7  A    between atoms: N_24  and  C_25
REMARK    8  A    between atoms: C_25  and  C_26
REMARK    9  A    between atoms: C_26  and  N_27
REMARK                            x       y       z     vdW  Elec       q    Type
REMARK                         _______ _______ _______ _____ _____    ______ ____
ROOT
ATOM      1  C   UNL     1       1.836   8.440  17.894  0.00  0.00    +0.000 C 
ENDROOT
BRANCH   1   2
ATOM      2  C   UNL     1       1.313   9.248  19.087  0.00  0.00    +0.000 C 
BRANCH   2   6
ATOM      3  C   UNL     1      -2.160  11.462  17.469  0.00  0.00    +0.000 C 
ATOM      4  C   UNL     1      -1.765  11.534  18.960  0.00  0.00    +0.000 C 
ATOM      5  C   UNL     1      -0.873  10.314  19.321  0.00  0.00    +0.000 C 
ATOM      6  N   UNL     1       0.461  10.375  18.693  0.00  0.00    +0.000 NA
ATOM      7  C   UNL     1       1.118  11.669  18.979  0.00  0.00    +0.000 C 
ATOM      8  C   UNL     1       0.209  12.893  18.659  0.00  0.00    +0.000 C 
ATOM      9  C   UNL     1       0.979  14.208  18.807  0.00  0.00    +0.000 C 
ATOM     10  N   UNL     1      -1.124  12.841  19.334  0.00  0.00    +0.000 NA
BRANCH  10  11
ATOM     11  C   UNL     1      -1.089  12.944  20.820  0.00  0.00    +0.000 C 
BRANCH  11  12
ATOM     12  C   UNL     1      -2.402  12.633  21.559  0.00  0.00    +0.000 C 
BRANCH  12  13
ATOM     13  N   UNL     1      -2.112  12.190  22.941  0.00  0.00    +0.000 NA
ATOM     14  C   UNL     1      -1.419  11.244  22.991  0.00  0.00    +0.000 C 
ATOM     15  S   UNL     1      -0.492   9.948  23.025  0.00  0.00    +0.000 S 
ENDBRANCH  12  13
ENDBRANCH  11  12
ENDBRANCH  10  11
ENDBRANCH   2   6
ENDBRANCH   1   2
BRANCH   1  16
ATOM     16  C   UNL     1       3.309   8.062  18.050  0.00  0.00    +0.000 C 
BRANCH  16  17
ATOM     17  N   UNL     1       3.503   6.618  18.026  0.00  0.00    +0.000 N 
ATOM     18  C   UNL     1       2.960   5.726  18.933  0.00  0.00    +0.000 A 
ATOM     19  C   UNL     1       2.158   5.921  20.071  0.00  0.00    +0.000 A 
ATOM     20  C   UNL     1       1.747   4.796  20.795  0.00  0.00    +0.000 A 
ATOM     21  C   UNL     1       2.123   3.516  20.403  0.00  0.00    +0.000 A 
ATOM     22  C   UNL     1       2.929   3.328  19.276  0.00  0.00    +0.000 A 
ATOM     23  C   UNL     1       3.358   4.449  18.530  0.00  0.00    +0.000 A 
ATOM     24  C   UNL     1       4.176   4.599  17.368  0.00  0.00    +0.000 A 
ATOM     25  C   UNL     1       4.868   3.685  16.543  0.00  0.00    +0.000 A 
ATOM     26  C   UNL     1       5.609   4.156  15.456  0.00  0.00    +0.000 A 
ATOM     27  C   UNL     1       5.671   5.520  15.182  0.00  0.00    +0.000 A 
ATOM     28  C   UNL     1       4.999   6.442  15.984  0.00  0.00    +0.000 A 
ATOM     29  C   UNL     1       4.257   5.959  17.075  0.00  0.00    +0.000 A 
ENDBRANCH  16  17
ENDBRANCH   1  16
TORSDOF 7
ENDMDL
MODEL 7
REMARK VINA RESULT:      -7.8      1.151      3.204
REMARK  Name = 
REMARK  9 active torsions:
REMARK  status: ('A' for Active; 'I' for Inactive)
REMARK    1  A    between atoms: C_1  and  C_2
REMARK    2  A    between atoms: N_4  and  C_5
REMARK    3  A    between atoms: C_5  and  C_6
REMARK    4  A    between atoms: C_6  and  C_7
REMARK    5  A    between atoms: C_7  and  N_8
REMARK    6  A    between atoms: C_22  and  C_23
REMARK    7  A    between atoms: N_24  and  C_25
REMARK    8  A    between atoms: C_25  and  C_26
REMARK    9  A    between atoms: C_26  and  N_27
REMARK                            x       y       z     vdW  Elec       q    Type
REMARK                         _______ _______ _______ _____ _____    ______ ____
ROOT
ATOM      1  C   UNL     1       1.415   7.956  19.139  0.00  0.00    +0.000 C 
ENDROOT
BRANCH   1   2
ATOM      2  C   UNL     1       1.804   9.039  18.125  0.00  0.00    +0.000 C 
BRANCH   2   6
ATOM      3  C   UNL     1      -1.724  11.707  18.005  0.00  0.00    +0.000 C 
ATOM      4  C   UNL     1      -0.988  11.382  19.322  0.00  0.00    +0.000 C 
ATOM      5  C   UNL     1      -0.157  10.081  19.146  0.00  0.00    +0.000 C 
ATOM      6  N   UNL     1       0.994  10.256  18.239  0.00  0.00    +0.000 NA
ATOM      7  C   UNL     1       1.819  11.412  18.655  0.00  0.00    +0.000 C 
ATOM      8  C   UNL     1       0.981  12.706  18.876  0.00  0.00    +0.000 C 
ATOM      9  C   UNL     1       1.886  13.913  19.139  0.00  0.00    +0.000 C 
ATOM     10  N   UNL     1      -0.157  12.527  19.828  0.00  0.00    +0.000 NA
BRANCH  10  11
ATOM     11  C   UNL     1       0.232  12.243  21.238  0.00  0.00    +0.000 C 
BRANCH  11  12
ATOM     12  C   UNL     1      -0.610  12.922  22.332  0.00  0.00    +0.000 C 
BRANCH  12  13
ATOM     13  N   UNL     1      -1.322  11.900  23.131  0.00  0.00    +0.000 NA
ATOM     14  C   UNL     1      -0.825  10.838  23.076  0.00  0.00    +0.000 C 
ATOM     15  S   UNL     1      -0.138   9.404  22.967  0.00  0.00    +0.000 S 
ENDBRANCH  12  13
ENDBRANCH  11  12
ENDBRANCH  10  11
ENDBRANCH   2   6
ENDBRANCH   1   2
BRANCH   1  16
ATOM     16  C   UNL     1       2.627   7.177  19.648  0.00  0.00    +0.000 C 
BRANCH  16  17
ATOM     17  N   UNL     1       2.882   5.988  18.847  0.00  0.00    +0.000 N 
ATOM     18  C   UNL     1       3.785   5.909  17.803  0.00  0.00    +0.000 A 
ATOM     19  C   UNL     1       4.630   6.872  17.223  0.00  0.00    +0.000 A 
ATOM     20  C   UNL     1       5.457   6.479  16.164  0.00  0.00    +0.000 A 
ATOM     21  C   UNL     1       5.443   5.172  15.692  0.00  0.00    +0.000 A 
ATOM     22  C   UNL     1       4.593   4.220  16.265  0.00  0.00    +0.000 A 
ATOM     23  C   UNL     1       3.748   4.593  17.334  0.00  0.00    +0.000 A 
ATOM     24  C   UNL     1       2.779   3.887  18.111  0.00  0.00    +0.000 A 
ATOM     25  C   UNL     1       2.298   2.560  18.090  0.00  0.00    +0.000 A 
ATOM     26  C   UNL     1       1.313   2.164  19.000  0.00  0.00    +0.000 A 
ATOM     27  C   UNL     1       0.802   3.071  19.924  0.00  0.00    +0.000 A 
ATOM     28  C   UNL     1       1.258   4.388  19.963  0.00  0.00    +0.000 A 
ATOM     29  C   UNL     1       2.248   4.777  19.044  0.00  0.00    +0.000 A 
ENDBRANCH  16  17
ENDBRANCH   1  16
TORSDOF 7
ENDMDL
MODEL 8
REMARK VINA RESULT:      -7.8      0.909      3.107
REMARK  Name = 
REMARK  9 active torsions:
REMARK  status: ('A' for Active; 'I' for Inactive)
REMARK    1  A    between atoms: C_1  and  C_2
REMARK    2  A    between atoms: N_4  and  C_5
REMARK    3  A    between atoms: C_5  and  C_6
REMARK    4  A    between atoms: C_6  and  C_7
REMARK    5  A    between atoms: C_7  and  N_8
REMARK    6  A    between atoms: C_22  and  C_23
REMARK    7  A    between atoms: N_24  and  C_25
REMARK    8  A    between atoms: C_25  and  C_26
REMARK    9  A    between atoms: C_26  and  N_27
REMARK                            x       y       z     vdW  Elec       q    Type
REMARK                         _______ _______ _______ _____ _____    ______ ____
ROOT
ATOM      1  C   UNL     1       1.560   7.965  18.421  0.00  0.00    +0.000 C 
ENDROOT
BRANCH   1   2
ATOM      2  C   UNL     1       2.130   9.300  17.926  0.00  0.00    +0.000 C 
BRANCH   2   6
ATOM      3  C   UNL     1      -1.685  11.541  17.955  0.00  0.00    +0.000 C 
ATOM      4  C   UNL     1      -0.853  11.326  19.237  0.00  0.00    +0.000 C 
ATOM      5  C   UNL     1       0.114  10.127  19.033  0.00  0.00    +0.000 C 
ATOM      6  N   UNL     1       1.191  10.418  18.067  0.00  0.00    +0.000 NA
ATOM      7  C   UNL     1       1.896  11.668  18.427  0.00  0.00    +0.000 C 
ATOM      8  C   UNL     1       0.925  12.860  18.676  0.00  0.00    +0.000 C 
ATOM      9  C   UNL     1       1.696  14.167  18.879  0.00  0.00    +0.000 C 
ATOM     10  N   UNL     1      -0.136  12.568  19.686  0.00  0.00    +0.000 NA
BRANCH  10  11
ATOM     11  C   UNL     1       0.351  12.355  21.078  0.00  0.00    +0.000 C 
BRANCH  11  12
ATOM     12  C   UNL     1      -0.701  11.932  22.117  0.00  0.00    +0.000 C 
BRANCH  12  13
ATOM     13  N   UNL     1      -0.687  12.867  23.264  0.00  0.00    +0.000 NA
ATOM     14  C   UNL     1      -0.922  13.976  22.962  0.00  0.00    +0.000 C 
ATOM     15  S   UNL     1      -1.228  15.476  22.519  0.00  0.00    +0.000 S 
ENDBRANCH  12  13
ENDBRANCH  11  12
ENDBRANCH  10  11
ENDBRANCH   2   6
ENDBRANCH   1   2
BRANCH   1  16
ATOM     16  C   UNL     1       2.583   7.158  19.219  0.00  0.00    +0.000 C 
BRANCH  16  17
ATOM     17  N   UNL     1       2.901   5.894  18.570  0.00  0.00    +0.000 N 
ATOM     18  C   UNL     1       3.840   5.726  17.569  0.00  0.00    +0.000 A 
ATOM     19  C   UNL     1       4.674   6.643  16.906  0.00  0.00    +0.000 A 
ATOM     20  C   UNL     1       5.547   6.159  15.924  0.00  0.00    +0.000 A 
ATOM     21  C   UNL     1       5.588   4.806  15.608  0.00  0.00    +0.000 A 
ATOM     22  C   UNL     1       4.750   3.898  16.263  0.00  0.00    +0.000 A 
ATOM     23  C   UNL     1       3.859   4.364  17.257  0.00  0.00    +0.000 A 
ATOM     24  C   UNL     1       2.887   3.720  18.082  0.00  0.00    +0.000 A 
ATOM     25  C   UNL     1       2.448   2.383  18.203  0.00  0.00    +0.000 A 
ATOM     26  C   UNL     1       1.446   2.062  19.123  0.00  0.00    +0.000 A 
ATOM     27  C   UNL     1       0.877   3.052  19.920  0.00  0.00    +0.000 A 
ATOM     28  C   UNL     1       1.292   4.380  19.817  0.00  0.00    +0.000 A 
ATOM     29  C   UNL     1       2.299   4.693  18.889  0.00  0.00    +0.000 A 
ENDBRANCH  16  17
ENDBRANCH   1  16
TORSDOF 7
ENDMDL
MODEL 9
REMARK VINA RESULT:      -7.7      1.861      2.805
REMARK  Name = 
REMARK  9 active torsions:
REMARK  status: ('A' for Active; 'I' for Inactive)
REMARK    1  A    between atoms: C_1  and  C_2
REMARK    2  A    between atoms: N_4  and  C_5
REMARK    3  A    between atoms: C_5  and  C_6
REMARK    4  A    between atoms: C_6  and  C_7
REMARK    5  A    between atoms: C_7  and  N_8
REMARK    6  A    between atoms: C_22  and  C_23
REMARK    7  A    between atoms: N_24  and  C_25
REMARK    8  A    between atoms: C_25  and  C_26
REMARK    9  A    between atoms: C_26  and  N_27
REMARK                            x       y       z     vdW  Elec       q    Type
REMARK                         _______ _______ _______ _____ _____    ______ ____
ROOT
ATOM      1  C   UNL     1       1.648   8.035  18.007  0.00  0.00    +0.000 C 
ENDROOT
BRANCH   1   2
ATOM      2  C   UNL     1       1.732   9.553  18.206  0.00  0.00    +0.000 C 
BRANCH   2   6
ATOM      3  C   UNL     1      -0.451  10.824  21.838  0.00  0.00    +0.000 C 
ATOM      4  C   UNL     1      -0.030  11.827  20.743  0.00  0.00    +0.000 C 
ATOM      5  C   UNL     1       1.113  11.214  19.888  0.00  0.00    +0.000 C 
ATOM      6  N   UNL     1       0.659  10.087  19.050  0.00  0.00    +0.000 NA
ATOM      7  C   UNL     1      -0.518  10.473  18.241  0.00  0.00    +0.000 C 
ATOM      8  C   UNL     1      -1.647  11.130  19.091  0.00  0.00    +0.000 C 
ATOM      9  C   UNL     1      -2.907  11.360  18.252  0.00  0.00    +0.000 C 
ATOM     10  N   UNL     1      -1.184  12.296  19.903  0.00  0.00    +0.000 NA
BRANCH  10  11
ATOM     11  C   UNL     1      -0.746  13.484  19.118  0.00  0.00    +0.000 C 
BRANCH  11  12
ATOM     12  C   UNL     1      -0.743  14.832  19.859  0.00  0.00    +0.000 C 
BRANCH  12  13
ATOM     13  N   UNL     1      -0.385  15.923  18.925  0.00  0.00    +0.000 NA
ATOM     14  C   UNL     1       0.773  16.042  18.769  0.00  0.00    +0.000 C 
ATOM     15  S   UNL     1       2.350  16.188  18.593  0.00  0.00    +0.000 S 
ENDBRANCH  12  13
ENDBRANCH  11  12
ENDBRANCH  10  11
ENDBRANCH   2   6
ENDBRANCH   1   2
BRANCH   1  16
ATOM     16  C   UNL     1       2.611   7.277  18.921  0.00  0.00    +0.000 C 
BRANCH  16  17
ATOM     17  N   UNL     1       2.944   5.964  18.387  0.00  0.00    +0.000 N 
ATOM     18  C   UNL     1       2.327   4.778  18.742  0.00  0.00    +0.000 A 
ATOM     19  C   UNL     1       1.309   4.496  19.669  0.00  0.00    +0.000 A 
ATOM     20  C   UNL     1       0.877   3.170  19.800  0.00  0.00    +0.000 A 
ATOM     21  C   UNL     1       1.442   2.156  19.036  0.00  0.00    +0.000 A 
ATOM     22  C   UNL     1       2.462   2.440  18.122  0.00  0.00    +0.000 A 
ATOM     23  C   UNL     1       2.915   3.770  17.974  0.00  0.00    +0.000 A 
ATOM     24  C   UNL     1       3.921   4.379  17.163  0.00  0.00    +0.000 A 
ATOM     25  C   UNL     1       4.842   3.876  16.217  0.00  0.00    +0.000 A 
ATOM     26  C   UNL     1       5.727   4.749  15.579  0.00  0.00    +0.000 A 
ATOM     27  C   UNL     1       5.709   6.110  15.871  0.00  0.00    +0.000 A 
ATOM     28  C   UNL     1       4.811   6.631  16.803  0.00  0.00    +0.000 A 
ATOM     29  C   UNL     1       3.925   5.745  17.439  0.00  0.00    +0.000 A 
ENDBRANCH  16  17
ENDBRANCH   1  16
TORSDOF 7
ENDMDL
