MODEL 1
REMARK VINA RESULT:      -7.3      0.000      0.000
REMARK  Name = 
REMARK  5 active torsions:
REMARK  status: ('A' for Active; 'I' for Inactive)
REMARK    1  A    between atoms: S_2  and  C_4
REMARK    2  A    between atoms: S_2  and  N_9
REMARK    3  A    between atoms: C_12  and  O_13
REMARK    4  A    between atoms: C_14  and  C_15
REMARK    5  A    between atoms: C_15  and  C_16
REMARK                            x       y       z     vdW  Elec       q    Type
REMARK                         _______ _______ _______ _____ _____    ______ ____
ROOT
ATOM      1  N   UNL     1       4.165   4.865  17.633  0.00  0.00    +0.000 NA
ATOM      2  C   UNL     1       4.668   5.469  18.914  0.00  0.00    +0.000 C 
ATOM      3  C   UNL     1       6.186   5.507  18.822  0.00  0.00    +0.000 C 
ATOM      4  C   UNL     1       6.540   4.436  17.814  0.00  0.00    +0.000 C 
ATOM      5  C   UNL     1       5.382   4.480  16.805  0.00  0.00    +0.000 C 
ENDROOT
BRANCH   1   7
ATOM      6  O   UNL     1       3.877   2.357  17.454  0.00  0.00    +0.000 OA
ATOM      7  S   UNL     1       3.125   3.530  17.842  0.00  0.00    +0.000 S 
ATOM      8  O   UNL     1       1.879   3.819  17.152  0.00  0.00    +0.000 OA
BRANCH   7   9
ATOM      9  C   UNL     1       2.653   3.227  19.514  0.00  0.00    +0.000 A 
ATOM     10  C   UNL     1       3.331   2.612  20.551  0.00  0.00    +0.000 A 
ATOM     11  C   UNL     1       2.520   2.445  21.708  0.00  0.00    +0.000 A 
ATOM     12  C   UNL     1       1.246   2.929  21.510  0.00  0.00    +0.000 A 
ATOM     13  S   UNL     1       1.045   3.603  19.948  0.00  0.00    +0.000 S 
ENDBRANCH   7   9
ENDBRANCH   1   7
BRANCH   4  14
ATOM     14  O   UNL     1       7.843   4.637  17.304  0.00  0.00    +0.000 OA
ATOM     15  H   UNL     1       8.498   4.218  17.889  0.00  0.00    +0.000 HD
ENDBRANCH   4  14
BRANCH   5  16
ATOM     16  C   UNL     1       5.498   5.438  15.602  0.00  0.00    +0.000 C 
BRANCH  16  17
ATOM     17  C   UNL     1       6.072   4.850  14.327  0.00  0.00    +0.000 A 
ATOM     18  C   UNL     1       7.315   5.229  13.807  0.00  0.00    +0.000 A 
ATOM     19  C   UNL     1       7.740   4.681  12.606  0.00  0.00    +0.000 A 
ATOM     20  N   UNL     1       7.037   3.764  11.910  0.00  0.00    +0.000 NA
ATOM     21  C   UNL     1       5.862   3.375  12.444  0.00  0.00    +0.000 A 
ATOM     22  C   UNL     1       5.349   3.874  13.632  0.00  0.00    +0.000 A 
ENDBRANCH  16  17
ENDBRANCH   5  16
TORSDOF 5
ENDMDL
MODEL 2
REMARK VINA RESULT:      -7.3      0.051      1.024
REMARK  Name = 
REMARK  5 active torsions:
REMARK  status: ('A' for Active; 'I' for Inactive)
REMARK    1  A    between atoms: S_2  and  C_4
REMARK    2  A    between atoms: S_2  and  N_9
REMARK    3  A    between atoms: C_12  and  O_13
REMARK    4  A    between atoms: C_14  and  C_15
REMARK    5  A    between atoms: C_15  and  C_16
REMARK                            x       y       z     vdW  Elec       q    Type
REMARK                         _______ _______ _______ _____ _____    ______ ____
ROOT
ATOM      1  N   UNL     1       4.176   4.863  17.640  0.00  0.00    +0.000 NA
ATOM      2  C   UNL     1       4.688   5.458  18.922  0.00  0.00    +0.000 C 
ATOM      3  C   UNL     1       6.206   5.481  18.826  0.00  0.00    +0.000 C 
ATOM      4  C   UNL     1       6.548   4.411  17.813  0.00  0.00    +0.000 C 
ATOM      5  C   UNL     1       5.387   4.469  16.808  0.00  0.00    +0.000 C 
ENDROOT
BRANCH   1   7
ATOM      6  O   UNL     1       3.867   2.357  17.460  0.00  0.00    +0.000 OA
ATOM      7  S   UNL     1       3.124   3.536  17.848  0.00  0.00    +0.000 S 
ATOM      8  O   UNL     1       1.882   3.837  17.156  0.00  0.00    +0.000 OA
BRANCH   7   9
ATOM      9  C   UNL     1       2.647   3.237  19.519  0.00  0.00    +0.000 A 
ATOM     10  C   UNL     1       3.319   2.616  20.557  0.00  0.00    +0.000 A 
ATOM     11  C   UNL     1       2.506   2.456  21.713  0.00  0.00    +0.000 A 
ATOM     12  C   UNL     1       1.235   2.951  21.513  0.00  0.00    +0.000 A 
ATOM     13  S   UNL     1       1.042   3.627  19.950  0.00  0.00    +0.000 S 
ENDBRANCH   7   9
ENDBRANCH   1   7
BRANCH   4  14
ATOM     14  O   UNL     1       7.852   4.601  17.302  0.00  0.00    +0.000 OA
ATOM     15  H   UNL     1       7.960   5.520  17.002  0.00  0.00    +0.000 HD
ENDBRANCH   4  14
BRANCH   5  16
ATOM     16  C   UNL     1       5.510   5.429  15.607  0.00  0.00    +0.000 C 
BRANCH  16  17
ATOM     17  C   UNL     1       5.996   4.820  14.306  0.00  0.00    +0.000 A 
ATOM     18  C   UNL     1       5.255   3.876  13.585  0.00  0.00    +0.000 A 
ATOM     19  C   UNL     1       5.799   3.329  12.432  0.00  0.00    +0.000 A 
ATOM     20  N   UNL     1       7.001   3.678  11.931  0.00  0.00    +0.000 NA
ATOM     21  C   UNL     1       7.685   4.621  12.611  0.00  0.00    +0.000 A 
ATOM     22  C   UNL     1       7.230   5.216  13.779  0.00  0.00    +0.000 A 
ENDBRANCH  16  17
ENDBRANCH   5  16
TORSDOF 5
ENDMDL
MODEL 3
REMARK VINA RESULT:      -6.5      2.660      6.647
REMARK  Name = 
REMARK  5 active torsions:
REMARK  status: ('A' for Active; 'I' for Inactive)
REMARK    1  A    between atoms: S_2  and  C_4
REMARK    2  A    between atoms: S_2  and  N_9
REMARK    3  A    between atoms: C_12  and  O_13
REMARK    4  A    between atoms: C_14  and  C_15
REMARK    5  A    between atoms: C_15  and  C_16
REMARK                            x       y       z     vdW  Elec       q    Type
REMARK                         _______ _______ _______ _____ _____    ______ ____
ROOT
ATOM      1  N   UNL     1       5.677   4.566  17.598  0.00  0.00    +0.000 NA
ATOM      2  C   UNL     1       5.818   5.172  18.966  0.00  0.00    +0.000 C 
ATOM      3  C   UNL     1       4.513   5.892  19.271  0.00  0.00    +0.000 C 
ATOM      4  C   UNL     1       3.908   6.187  17.916  0.00  0.00    +0.000 C 
ATOM      5  C   UNL     1       4.316   4.980  17.058  0.00  0.00    +0.000 C 
ENDROOT
BRANCH   1   7
ATOM      6  O   UNL     1       8.081   4.214  16.887  0.00  0.00    +0.000 OA
ATOM      7  S   UNL     1       6.918   4.987  16.507  0.00  0.00    +0.000 S 
ATOM      8  O   UNL     1       7.022   6.436  16.484  0.00  0.00    +0.000 OA
BRANCH   7   9
ATOM      9  C   UNL     1       6.603   4.532  14.833  0.00  0.00    +0.000 A 
ATOM     10  C   UNL     1       5.704   3.630  14.292  0.00  0.00    +0.000 A 
ATOM     11  C   UNL     1       5.882   3.459  12.891  0.00  0.00    +0.000 A 
ATOM     12  C   UNL     1       6.920   4.229  12.412  0.00  0.00    +0.000 A 
ATOM     13  S   UNL     1       7.651   5.169  13.645  0.00  0.00    +0.000 S 
ENDBRANCH   7   9
ENDBRANCH   1   7
BRANCH   4  14
ATOM     14  O   UNL     1       2.525   6.455  18.032  0.00  0.00    +0.000 OA
ATOM     15  H   UNL     1       2.220   6.247  18.933  0.00  0.00    +0.000 HD
ENDBRANCH   4  14
BRANCH   5  16
ATOM     16  C   UNL     1       3.384   3.751  17.036  0.00  0.00    +0.000 C 
BRANCH  16  17
ATOM     17  C   UNL     1       2.696   3.406  18.342  0.00  0.00    +0.000 A 
ATOM     18  C   UNL     1       1.356   3.719  18.600  0.00  0.00    +0.000 A 
ATOM     19  C   UNL     1       0.819   3.416  19.844  0.00  0.00    +0.000 A 
ATOM     20  N   UNL     1       1.506   2.798  20.826  0.00  0.00    +0.000 NA
ATOM     21  C   UNL     1       2.783   2.463  20.549  0.00  0.00    +0.000 A 
ATOM     22  C   UNL     1       3.409   2.735  19.341  0.00  0.00    +0.000 A 
ENDBRANCH  16  17
ENDBRANCH   5  16
TORSDOF 5
ENDMDL
MODEL 4
REMARK VINA RESULT:      -6.5      2.879      6.472
REMARK  Name = 
REMARK  5 active torsions:
REMARK  status: ('A' for Active; 'I' for Inactive)
REMARK    1  A    between atoms: S_2  and  C_4
REMARK    2  A    between atoms: S_2  and  N_9
REMARK    3  A    between atoms: C_12  and  O_13
REMARK    4  A    between atoms: C_14  and  C_15
REMARK    5  A    between atoms: C_15  and  C_16
REMARK                            x       y       z     vdW  Elec       q    Type
REMARK                         _______ _______ _______ _____ _____    ______ ____
ROOT
ATOM      1  N   UNL     1       3.158   4.058  19.144  0.00  0.00    +0.000 NA
ATOM      2  C   UNL     1       2.639   2.734  18.659  0.00  0.00    +0.000 C 
ATOM      3  C   UNL     1       1.821   2.134  19.793  0.00  0.00    +0.000 C 
ATOM      4  C   UNL     1       2.350   2.796  21.046  0.00  0.00    +0.000 C 
ATOM      5  C   UNL     1       2.708   4.219  20.589  0.00  0.00    +0.000 C 
ENDROOT
BRANCH   1   7
ATOM      6  O   UNL     1       5.438   3.000  19.446  0.00  0.00    +0.000 OA
ATOM      7  S   UNL     1       4.848   4.247  19.010  0.00  0.00    +0.000 S 
ATOM      8  O   UNL     1       5.218   5.472  19.698  0.00  0.00    +0.000 OA
BRANCH   7   9
ATOM      9  C   UNL     1       5.428   4.465  17.359  0.00  0.00    +0.000 A 
ATOM     10  C   UNL     1       4.771   4.365  16.145  0.00  0.00    +0.000 A 
ATOM     11  C   UNL     1       5.656   4.475  15.037  0.00  0.00    +0.000 A 
ATOM     12  C   UNL     1       6.962   4.645  15.443  0.00  0.00    +0.000 A 
ATOM     13  S   UNL     1       7.107   4.697  17.150  0.00  0.00    +0.000 S 
ENDBRANCH   7   9
ENDBRANCH   1   7
BRANCH   4  14
ATOM     14  O   UNL     1       1.424   2.676  22.107  0.00  0.00    +0.000 OA
ATOM     15  H   UNL     1       0.796   3.419  22.086  0.00  0.00    +0.000 HD
ENDBRANCH   4  14
BRANCH   5  16
ATOM     16  C   UNL     1       1.615   5.305  20.660  0.00  0.00    +0.000 C 
BRANCH  16  17
ATOM     17  C   UNL     1       1.831   6.535  19.800  0.00  0.00    +0.000 A 
ATOM     18  C   UNL     1       2.235   6.465  18.461  0.00  0.00    +0.000 A 
ATOM     19  C   UNL     1       2.463   7.642  17.763  0.00  0.00    +0.000 A 
ATOM     20  N   UNL     1       2.285   8.871  18.287  0.00  0.00    +0.000 NA
ATOM     21  C   UNL     1       1.854   8.924  19.564  0.00  0.00    +0.000 A 
ATOM     22  C   UNL     1       1.610   7.804  20.346  0.00  0.00    +0.000 A 
ENDBRANCH  16  17
ENDBRANCH   5  16
TORSDOF 5
ENDMDL
MODEL 5
REMARK VINA RESULT:      -6.5      2.675      6.836
REMARK  Name = 
REMARK  5 active torsions:
REMARK  status: ('A' for Active; 'I' for Inactive)
REMARK    1  A    between atoms: S_2  and  C_4
REMARK    2  A    between atoms: S_2  and  N_9
REMARK    3  A    between atoms: C_12  and  O_13
REMARK    4  A    between atoms: C_14  and  C_15
REMARK    5  A    between atoms: C_15  and  C_16
REMARK                            x       y       z     vdW  Elec       q    Type
REMARK                         _______ _______ _______ _____ _____    ______ ____
ROOT
ATOM      1  N   UNL     1       6.081   4.585  16.960  0.00  0.00    +0.000 NA
ATOM      2  C   UNL     1       7.103   4.768  18.046  0.00  0.00    +0.000 C 
ATOM      3  C   UNL     1       6.342   5.072  19.328  0.00  0.00    +0.000 C 
ATOM      4  C   UNL     1       5.012   5.625  18.866  0.00  0.00    +0.000 C 
ATOM      5  C   UNL     1       4.714   4.846  17.575  0.00  0.00    +0.000 C 
ENDROOT
BRANCH   1   7
ATOM      6  O   UNL     1       7.678   6.073  15.679  0.00  0.00    +0.000 OA
ATOM      7  S   UNL     1       6.326   5.565  15.586  0.00  0.00    +0.000 S 
ATOM      8  O   UNL     1       5.228   6.514  15.511  0.00  0.00    +0.000 OA
BRANCH   7   9
ATOM      9  C   UNL     1       6.277   4.697  14.052  0.00  0.00    +0.000 A 
ATOM     10  C   UNL     1       5.381   3.761  13.568  0.00  0.00    +0.000 A 
ATOM     11  C   UNL     1       5.798   3.199  12.329  0.00  0.00    +0.000 A 
ATOM     12  C   UNL     1       7.005   3.718  11.915  0.00  0.00    +0.000 A 
ATOM     13  S   UNL     1       7.611   4.895  13.005  0.00  0.00    +0.000 S 
ENDBRANCH   7   9
ENDBRANCH   1   7
BRANCH   4  14
ATOM     14  O   UNL     1       4.050   5.548  19.899  0.00  0.00    +0.000 OA
ATOM     15  H   UNL     1       4.288   6.155  20.621  0.00  0.00    +0.000 HD
ENDBRANCH   4  14
BRANCH   5  16
ATOM     16  C   UNL     1       3.947   3.513  17.689  0.00  0.00    +0.000 C 
BRANCH  16  17
ATOM     17  C   UNL     1       2.967   3.396  18.840  0.00  0.00    +0.000 A 
ATOM     18  C   UNL     1       1.693   3.977  18.816  0.00  0.00    +0.000 A 
ATOM     19  C   UNL     1       0.880   3.868  19.935  0.00  0.00    +0.000 A 
ATOM     20  N   UNL     1       1.229   3.197  21.052  0.00  0.00    +0.000 NA
ATOM     21  C   UNL     1       2.440   2.605  21.045  0.00  0.00    +0.000 A 
ATOM     22  C   UNL     1       3.327   2.669  19.979  0.00  0.00    +0.000 A 
ENDBRANCH  16  17
ENDBRANCH   5  16
TORSDOF 5
ENDMDL
MODEL 6
REMARK VINA RESULT:      -6.5      2.765      6.641
REMARK  Name = 
REMARK  5 active torsions:
REMARK  status: ('A' for Active; 'I' for Inactive)
REMARK    1  A    between atoms: S_2  and  C_4
REMARK    2  A    between atoms: S_2  and  N_9
REMARK    3  A    between atoms: C_12  and  O_13
REMARK    4  A    between atoms: C_14  and  C_15
REMARK    5  A    between atoms: C_15  and  C_16
REMARK                            x       y       z     vdW  Elec       q    Type
REMARK                         _______ _______ _______ _____ _____    ______ ____
ROOT
ATOM      1  N   UNL     1       6.447   4.640  17.013  0.00  0.00    +0.000 NA
ATOM      2  C   UNL     1       7.473   4.990  18.053  0.00  0.00    +0.000 C 
ATOM      3  C   UNL     1       6.728   5.194  19.364  0.00  0.00    +0.000 C 
ATOM      4  C   UNL     1       5.312   5.535  18.955  0.00  0.00    +0.000 C 
ATOM      5  C   UNL     1       5.082   4.701  17.685  0.00  0.00    +0.000 C 
ENDROOT
BRANCH   1   7
ATOM      6  O   UNL     1       7.784   6.262  15.603  0.00  0.00    +0.000 OA
ATOM      7  S   UNL     1       6.484   5.627  15.623  0.00  0.00    +0.000 S 
ATOM      8  O   UNL     1       5.299   6.466  15.636  0.00  0.00    +0.000 OA
BRANCH   7   9
ATOM      9  C   UNL     1       6.394   4.744  14.099  0.00  0.00    +0.000 A 
ATOM     10  C   UNL     1       5.512   3.770  13.666  0.00  0.00    +0.000 A 
ATOM     11  C   UNL     1       5.889   3.213  12.412  0.00  0.00    +0.000 A 
ATOM     12  C   UNL     1       7.053   3.774  11.936  0.00  0.00    +0.000 A 
ATOM     13  S   UNL     1       7.666   4.982  12.986  0.00  0.00    +0.000 S 
ENDBRANCH   7   9
ENDBRANCH   1   7
BRANCH   4  14
ATOM     14  O   UNL     1       4.416   5.329  20.029  0.00  0.00    +0.000 OA
ATOM     15  H   UNL     1       4.697   4.560  20.554  0.00  0.00    +0.000 HD
ENDBRANCH   4  14
BRANCH   5  16
ATOM     16  C   UNL     1       4.531   3.270  17.841  0.00  0.00    +0.000 C 
BRANCH  16  17
ATOM     17  C   UNL     1       3.170   3.141  18.496  0.00  0.00    +0.000 A 
ATOM     18  C   UNL     1       2.974   2.496  19.723  0.00  0.00    +0.000 A 
ATOM     19  C   UNL     1       1.686   2.375  20.224  0.00  0.00    +0.000 A 
ATOM     20  N   UNL     1       0.594   2.878  19.614  0.00  0.00    +0.000 NA
ATOM     21  C   UNL     1       0.801   3.536  18.455  0.00  0.00    +0.000 A 
ATOM     22  C   UNL     1       2.049   3.697  17.870  0.00  0.00    +0.000 A 
ENDBRANCH  16  17
ENDBRANCH   5  16
TORSDOF 5
ENDMDL
MODEL 7
REMARK VINA RESULT:      -6.5      1.027      1.684
REMARK  Name = 
REMARK  5 active torsions:
REMARK  status: ('A' for Active; 'I' for Inactive)
REMARK    1  A    between atoms: S_2  and  C_4
REMARK    2  A    between atoms: S_2  and  N_9
REMARK    3  A    between atoms: C_12  and  O_13
REMARK    4  A    between atoms: C_14  and  C_15
REMARK    5  A    between atoms: C_15  and  C_16
REMARK                            x       y       z     vdW  Elec       q    Type
REMARK                         _______ _______ _______ _____ _____    ______ ____
ROOT
ATOM      1  N   UNL     1       4.832   4.451  18.109  0.00  0.00    +0.000 NA
ATOM      2  C   UNL     1       5.556   5.243  19.161  0.00  0.00    +0.000 C 
ATOM      3  C   UNL     1       6.945   5.541  18.618  0.00  0.00    +0.000 C 
ATOM      4  C   UNL     1       7.195   4.466  17.583  0.00  0.00    +0.000 C 
ATOM      5  C   UNL     1       5.810   4.217  16.966  0.00  0.00    +0.000 C 
ENDROOT
BRANCH   1   7
ATOM      6  O   UNL     1       5.142   2.416  19.582  0.00  0.00    +0.000 OA
ATOM      7  S   UNL     1       4.177   2.976  18.660  0.00  0.00    +0.000 S 
ATOM      8  O   UNL     1       3.790   2.196  17.497  0.00  0.00    +0.000 OA
BRANCH   7   9
ATOM      9  C   UNL     1       2.697   3.142  19.604  0.00  0.00    +0.000 A 
ATOM     10  C   UNL     1       1.503   3.778  19.315  0.00  0.00    +0.000 A 
ATOM     11  C   UNL     1       0.614   3.797  20.425  0.00  0.00    +0.000 A 
ATOM     12  C   UNL     1       1.165   3.183  21.528  0.00  0.00    +0.000 A 
ATOM     13  S   UNL     1       2.733   2.567  21.211  0.00  0.00    +0.000 S 
ENDBRANCH   7   9
ENDBRANCH   1   7
BRANCH   4  14
ATOM     14  O   UNL     1       8.231   4.850  16.701  0.00  0.00    +0.000 OA
ATOM     15  H   UNL     1       8.691   5.633  17.049  0.00  0.00    +0.000 HD
ENDBRANCH   4  14
BRANCH   5  16
ATOM     16  C   UNL     1       5.386   5.072  15.754  0.00  0.00    +0.000 C 
BRANCH  16  17
ATOM     17  C   UNL     1       5.912   4.631  14.403  0.00  0.00    +0.000 A 
ATOM     18  C   UNL     1       5.247   3.701  13.594  0.00  0.00    +0.000 A 
ATOM     19  C   UNL     1       5.826   3.312  12.396  0.00  0.00    +0.000 A 
ATOM     20  N   UNL     1       6.993   3.804  11.932  0.00  0.00    +0.000 NA
ATOM     21  C   UNL     1       7.601   4.732  12.700  0.00  0.00    +0.000 A 
ATOM     22  C   UNL     1       7.106   5.175  13.917  0.00  0.00    +0.000 A 
ENDBRANCH  16  17
ENDBRANCH   5  16
TORSDOF 5
ENDMDL
MODEL 8
REMARK VINA RESULT:      -6.5      2.666      6.604
REMARK  Name = 
REMARK  5 active torsions:
REMARK  status: ('A' for Active; 'I' for Inactive)
REMARK    1  A    between atoms: S_2  and  C_4
REMARK    2  A    between atoms: S_2  and  N_9
REMARK    3  A    between atoms: C_12  and  O_13
REMARK    4  A    between atoms: C_14  and  C_15
REMARK    5  A    between atoms: C_15  and  C_16
REMARK                            x       y       z     vdW  Elec       q    Type
REMARK                         _______ _______ _______ _____ _____    ______ ____
ROOT
ATOM      1  N   UNL     1       5.695   4.573  17.562  0.00  0.00    +0.000 NA
ATOM      2  C   UNL     1       5.853   5.161  18.936  0.00  0.00    +0.000 C 
ATOM      3  C   UNL     1       4.556   5.887  19.261  0.00  0.00    +0.000 C 
ATOM      4  C   UNL     1       3.941   6.203  17.916  0.00  0.00    +0.000 C 
ATOM      5  C   UNL     1       4.332   5.004  17.039  0.00  0.00    +0.000 C 
ENDROOT
BRANCH   1   7
ATOM      6  O   UNL     1       8.095   4.228  16.838  0.00  0.00    +0.000 OA
ATOM      7  S   UNL     1       6.929   4.998  16.465  0.00  0.00    +0.000 S 
ATOM      8  O   UNL     1       7.029   6.447  16.442  0.00  0.00    +0.000 OA
BRANCH   7   9
ATOM      9  C   UNL     1       6.607   4.544  14.792  0.00  0.00    +0.000 A 
ATOM     10  C   UNL     1       5.681   3.668  14.252  0.00  0.00    +0.000 A 
ATOM     11  C   UNL     1       5.860   3.483  12.852  0.00  0.00    +0.000 A 
ATOM     12  C   UNL     1       6.923   4.216  12.374  0.00  0.00    +0.000 A 
ATOM     13  S   UNL     1       7.679   5.139  13.605  0.00  0.00    +0.000 S 
ENDBRANCH   7   9
ENDBRANCH   1   7
BRANCH   4  14
ATOM     14  O   UNL     1       2.561   6.480  18.048  0.00  0.00    +0.000 OA
ATOM     15  H   UNL     1       2.425   7.193  18.695  0.00  0.00    +0.000 HD
ENDBRANCH   4  14
BRANCH   5  16
ATOM     16  C   UNL     1       3.391   3.782  17.011  0.00  0.00    +0.000 C 
BRANCH  16  17
ATOM     17  C   UNL     1       2.756   3.393  18.331  0.00  0.00    +0.000 A 
ATOM     18  C   UNL     1       3.462   2.750  19.355  0.00  0.00    +0.000 A 
ATOM     19  C   UNL     1       2.790   2.379  20.510  0.00  0.00    +0.000 A 
ATOM     20  N   UNL     1       1.484   2.632  20.731  0.00  0.00    +0.000 NA
ATOM     21  C   UNL     1       0.825   3.291  19.756  0.00  0.00    +0.000 A 
ATOM     22  C   UNL     1       1.409   3.692  18.563  0.00  0.00    +0.000 A 
ENDBRANCH  16  17
ENDBRANCH   5  16
TORSDOF 5
ENDMDL
MODEL 9
REMARK VINA RESULT:      -6.4      3.534      6.549
REMARK  Name = 
REMARK  5 active torsions:
REMARK  status: ('A' for Active; 'I' for Inactive)
REMARK    1  A    between atoms: S_2  and  C_4
REMARK    2  A    between atoms: S_2  and  N_9
REMARK    3  A    between atoms: C_12  and  O_13
REMARK    4  A    between atoms: C_14  and  C_15
REMARK    5  A    between atoms: C_15  and  C_16
REMARK                            x       y       z     vdW  Elec       q    Type
REMARK                         _______ _______ _______ _____ _____    ______ ____
ROOT
ATOM      1  N   UNL     1       4.001   4.938  16.961  0.00  0.00    +0.000 NA
ATOM      2  C   UNL     1       4.051   3.512  17.430  0.00  0.00    +0.000 C 
ATOM      3  C   UNL     1       3.649   3.510  18.897  0.00  0.00    +0.000 C 
ATOM      4  C   UNL     1       3.944   4.913  19.381  0.00  0.00    +0.000 C 
ATOM      5  C   UNL     1       3.635   5.798  18.162  0.00  0.00    +0.000 C 
ENDROOT
BRANCH   1   7
ATOM      6  O   UNL     1       5.112   6.736  15.567  0.00  0.00    +0.000 OA
ATOM      7  S   UNL     1       5.440   5.494  16.232  0.00  0.00    +0.000 S 
ATOM      8  O   UNL     1       5.992   4.406  15.444  0.00  0.00    +0.000 OA
BRANCH   7   9
ATOM      9  C   UNL     1       6.718   5.918  17.371  0.00  0.00    +0.000 A 
ATOM     10  C   UNL     1       7.295   5.193  18.398  0.00  0.00    +0.000 A 
ATOM     11  C   UNL     1       8.199   5.972  19.173  0.00  0.00    +0.000 A 
ATOM     12  C   UNL     1       8.272   7.270  18.716  0.00  0.00    +0.000 A 
ATOM     13  S   UNL     1       7.276   7.531  17.347  0.00  0.00    +0.000 S 
ENDBRANCH   7   9
ENDBRANCH   1   7
BRANCH   4  14
ATOM     14  O   UNL     1       3.237   5.192  20.572  0.00  0.00    +0.000 OA
ATOM     15  H   UNL     1       3.322   6.135  20.797  0.00  0.00    +0.000 HD
ENDBRANCH   4  14
BRANCH   5  16
ATOM     16  C   UNL     1       2.196   6.324  17.989  0.00  0.00    +0.000 C 
BRANCH  16  17
ATOM     17  C   UNL     1       1.924   7.721  18.510  0.00  0.00    +0.000 A 
ATOM     18  C   UNL     1       1.561   7.980  19.838  0.00  0.00    +0.000 A 
ATOM     19  C   UNL     1       1.275   9.283  20.218  0.00  0.00    +0.000 A 
ATOM     20  N   UNL     1       1.359  10.342  19.388  0.00  0.00    +0.000 NA
ATOM     21  C   UNL     1       1.753  10.085  18.124  0.00  0.00    +0.000 A 
ATOM     22  C   UNL     1       2.048   8.816  17.648  0.00  0.00    +0.000 A 
ENDBRANCH  16  17
ENDBRANCH   5  16
TORSDOF 5
ENDMDL
