MODEL 1
REMARK VINA RESULT:      -7.3      0.000      0.000
REMARK  Name = 
REMARK  7 active torsions:
REMARK  status: ('A' for Active; 'I' for Inactive)
REMARK    1  A    between atoms: C_2  and  C_3
REMARK    2  A    between atoms: C_3  and  N_4
REMARK    3  A    between atoms: C_5  and  C_6
REMARK    4  A    between atoms: N_17  and  C_18
REMARK    5  A    between atoms: C_19  and  C_20
REMARK    6  A    between atoms: N_21  and  C_22
REMARK    7  A    between atoms: N_23  and  C_24
REMARK                            x       y       z     vdW  Elec       q    Type
REMARK                         _______ _______ _______ _____ _____    ______ ____
ROOT
ATOM      1  N   UNL     1       1.359   9.045  20.328  0.00  0.00    +0.000 N 
ATOM      2  C   UNL     1       1.096  10.153  19.499  0.00  0.00    +0.000 A 
ATOM      3  C   UNL     1       1.240   9.929  18.183  0.00  0.00    +0.000 A 
ATOM      4  S   UNL     1       1.627   8.268  17.865  0.00  0.00    +0.000 S 
ATOM      5  C   UNL     1       1.784   7.902  19.634  0.00  0.00    +0.000 A 
ATOM      6  N   UNL     1       2.200   6.775  20.146  0.00  0.00    +0.000 NA
ENDROOT
BRANCH   2   7
ATOM      7  C   UNL     1       0.707  11.485  19.989  0.00  0.00    +0.000 A 
ATOM      8  C   UNL     1       1.689  12.316  20.557  0.00  0.00    +0.000 A 
ATOM      9  C   UNL     1       1.359  13.585  21.042  0.00  0.00    +0.000 A 
ATOM     10  C   UNL     1       0.054  14.054  20.919  0.00  0.00    +0.000 A 
ATOM     11 CL   UNL     1      -0.351  15.617  21.512  0.00  0.00    +0.000 Cl
ATOM     12  C   UNL     1      -0.924  13.269  20.316  0.00  0.00    +0.000 A 
ATOM     13  C   UNL     1      -0.600  11.988  19.855  0.00  0.00    +0.000 A 
ATOM     14 CL   UNL     1      -1.858  11.064  19.108  0.00  0.00    +0.000 Cl
ENDBRANCH   2   7
BRANCH   6  15
ATOM     15  C   UNL     1       2.681   5.816  19.287  0.00  0.00    +0.000 A 
ATOM     16  C   UNL     1       2.246   4.566  19.011  0.00  0.00    +0.000 A 
ATOM     17  C   UNL     1       1.181   3.835  19.752  0.00  0.00    +0.000 C 
ATOM     18  N   UNL     1       2.942   3.978  17.940  0.00  0.00    +0.000 N 
ATOM     19  C   UNL     1       3.172   2.538  17.805  0.00  0.00    +0.000 C 
ATOM     20  N   UNL     1       4.057   4.806  17.718  0.00  0.00    +0.000 N 
ATOM     21  C   UNL     1       4.021   5.882  18.593  0.00  0.00    +0.000 A 
ATOM     22  O   UNL     1       4.864   6.746  18.790  0.00  0.00    +0.000 OA
BRANCH  20  23
ATOM     23  C   UNL     1       4.994   4.608  16.696  0.00  0.00    +0.000 A 
ATOM     24  C   UNL     1       6.351   4.518  17.020  0.00  0.00    +0.000 A 
ATOM     25  C   UNL     1       7.304   4.304  16.025  0.00  0.00    +0.000 A 
ATOM     26  C   UNL     1       6.906   4.234  14.690  0.00  0.00    +0.000 A 
ATOM     27  C   UNL     1       5.558   4.363  14.354  0.00  0.00    +0.000 A 
ATOM     28  C   UNL     1       4.600   4.527  15.357  0.00  0.00    +0.000 A 
ENDBRANCH  20  23
ENDBRANCH   6  15
BRANCH   1  29
ATOM     29  C   UNL     1       1.142   9.003  21.767  0.00  0.00    +0.000 C 
BRANCH  29  31
ATOM     30  C   UNL     1      -0.805   9.972  23.055  0.00  0.00    +0.000 C 
ATOM     31  C   UNL     1      -0.311   9.179  22.094  0.00  0.00    +0.000 C 
ENDBRANCH  29  31
ENDBRANCH   1  29
TORSDOF 5
ENDMDL
MODEL 2
REMARK VINA RESULT:      -6.6      1.102      1.339
REMARK  Name = 
REMARK  7 active torsions:
REMARK  status: ('A' for Active; 'I' for Inactive)
REMARK    1  A    between atoms: C_2  and  C_3
REMARK    2  A    between atoms: C_3  and  N_4
REMARK    3  A    between atoms: C_5  and  C_6
REMARK    4  A    between atoms: N_17  and  C_18
REMARK    5  A    between atoms: C_19  and  C_20
REMARK    6  A    between atoms: N_21  and  C_22
REMARK    7  A    between atoms: N_23  and  C_24
REMARK                            x       y       z     vdW  Elec       q    Type
REMARK                         _______ _______ _______ _____ _____    ______ ____
ROOT
ATOM      1  N   UNL     1       1.228   9.273  20.052  0.00  0.00    +0.000 N 
ATOM      2  C   UNL     1       0.679  10.156  19.101  0.00  0.00    +0.000 A 
ATOM      3  C   UNL     1       0.669   9.701  17.838  0.00  0.00    +0.000 A 
ATOM      4  S   UNL     1       1.263   8.074  17.748  0.00  0.00    +0.000 S 
ATOM      5  C   UNL     1       1.725   8.081  19.502  0.00  0.00    +0.000 A 
ATOM      6  N   UNL     1       2.380   7.137  20.122  0.00  0.00    +0.000 NA
ENDROOT
BRANCH   2   7
ATOM      7  C   UNL     1       0.159  11.496  19.414  0.00  0.00    +0.000 A 
ATOM      8  C   UNL     1      -1.121  11.616  19.983  0.00  0.00    +0.000 A 
ATOM      9  C   UNL     1      -1.654  12.872  20.287  0.00  0.00    +0.000 A 
ATOM     10  C   UNL     1      -0.893  14.017  20.070  0.00  0.00    +0.000 A 
ATOM     11 CL   UNL     1      -1.548  15.562  20.448  0.00  0.00    +0.000 Cl
ATOM     12  C   UNL     1       0.395  13.920  19.553  0.00  0.00    +0.000 A 
ATOM     13  C   UNL     1       0.919  12.664  19.223  0.00  0.00    +0.000 A 
ATOM     14 CL   UNL     1       2.529  12.610  18.591  0.00  0.00    +0.000 Cl
ENDBRANCH   2   7
BRANCH   6  15
ATOM     15  C   UNL     1       2.880   6.099  19.371  0.00  0.00    +0.000 A 
ATOM     16  C   UNL     1       2.561   4.786  19.341  0.00  0.00    +0.000 A 
ATOM     17  C   UNL     1       1.660   4.090  20.300  0.00  0.00    +0.000 C 
ATOM     18  N   UNL     1       3.212   4.099  18.301  0.00  0.00    +0.000 N 
ATOM     19  C   UNL     1       3.585   2.683  18.363  0.00  0.00    +0.000 C 
ATOM     20  N   UNL     1       4.202   4.979  17.831  0.00  0.00    +0.000 N 
ATOM     21  C   UNL     1       4.131   6.176  18.529  0.00  0.00    +0.000 A 
ATOM     22  O   UNL     1       4.888   7.136  18.495  0.00  0.00    +0.000 OA
BRANCH  20  23
ATOM     23  C   UNL     1       5.052   4.705  16.753  0.00  0.00    +0.000 A 
ATOM     24  C   UNL     1       6.431   4.637  16.969  0.00  0.00    +0.000 A 
ATOM     25  C   UNL     1       7.300   4.349  15.917  0.00  0.00    +0.000 A 
ATOM     26  C   UNL     1       6.794   4.182  14.627  0.00  0.00    +0.000 A 
ATOM     27  C   UNL     1       5.422   4.289  14.396  0.00  0.00    +0.000 A 
ATOM     28  C   UNL     1       4.549   4.527  15.460  0.00  0.00    +0.000 A 
ENDBRANCH  20  23
ENDBRANCH   6  15
BRANCH   1  29
ATOM     29  C   UNL     1       1.225   9.482  21.492  0.00  0.00    +0.000 C 
BRANCH  29  31
ATOM     30  C   UNL     1      -0.702   9.625  23.120  0.00  0.00    +0.000 C 
ATOM     31  C   UNL     1      -0.072   9.034  22.096  0.00  0.00    +0.000 C 
ENDBRANCH  29  31
ENDBRANCH   1  29
TORSDOF 5
ENDMDL
MODEL 3
REMARK VINA RESULT:      -6.5      7.161      8.799
REMARK  Name = 
REMARK  7 active torsions:
REMARK  status: ('A' for Active; 'I' for Inactive)
REMARK    1  A    between atoms: C_2  and  C_3
REMARK    2  A    between atoms: C_3  and  N_4
REMARK    3  A    between atoms: C_5  and  C_6
REMARK    4  A    between atoms: N_17  and  C_18
REMARK    5  A    between atoms: C_19  and  C_20
REMARK    6  A    between atoms: N_21  and  C_22
REMARK    7  A    between atoms: N_23  and  C_24
REMARK                            x       y       z     vdW  Elec       q    Type
REMARK                         _______ _______ _______ _____ _____    ______ ____
ROOT
ATOM      1  N   UNL     1       3.362  14.978  18.989  0.00  0.00    +0.000 N 
ATOM      2  C   UNL     1       2.733  14.531  20.168  0.00  0.00    +0.000 A 
ATOM      3  C   UNL     1       3.557  14.303  21.203  0.00  0.00    +0.000 A 
ATOM      4  S   UNL     1       5.194  14.726  20.813  0.00  0.00    +0.000 S 
ATOM      5  C   UNL     1       4.760  15.056  19.083  0.00  0.00    +0.000 A 
ATOM      6  N   UNL     1       5.603  15.332  18.124  0.00  0.00    +0.000 NA
ENDROOT
BRANCH   2   7
ATOM      7  C   UNL     1       1.288  14.296  20.302  0.00  0.00    +0.000 A 
ATOM      8  C   UNL     1       0.495  15.267  20.941  0.00  0.00    +0.000 A 
ATOM      9  C   UNL     1      -0.881  15.078  21.096  0.00  0.00    +0.000 A 
ATOM     10  C   UNL     1      -1.487  13.939  20.571  0.00  0.00    +0.000 A 
ATOM     11 CL   UNL     1      -3.181  13.709  20.758  0.00  0.00    +0.000 Cl
ATOM     12  C   UNL     1      -0.730  12.989  19.892  0.00  0.00    +0.000 A 
ATOM     13  C   UNL     1       0.652  13.164  19.760  0.00  0.00    +0.000 A 
ATOM     14 CL   UNL     1       1.535  11.950  18.899  0.00  0.00    +0.000 Cl
ENDBRANCH   2   7
BRANCH   6  15
ATOM     15  C   UNL     1       6.946  15.245  18.403  0.00  0.00    +0.000 A 
ATOM     16  C   UNL     1       7.831  16.175  18.826  0.00  0.00    +0.000 A 
ATOM     17  C   UNL     1       7.571  17.638  18.924  0.00  0.00    +0.000 C 
ATOM     18  N   UNL     1       9.083  15.621  19.144  0.00  0.00    +0.000 N 
ATOM     19  C   UNL     1      10.353  16.340  19.015  0.00  0.00    +0.000 C 
ATOM     20  N   UNL     1       9.057  14.313  18.628  0.00  0.00    +0.000 N 
ATOM     21  C   UNL     1       7.820  14.064  18.052  0.00  0.00    +0.000 A 
ATOM     22  O   UNL     1       7.452  13.096  17.400  0.00  0.00    +0.000 OA
BRANCH  20  23
ATOM     23  C   UNL     1      10.098  13.388  18.773  0.00  0.00    +0.000 A 
ATOM     24  C   UNL     1      10.780  12.941  17.638  0.00  0.00    +0.000 A 
ATOM     25  C   UNL     1      11.832  12.033  17.756  0.00  0.00    +0.000 A 
ATOM     26  C   UNL     1      12.170  11.524  19.010  0.00  0.00    +0.000 A 
ATOM     27  C   UNL     1      11.468  11.935  20.144  0.00  0.00    +0.000 A 
ATOM     28  C   UNL     1      10.448  12.882  20.030  0.00  0.00    +0.000 A 
ENDBRANCH  20  23
ENDBRANCH   6  15
BRANCH   1  29
ATOM     29  C   UNL     1       2.672  15.419  17.786  0.00  0.00    +0.000 C 
BRANCH  29  31
ATOM     30  C   UNL     1       1.453  17.569  18.317  0.00  0.00    +0.000 C 
ATOM     31  C   UNL     1       2.492  16.908  17.787  0.00  0.00    +0.000 C 
ENDBRANCH  29  31
ENDBRANCH   1  29
TORSDOF 5
ENDMDL
MODEL 4
REMARK VINA RESULT:      -6.5      7.089      8.900
REMARK  Name = 
REMARK  7 active torsions:
REMARK  status: ('A' for Active; 'I' for Inactive)
REMARK    1  A    between atoms: C_2  and  C_3
REMARK    2  A    between atoms: C_3  and  N_4
REMARK    3  A    between atoms: C_5  and  C_6
REMARK    4  A    between atoms: N_17  and  C_18
REMARK    5  A    between atoms: C_19  and  C_20
REMARK    6  A    between atoms: N_21  and  C_22
REMARK    7  A    between atoms: N_23  and  C_24
REMARK                            x       y       z     vdW  Elec       q    Type
REMARK                         _______ _______ _______ _____ _____    ______ ____
ROOT
ATOM      1  N   UNL     1       3.358  14.992  19.011  0.00  0.00    +0.000 N 
ATOM      2  C   UNL     1       2.736  14.517  20.183  0.00  0.00    +0.000 A 
ATOM      3  C   UNL     1       3.564  14.269  21.209  0.00  0.00    +0.000 A 
ATOM      4  S   UNL     1       5.198  14.706  20.822  0.00  0.00    +0.000 S 
ATOM      5  C   UNL     1       4.756  15.072  19.101  0.00  0.00    +0.000 A 
ATOM      6  N   UNL     1       5.594  15.370  18.144  0.00  0.00    +0.000 NA
ENDROOT
BRANCH   2   7
ATOM      7  C   UNL     1       1.291  14.275  20.317  0.00  0.00    +0.000 A 
ATOM      8  C   UNL     1       0.781  13.001  20.010  0.00  0.00    +0.000 A 
ATOM      9  C   UNL     1      -0.587  12.734  20.117  0.00  0.00    +0.000 A 
ATOM     10  C   UNL     1      -1.452  13.723  20.578  0.00  0.00    +0.000 A 
ATOM     11 CL   UNL     1      -3.134  13.392  20.713  0.00  0.00    +0.000 Cl
ATOM     12  C   UNL     1      -0.962  14.976  20.935  0.00  0.00    +0.000 A 
ATOM     13  C   UNL     1       0.403  15.253  20.802  0.00  0.00    +0.000 A 
ATOM     14 CL   UNL     1       0.950  16.827  21.269  0.00  0.00    +0.000 Cl
ENDBRANCH   2   7
BRANCH   6  15
ATOM     15  C   UNL     1       6.939  15.281  18.416  0.00  0.00    +0.000 A 
ATOM     16  C   UNL     1       7.827  16.210  18.836  0.00  0.00    +0.000 A 
ATOM     17  C   UNL     1       7.569  17.673  18.937  0.00  0.00    +0.000 C 
ATOM     18  N   UNL     1       9.080  15.654  19.146  0.00  0.00    +0.000 N 
ATOM     19  C   UNL     1      10.351  16.372  19.012  0.00  0.00    +0.000 C 
ATOM     20  N   UNL     1       9.050  14.347  18.629  0.00  0.00    +0.000 N 
ATOM     21  C   UNL     1       7.809  14.100  18.059  0.00  0.00    +0.000 A 
ATOM     22  O   UNL     1       7.437  13.134  17.408  0.00  0.00    +0.000 OA
BRANCH  20  23
ATOM     23  C   UNL     1      10.091  13.420  18.767  0.00  0.00    +0.000 A 
ATOM     24  C   UNL     1      10.408  12.932  20.038  0.00  0.00    +0.000 A 
ATOM     25  C   UNL     1      11.428  11.995  20.202  0.00  0.00    +0.000 A 
ATOM     26  C   UNL     1      12.174  11.584  19.097  0.00  0.00    +0.000 A 
ATOM     27  C   UNL     1      11.890  12.097  17.831  0.00  0.00    +0.000 A 
ATOM     28  C   UNL     1      10.835  12.996  17.661  0.00  0.00    +0.000 A 
ENDBRANCH  20  23
ENDBRANCH   6  15
BRANCH   1  29
ATOM     29  C   UNL     1       2.662  15.456  17.820  0.00  0.00    +0.000 C 
BRANCH  29  31
ATOM     30  C   UNL     1       1.976  17.705  16.892  0.00  0.00    +0.000 C 
ATOM     31  C   UNL     1       2.376  16.926  17.906  0.00  0.00    +0.000 C 
ENDBRANCH  29  31
ENDBRANCH   1  29
TORSDOF 5
ENDMDL
MODEL 5
REMARK VINA RESULT:      -6.4      4.918     11.114
REMARK  Name = 
REMARK  7 active torsions:
REMARK  status: ('A' for Active; 'I' for Inactive)
REMARK    1  A    between atoms: C_2  and  C_3
REMARK    2  A    between atoms: C_3  and  N_4
REMARK    3  A    between atoms: C_5  and  C_6
REMARK    4  A    between atoms: N_17  and  C_18
REMARK    5  A    between atoms: C_19  and  C_20
REMARK    6  A    between atoms: N_21  and  C_22
REMARK    7  A    between atoms: N_23  and  C_24
REMARK                            x       y       z     vdW  Elec       q    Type
REMARK                         _______ _______ _______ _____ _____    ______ ____
ROOT
ATOM      1  N   UNL     1       0.335  11.957  20.065  0.00  0.00    +0.000 N 
ATOM      2  C   UNL     1      -0.040  10.763  19.417  0.00  0.00    +0.000 A 
ATOM      3  C   UNL     1      -1.315  10.716  18.999  0.00  0.00    +0.000 A 
ATOM      4  S   UNL     1      -2.134  12.216  19.299  0.00  0.00    +0.000 S 
ATOM      5  C   UNL     1      -0.714  12.878  20.213  0.00  0.00    +0.000 A 
ATOM      6  N   UNL     1      -0.686  14.010  20.864  0.00  0.00    +0.000 NA
ENDROOT
BRANCH   2   7
ATOM      7  C   UNL     1       0.855   9.616  19.206  0.00  0.00    +0.000 A 
ATOM      8  C   UNL     1       1.493   9.467  17.962  0.00  0.00    +0.000 A 
ATOM      9  C   UNL     1       2.345   8.386  17.718  0.00  0.00    +0.000 A 
ATOM     10  C   UNL     1       2.605   7.469  18.733  0.00  0.00    +0.000 A 
ATOM     11 CL   UNL     1       3.656   6.140  18.434  0.00  0.00    +0.000 Cl
ATOM     12  C   UNL     1       2.024   7.622  19.988  0.00  0.00    +0.000 A 
ATOM     13  C   UNL     1       1.150   8.690  20.223  0.00  0.00    +0.000 A 
ATOM     14 CL   UNL     1       0.465   8.829  21.806  0.00  0.00    +0.000 Cl
ENDBRANCH   2   7
BRANCH   6  15
ATOM     15  C   UNL     1      -1.861  14.713  20.982  0.00  0.00    +0.000 A 
ATOM     16  C   UNL     1      -2.245  15.903  20.467  0.00  0.00    +0.000 A 
ATOM     17  C   UNL     1      -1.361  16.864  19.751  0.00  0.00    +0.000 C 
ATOM     18  N   UNL     1      -3.601  16.182  20.709  0.00  0.00    +0.000 N 
ATOM     19  C   UNL     1      -4.145  17.533  20.861  0.00  0.00    +0.000 C 
ATOM     20  N   UNL     1      -4.014  15.238  21.666  0.00  0.00    +0.000 N 
ATOM     21  C   UNL     1      -2.960  14.387  21.967  0.00  0.00    +0.000 A 
ATOM     22  O   UNL     1      -2.887  13.522  22.828  0.00  0.00    +0.000 OA
BRANCH  20  23
ATOM     23  C   UNL     1      -5.323  15.128  22.152  0.00  0.00    +0.000 A 
ATOM     24  C   UNL     1      -5.604  15.539  23.458  0.00  0.00    +0.000 A 
ATOM     25  C   UNL     1      -6.902  15.458  23.962  0.00  0.00    +0.000 A 
ATOM     26  C   UNL     1      -7.916  14.911  23.176  0.00  0.00    +0.000 A 
ATOM     27  C   UNL     1      -7.635  14.461  21.885  0.00  0.00    +0.000 A 
ATOM     28  C   UNL     1      -6.346  14.590  21.365  0.00  0.00    +0.000 A 
ENDBRANCH  20  23
ENDBRANCH   6  15
BRANCH   1  29
ATOM     29  C   UNL     1       1.687  12.297  20.482  0.00  0.00    +0.000 C 
BRANCH  29  31
ATOM     30  C   UNL     1       2.574  12.963  18.212  0.00  0.00    +0.000 C 
ATOM     31  C   UNL     1       2.331  13.231  19.502  0.00  0.00    +0.000 C 
ENDBRANCH  29  31
ENDBRANCH   1  29
TORSDOF 5
ENDMDL
MODEL 6
REMARK VINA RESULT:      -6.2      4.931     11.409
REMARK  Name = 
REMARK  7 active torsions:
REMARK  status: ('A' for Active; 'I' for Inactive)
REMARK    1  A    between atoms: C_2  and  C_3
REMARK    2  A    between atoms: C_3  and  N_4
REMARK    3  A    between atoms: C_5  and  C_6
REMARK    4  A    between atoms: N_17  and  C_18
REMARK    5  A    between atoms: C_19  and  C_20
REMARK    6  A    between atoms: N_21  and  C_22
REMARK    7  A    between atoms: N_23  and  C_24
REMARK                            x       y       z     vdW  Elec       q    Type
REMARK                         _______ _______ _______ _____ _____    ______ ____
ROOT
ATOM      1  N   UNL     1       0.831  12.435  19.785  0.00  0.00    +0.000 N 
ATOM      2  C   UNL     1       0.194  11.192  19.599  0.00  0.00    +0.000 A 
ATOM      3  C   UNL     1      -1.146  11.221  19.668  0.00  0.00    +0.000 A 
ATOM      4  S   UNL     1      -1.733  12.839  19.877  0.00  0.00    +0.000 S 
ATOM      5  C   UNL     1      -0.051  13.490  20.069  0.00  0.00    +0.000 A 
ATOM      6  N   UNL     1       0.261  14.716  20.392  0.00  0.00    +0.000 NA
ENDROOT
BRANCH   2   7
ATOM      7  C   UNL     1       0.901   9.924  19.362  0.00  0.00    +0.000 A 
ATOM      8  C   UNL     1       1.370   9.635  18.069  0.00  0.00    +0.000 A 
ATOM      9  C   UNL     1       2.038   8.436  17.801  0.00  0.00    +0.000 A 
ATOM     10  C   UNL     1       2.287   7.537  18.834  0.00  0.00    +0.000 A 
ATOM     11 CL   UNL     1       3.113   6.065  18.505  0.00  0.00    +0.000 Cl
ATOM     12  C   UNL     1       1.875   7.824  20.132  0.00  0.00    +0.000 A 
ATOM     13  C   UNL     1       1.181   9.011  20.395  0.00  0.00    +0.000 A 
ATOM     14 CL   UNL     1       0.702   9.312  22.031  0.00  0.00    +0.000 Cl
ENDBRANCH   2   7
BRANCH   6  15
ATOM     15  C   UNL     1      -0.758  15.569  20.742  0.00  0.00    +0.000 A 
ATOM     16  C   UNL     1      -1.401  16.528  20.039  0.00  0.00    +0.000 A 
ATOM     17  C   UNL     1      -1.004  17.030  18.694  0.00  0.00    +0.000 C 
ATOM     18  N   UNL     1      -2.501  17.060  20.735  0.00  0.00    +0.000 N 
ATOM     19  C   UNL     1      -2.981  18.435  20.579  0.00  0.00    +0.000 C 
ATOM     20  N   UNL     1      -2.369  16.597  22.056  0.00  0.00    +0.000 N 
ATOM     21  C   UNL     1      -1.253  15.779  22.154  0.00  0.00    +0.000 A 
ATOM     22  O   UNL     1      -0.741  15.287  23.150  0.00  0.00    +0.000 OA
BRANCH  20  23
ATOM     23  C   UNL     1      -3.292  16.854  23.077  0.00  0.00    +0.000 A 
ATOM     24  C   UNL     1      -4.532  16.210  23.057  0.00  0.00    +0.000 A 
ATOM     25  C   UNL     1      -5.464  16.434  24.070  0.00  0.00    +0.000 A 
ATOM     26  C   UNL     1      -5.178  17.351  25.082  0.00  0.00    +0.000 A 
ATOM     27  C   UNL     1      -3.957  18.029  25.088  0.00  0.00    +0.000 A 
ATOM     28  C   UNL     1      -3.007  17.764  24.100  0.00  0.00    +0.000 A 
ENDBRANCH  20  23
ENDBRANCH   6  15
BRANCH   1  29
ATOM     29  C   UNL     1       2.256  12.681  19.622  0.00  0.00    +0.000 C 
BRANCH  29  31
ATOM     30  C   UNL     1       3.138  14.431  18.026  0.00  0.00    +0.000 C 
ATOM     31  C   UNL     1       2.549  13.252  18.267  0.00  0.00    +0.000 C 
ENDBRANCH  29  31
ENDBRANCH   1  29
TORSDOF 5
ENDMDL
MODEL 7
REMARK VINA RESULT:      -6.0      4.946     11.276
REMARK  Name = 
REMARK  7 active torsions:
REMARK  status: ('A' for Active; 'I' for Inactive)
REMARK    1  A    between atoms: C_2  and  C_3
REMARK    2  A    between atoms: C_3  and  N_4
REMARK    3  A    between atoms: C_5  and  C_6
REMARK    4  A    between atoms: N_17  and  C_18
REMARK    5  A    between atoms: C_19  and  C_20
REMARK    6  A    between atoms: N_21  and  C_22
REMARK    7  A    between atoms: N_23  and  C_24
REMARK                            x       y       z     vdW  Elec       q    Type
REMARK                         _______ _______ _______ _____ _____    ______ ____
ROOT
ATOM      1  N   UNL     1      -0.712  11.133  19.693  0.00  0.00    +0.000 N 
ATOM      2  C   UNL     1       0.615  10.762  19.989  0.00  0.00    +0.000 A 
ATOM      3  C   UNL     1       1.274  11.602  20.802  0.00  0.00    +0.000 A 
ATOM      4  S   UNL     1       0.248  12.889  21.348  0.00  0.00    +0.000 S 
ATOM      5  C   UNL     1      -1.101  12.356  20.259  0.00  0.00    +0.000 A 
ATOM      6  N   UNL     1      -2.224  12.996  20.066  0.00  0.00    +0.000 NA
ENDROOT
BRANCH   2   7
ATOM      7  C   UNL     1       1.281   9.564  19.457  0.00  0.00    +0.000 A 
ATOM      8  C   UNL     1       1.757   9.578  18.134  0.00  0.00    +0.000 A 
ATOM      9  C   UNL     1       2.388   8.456  17.588  0.00  0.00    +0.000 A 
ATOM     10  C   UNL     1       2.593   7.326  18.376  0.00  0.00    +0.000 A 
ATOM     11 CL   UNL     1       3.374   5.948  17.705  0.00  0.00    +0.000 Cl
ATOM     12  C   UNL     1       2.175   7.307  19.703  0.00  0.00    +0.000 A 
ATOM     13  C   UNL     1       1.518   8.420  20.241  0.00  0.00    +0.000 A 
ATOM     14 CL   UNL     1       1.029   8.336  21.899  0.00  0.00    +0.000 Cl
ENDBRANCH   2   7
BRANCH   6  15
ATOM     15  C   UNL     1      -2.360  14.241  20.631  0.00  0.00    +0.000 A 
ATOM     16  C   UNL     1      -1.827  15.437  20.293  0.00  0.00    +0.000 A 
ATOM     17  C   UNL     1      -0.765  15.656  19.273  0.00  0.00    +0.000 C 
ATOM     18  N   UNL     1      -2.360  16.496  21.049  0.00  0.00    +0.000 N 
ATOM     19  C   UNL     1      -1.620  17.715  21.386  0.00  0.00    +0.000 C 
ATOM     20  N   UNL     1      -3.063  15.889  22.103  0.00  0.00    +0.000 N 
ATOM     21  C   UNL     1      -2.998  14.509  21.974  0.00  0.00    +0.000 A 
ATOM     22  O   UNL     1      -3.378  13.642  22.748  0.00  0.00    +0.000 OA
BRANCH  20  23
ATOM     23  C   UNL     1      -3.795  16.590  23.070  0.00  0.00    +0.000 A 
ATOM     24  C   UNL     1      -3.253  16.763  24.346  0.00  0.00    +0.000 A 
ATOM     25  C   UNL     1      -3.954  17.472  25.323  0.00  0.00    +0.000 A 
ATOM     26  C   UNL     1      -5.228  17.964  25.040  0.00  0.00    +0.000 A 
ATOM     27  C   UNL     1      -5.793  17.761  23.780  0.00  0.00    +0.000 A 
ATOM     28  C   UNL     1      -5.069  17.094  22.789  0.00  0.00    +0.000 A 
ENDBRANCH  20  23
ENDBRANCH   6  15
BRANCH   1  29
ATOM     29  C   UNL     1      -1.665  10.321  18.950  0.00  0.00    +0.000 C 
BRANCH  29  31
ATOM     30  C   UNL     1      -2.362  10.068  16.534  0.00  0.00    +0.000 C 
ATOM     31  C   UNL     1      -1.644  10.670  17.492  0.00  0.00    +0.000 C 
ENDBRANCH  29  31
ENDBRANCH   1  29
TORSDOF 5
ENDMDL
MODEL 8
REMARK VINA RESULT:      -5.9      3.467      9.149
REMARK  Name = 
REMARK  7 active torsions:
REMARK  status: ('A' for Active; 'I' for Inactive)
REMARK    1  A    between atoms: C_2  and  C_3
REMARK    2  A    between atoms: C_3  and  N_4
REMARK    3  A    between atoms: C_5  and  C_6
REMARK    4  A    between atoms: N_17  and  C_18
REMARK    5  A    between atoms: C_19  and  C_20
REMARK    6  A    between atoms: N_21  and  C_22
REMARK    7  A    between atoms: N_23  and  C_24
REMARK                            x       y       z     vdW  Elec       q    Type
REMARK                         _______ _______ _______ _____ _____    ______ ____
ROOT
ATOM      1  N   UNL     1       2.263   7.461  18.698  0.00  0.00    +0.000 N 
ATOM      2  C   UNL     1       2.359   6.619  19.824  0.00  0.00    +0.000 A 
ATOM      3  C   UNL     1       1.855   7.126  20.960  0.00  0.00    +0.000 A 
ATOM      4  S   UNL     1       1.124   8.676  20.692  0.00  0.00    +0.000 S 
ATOM      5  C   UNL     1       1.703   8.718  18.973  0.00  0.00    +0.000 A 
ATOM      6  N   UNL     1       1.593   9.731  18.155  0.00  0.00    +0.000 NA
ENDROOT
BRANCH   2   7
ATOM      7  C   UNL     1       2.973   5.283  19.813  0.00  0.00    +0.000 A 
ATOM      8  C   UNL     1       4.363   5.172  19.628  0.00  0.00    +0.000 A 
ATOM      9  C   UNL     1       4.984   3.920  19.602  0.00  0.00    +0.000 A 
ATOM     10  C   UNL     1       4.228   2.769  19.810  0.00  0.00    +0.000 A 
ATOM     11 CL   UNL     1       4.993   1.229  19.783  0.00  0.00    +0.000 Cl
ATOM     12  C   UNL     1       2.859   2.857  20.044  0.00  0.00    +0.000 A 
ATOM     13  C   UNL     1       2.233   4.109  20.042  0.00  0.00    +0.000 A 
ATOM     14 CL   UNL     1       0.530   4.152  20.346  0.00  0.00    +0.000 Cl
ENDBRANCH   2   7
BRANCH   6  15
ATOM     15  C   UNL     1       1.113  10.916  18.660  0.00  0.00    +0.000 A 
ATOM     16  C   UNL     1      -0.134  11.292  19.022  0.00  0.00    +0.000 A 
ATOM     17  C   UNL     1      -1.380  10.514  18.776  0.00  0.00    +0.000 C 
ATOM     18  N   UNL     1      -0.156  12.553  19.644  0.00  0.00    +0.000 N 
ATOM     19  C   UNL     1      -1.290  13.478  19.579  0.00  0.00    +0.000 C 
ATOM     20  N   UNL     1       1.112  13.111  19.408  0.00  0.00    +0.000 N 
ATOM     21  C   UNL     1       1.895  12.208  18.703  0.00  0.00    +0.000 A 
ATOM     22  O   UNL     1       3.004  12.367  18.211  0.00  0.00    +0.000 OA
BRANCH  20  23
ATOM     23  C   UNL     1       1.533  14.351  19.905  0.00  0.00    +0.000 A 
ATOM     24  C   UNL     1       1.654  15.433  19.030  0.00  0.00    +0.000 A 
ATOM     25  C   UNL     1       2.054  16.684  19.502  0.00  0.00    +0.000 A 
ATOM     26  C   UNL     1       2.389  16.841  20.847  0.00  0.00    +0.000 A 
ATOM     27  C   UNL     1       2.309  15.755  21.719  0.00  0.00    +0.000 A 
ATOM     28  C   UNL     1       1.860  14.517  21.255  0.00  0.00    +0.000 A 
ENDBRANCH  20  23
ENDBRANCH   6  15
BRANCH   1  29
ATOM     29  C   UNL     1       2.612   7.085  17.337  0.00  0.00    +0.000 C 
BRANCH  29  31
ATOM     30  C   UNL     1       4.896   6.587  16.374  0.00  0.00    +0.000 C 
ATOM     31  C   UNL     1       4.055   7.380  17.052  0.00  0.00    +0.000 C 
ENDBRANCH  29  31
ENDBRANCH   1  29
TORSDOF 5
ENDMDL
MODEL 9
REMARK VINA RESULT:      -5.9      7.942      9.375
REMARK  Name = 
REMARK  7 active torsions:
REMARK  status: ('A' for Active; 'I' for Inactive)
REMARK    1  A    between atoms: C_2  and  C_3
REMARK    2  A    between atoms: C_3  and  N_4
REMARK    3  A    between atoms: C_5  and  C_6
REMARK    4  A    between atoms: N_17  and  C_18
REMARK    5  A    between atoms: C_19  and  C_20
REMARK    6  A    between atoms: N_21  and  C_22
REMARK    7  A    between atoms: N_23  and  C_24
REMARK                            x       y       z     vdW  Elec       q    Type
REMARK                         _______ _______ _______ _____ _____    ______ ____
ROOT
ATOM      1  N   UNL     1       4.111  16.152  20.434  0.00  0.00    +0.000 N 
ATOM      2  C   UNL     1       3.602  15.556  21.604  0.00  0.00    +0.000 A 
ATOM      3  C   UNL     1       4.523  15.017  22.418  0.00  0.00    +0.000 A 
ATOM      4  S   UNL     1       6.130  15.300  21.829  0.00  0.00    +0.000 S 
ATOM      5  C   UNL     1       5.502  16.031  20.292  0.00  0.00    +0.000 A 
ATOM      6  N   UNL     1       6.226  16.388  19.265  0.00  0.00    +0.000 NA
ENDROOT
BRANCH   2   7
ATOM      7  C   UNL     1       2.173  15.484  21.947  0.00  0.00    +0.000 A 
ATOM      8  C   UNL     1       1.578  16.565  22.622  0.00  0.00    +0.000 A 
ATOM      9  C   UNL     1       0.225  16.533  22.973  0.00  0.00    +0.000 A 
ATOM     10  C   UNL     1      -0.558  15.440  22.610  0.00  0.00    +0.000 A 
ATOM     11 CL   UNL     1      -2.223  15.402  23.038  0.00  0.00    +0.000 Cl
ATOM     12  C   UNL     1      -0.002  14.381  21.899  0.00  0.00    +0.000 A 
ATOM     13  C   UNL     1       1.359  14.400  21.571  0.00  0.00    +0.000 A 
ATOM     14 CL   UNL     1       1.987  13.057  20.680  0.00  0.00    +0.000 Cl
ENDBRANCH   2   7
BRANCH   6  15
ATOM     15  C   UNL     1       7.564  16.076  19.282  0.00  0.00    +0.000 A 
ATOM     16  C   UNL     1       8.654  16.833  19.539  0.00  0.00    +0.000 A 
ATOM     17  C   UNL     1       8.662  18.314  19.702  0.00  0.00    +0.000 C 
ATOM     18  N   UNL     1       9.835  16.073  19.606  0.00  0.00    +0.000 N 
ATOM     19  C   UNL     1      11.159  16.584  19.245  0.00  0.00    +0.000 C 
ATOM     20  N   UNL     1       9.497  14.810  19.089  0.00  0.00    +0.000 N 
ATOM     21  C   UNL     1       8.150  14.786  18.757  0.00  0.00    +0.000 A 
ATOM     22  O   UNL     1       7.514  13.919  18.176  0.00  0.00    +0.000 OA
BRANCH  20  23
ATOM     23  C   UNL     1      10.380  13.724  19.022  0.00  0.00    +0.000 A 
ATOM     24  C   UNL     1      10.785  13.098  20.204  0.00  0.00    +0.000 A 
ATOM     25  C   UNL     1      11.650  12.004  20.166  0.00  0.00    +0.000 A 
ATOM     26  C   UNL     1      12.157  11.566  18.942  0.00  0.00    +0.000 A 
ATOM     27  C   UNL     1      11.788  12.211  17.761  0.00  0.00    +0.000 A 
ATOM     28  C   UNL     1      10.883  13.274  17.797  0.00  0.00    +0.000 A 
ENDBRANCH  20  23
ENDBRANCH   6  15
BRANCH   1  29
ATOM     29  C   UNL     1       3.329  16.915  19.472  0.00  0.00    +0.000 C 
BRANCH  29  31
ATOM     30  C   UNL     1       3.109  14.927  17.927  0.00  0.00    +0.000 C 
ATOM     31  C   UNL     1       2.593  16.003  18.536  0.00  0.00    +0.000 C 
ENDBRANCH  29  31
ENDBRANCH   1  29
TORSDOF 5
ENDMDL
