MODEL 1
REMARK VINA RESULT:      -8.0      0.000      0.000
REMARK  Name = 
REMARK  6 active torsions:
REMARK  status: ('A' for Active; 'I' for Inactive)
REMARK    1  A    between atoms: C_1  and  O_2
REMARK    2  A    between atoms: O_2  and  C_3
REMARK    3  A    between atoms: C_7  and  C_8
REMARK    4  A    between atoms: C_8  and  N_9
REMARK    5  A    between atoms: N_13  and  C_14
REMARK    6  A    between atoms: C_14  and  C_15
REMARK                            x       y       z     vdW  Elec       q    Type
REMARK                         _______ _______ _______ _____ _____    ______ ____
ROOT
ATOM      1  N   UNL     1       7.102   5.708  16.391  0.00  0.00    +0.000 NA
ATOM      2  C   UNL     1       6.224   6.823  15.960  0.00  0.00    +0.000 C 
ATOM      3  C   UNL     1       4.805   6.723  16.523  0.00  0.00    +0.000 C 
ATOM      4  C   UNL     1       4.720   6.483  18.031  0.00  0.00    +0.000 C 
ATOM      5  N   UNL     1       5.629   5.407  18.427  0.00  0.00    +0.000 NA
ATOM      6  S   UNL     1       7.248   5.617  18.086  0.00  0.00    +0.000 S 
ATOM      7  O   UNL     1       7.975   4.423  18.426  0.00  0.00    +0.000 OA
ATOM      8  O   UNL     1       7.640   6.918  18.583  0.00  0.00    +0.000 OA
ENDROOT
BRANCH   1   9
ATOM      9  C   UNL     1       6.868   4.394  15.726  0.00  0.00    +0.000 C 
BRANCH   9  14
ATOM     10  C   UNL     1       5.895   3.380  12.172  0.00  0.00    +0.000 A 
ATOM     11  C   UNL     1       6.762   4.151  11.402  0.00  0.00    +0.000 A 
ATOM     12  C   UNL     1       7.691   4.994  12.016  0.00  0.00    +0.000 A 
ATOM     13  C   UNL     1       7.738   5.095  13.410  0.00  0.00    +0.000 A 
ATOM     14  C   UNL     1       6.844   4.364  14.204  0.00  0.00    +0.000 A 
ATOM     15  C   UNL     1       5.953   3.475  13.564  0.00  0.00    +0.000 A 
BRANCH  10  17
ATOM     16  C   UNL     1       3.812   3.150  11.040  0.00  0.00    +0.000 C 
ATOM     17  O   UNL     1       5.049   2.579  11.454  0.00  0.00    +0.000 OA
ENDBRANCH  10  17
ENDBRANCH   9  14
ENDBRANCH   1   9
BRANCH   5  18
ATOM     18  C   UNL     1       5.223   4.456  19.470  0.00  0.00    +0.000 C 
BRANCH  18  19
ATOM     19  C   UNL     1       3.896   3.735  19.323  0.00  0.00    +0.000 A 
ATOM     20  C   UNL     1       2.787   4.143  20.089  0.00  0.00    +0.000 A 
ATOM     21  C   UNL     1       1.521   3.588  19.875  0.00  0.00    +0.000 A 
ATOM     22  C   UNL     1       1.357   2.624  18.889  0.00  0.00    +0.000 A 
ATOM     23  F   UNL     1       0.141   2.106  18.666  0.00  0.00    +0.000 F 
ATOM     24  C   UNL     1       2.438   2.194  18.127  0.00  0.00    +0.000 A 
ATOM     25  C   UNL     1       3.708   2.746  18.344  0.00  0.00    +0.000 A 
ENDBRANCH  18  19
ENDBRANCH   5  18
TORSDOF 5
ENDMDL
MODEL 2
REMARK VINA RESULT:      -7.6      4.151      7.314
REMARK  Name = 
REMARK  6 active torsions:
REMARK  status: ('A' for Active; 'I' for Inactive)
REMARK    1  A    between atoms: C_1  and  O_2
REMARK    2  A    between atoms: O_2  and  C_3
REMARK    3  A    between atoms: C_7  and  C_8
REMARK    4  A    between atoms: C_8  and  N_9
REMARK    5  A    between atoms: N_13  and  C_14
REMARK    6  A    between atoms: C_14  and  C_15
REMARK                            x       y       z     vdW  Elec       q    Type
REMARK                         _______ _______ _______ _____ _____    ______ ____
ROOT
ATOM      1  N   UNL     1       2.612   3.950  19.851  0.00  0.00    +0.000 NA
ATOM      2  C   UNL     1       1.330   4.095  19.119  0.00  0.00    +0.000 C 
ATOM      3  C   UNL     1       1.517   4.505  17.657  0.00  0.00    +0.000 C 
ATOM      4  C   UNL     1       2.529   3.669  16.872  0.00  0.00    +0.000 C 
ATOM      5  N   UNL     1       3.763   3.511  17.640  0.00  0.00    +0.000 NA
ATOM      6  S   UNL     1       3.637   2.790  19.139  0.00  0.00    +0.000 S 
ATOM      7  O   UNL     1       4.912   2.827  19.804  0.00  0.00    +0.000 OA
ATOM      8  O   UNL     1       2.894   1.559  18.977  0.00  0.00    +0.000 OA
ENDROOT
BRANCH   1   9
ATOM      9  C   UNL     1       3.297   5.218  20.233  0.00  0.00    +0.000 C 
BRANCH   9  14
ATOM     10  C   UNL     1       1.226   8.427  20.076  0.00  0.00    +0.000 A 
ATOM     11  C   UNL     1       1.522   8.901  18.799  0.00  0.00    +0.000 A 
ATOM     12  C   UNL     1       2.375   8.182  17.960  0.00  0.00    +0.000 A 
ATOM     13  C   UNL     1       2.967   6.996  18.404  0.00  0.00    +0.000 A 
ATOM     14  C   UNL     1       2.721   6.523  19.701  0.00  0.00    +0.000 A 
ATOM     15  C   UNL     1       1.809   7.235  20.511  0.00  0.00    +0.000 A 
BRANCH  10  17
ATOM     16  C   UNL     1       0.548   9.259  22.202  0.00  0.00    +0.000 C 
ATOM     17  O   UNL     1       0.360   9.208  20.791  0.00  0.00    +0.000 OA
ENDBRANCH  10  17
ENDBRANCH   9  14
ENDBRANCH   1   9
BRANCH   5  18
ATOM     18  C   UNL     1       5.060   3.533  16.950  0.00  0.00    +0.000 C 
BRANCH  18  19
ATOM     19  C   UNL     1       5.969   4.732  17.144  0.00  0.00    +0.000 A 
ATOM     20  C   UNL     1       5.676   5.947  16.497  0.00  0.00    +0.000 A 
ATOM     21  C   UNL     1       6.417   7.102  16.765  0.00  0.00    +0.000 A 
ATOM     22  C   UNL     1       7.455   7.048  17.687  0.00  0.00    +0.000 A 
ATOM     23  F   UNL     1       8.152   8.159  17.962  0.00  0.00    +0.000 F 
ATOM     24  C   UNL     1       7.773   5.858  18.330  0.00  0.00    +0.000 A 
ATOM     25  C   UNL     1       7.035   4.698  18.059  0.00  0.00    +0.000 A 
ENDBRANCH  18  19
ENDBRANCH   5  18
TORSDOF 5
ENDMDL
MODEL 3
REMARK VINA RESULT:      -7.6      0.577      1.157
REMARK  Name = 
REMARK  6 active torsions:
REMARK  status: ('A' for Active; 'I' for Inactive)
REMARK    1  A    between atoms: C_1  and  O_2
REMARK    2  A    between atoms: O_2  and  C_3
REMARK    3  A    between atoms: C_7  and  C_8
REMARK    4  A    between atoms: C_8  and  N_9
REMARK    5  A    between atoms: N_13  and  C_14
REMARK    6  A    between atoms: C_14  and  C_15
REMARK                            x       y       z     vdW  Elec       q    Type
REMARK                         _______ _______ _______ _____ _____    ______ ____
ROOT
ATOM      1  N   UNL     1       7.086   5.703  16.411  0.00  0.00    +0.000 NA
ATOM      2  C   UNL     1       6.342   6.889  15.918  0.00  0.00    +0.000 C 
ATOM      3  C   UNL     1       4.899   6.944  16.422  0.00  0.00    +0.000 C 
ATOM      4  C   UNL     1       4.730   6.753  17.930  0.00  0.00    +0.000 C 
ATOM      5  N   UNL     1       5.509   5.603  18.388  0.00  0.00    +0.000 NA
ATOM      6  S   UNL     1       7.153   5.643  18.112  0.00  0.00    +0.000 S 
ATOM      7  O   UNL     1       7.742   4.392  18.509  0.00  0.00    +0.000 OA
ATOM      8  O   UNL     1       7.653   6.911  18.597  0.00  0.00    +0.000 OA
ENDROOT
BRANCH   1   9
ATOM      9  C   UNL     1       6.749   4.402  15.766  0.00  0.00    +0.000 C 
BRANCH   9  14
ATOM     10  C   UNL     1       6.072   3.188  12.205  0.00  0.00    +0.000 A 
ATOM     11  C   UNL     1       6.879   4.037  11.450  0.00  0.00    +0.000 A 
ATOM     12  C   UNL     1       7.672   5.000  12.079  0.00  0.00    +0.000 A 
ATOM     13  C   UNL     1       7.640   5.142  13.469  0.00  0.00    +0.000 A 
ATOM     14  C   UNL     1       6.801   4.330  14.246  0.00  0.00    +0.000 A 
ATOM     15  C   UNL     1       6.053   3.325  13.595  0.00  0.00    +0.000 A 
BRANCH  10  17
ATOM     16  C   UNL     1       6.042   1.081  11.095  0.00  0.00    +0.000 C 
ATOM     17  O   UNL     1       5.362   2.273  11.476  0.00  0.00    +0.000 OA
ENDBRANCH  10  17
ENDBRANCH   9  14
ENDBRANCH   1   9
BRANCH   5  18
ATOM     18  C   UNL     1       4.968   4.725  19.433  0.00  0.00    +0.000 C 
BRANCH  18  19
ATOM     19  C   UNL     1       3.626   4.055  19.199  0.00  0.00    +0.000 A 
ATOM     20  C   UNL     1       3.424   3.272  18.047  0.00  0.00    +0.000 A 
ATOM     21  C   UNL     1       2.248   2.535  17.875  0.00  0.00    +0.000 A 
ATOM     22  C   UNL     1       1.268   2.575  18.859  0.00  0.00    +0.000 A 
ATOM     23  F   UNL     1       0.150   1.851  18.707  0.00  0.00    +0.000 F 
ATOM     24  C   UNL     1       1.438   3.349  20.001  0.00  0.00    +0.000 A 
ATOM     25  C   UNL     1       2.614   4.093  20.172  0.00  0.00    +0.000 A 
ENDBRANCH  18  19
ENDBRANCH   5  18
TORSDOF 5
ENDMDL
MODEL 4
REMARK VINA RESULT:      -7.5      4.189      7.335
REMARK  Name = 
REMARK  6 active torsions:
REMARK  status: ('A' for Active; 'I' for Inactive)
REMARK    1  A    between atoms: C_1  and  O_2
REMARK    2  A    between atoms: O_2  and  C_3
REMARK    3  A    between atoms: C_7  and  C_8
REMARK    4  A    between atoms: C_8  and  N_9
REMARK    5  A    between atoms: N_13  and  C_14
REMARK    6  A    between atoms: C_14  and  C_15
REMARK                            x       y       z     vdW  Elec       q    Type
REMARK                         _______ _______ _______ _____ _____    ______ ____
ROOT
ATOM      1  N   UNL     1       2.597   4.142  19.843  0.00  0.00    +0.000 NA
ATOM      2  C   UNL     1       1.285   4.166  19.150  0.00  0.00    +0.000 C 
ATOM      3  C   UNL     1       1.401   4.470  17.656  0.00  0.00    +0.000 C 
ATOM      4  C   UNL     1       2.428   3.626  16.899  0.00  0.00    +0.000 C 
ATOM      5  N   UNL     1       3.694   3.589  17.631  0.00  0.00    +0.000 NA
ATOM      6  S   UNL     1       3.656   2.981  19.183  0.00  0.00    +0.000 S 
ATOM      7  O   UNL     1       4.948   3.132  19.796  0.00  0.00    +0.000 OA
ATOM      8  O   UNL     1       2.972   1.707  19.143  0.00  0.00    +0.000 OA
ENDROOT
BRANCH   1   9
ATOM      9  C   UNL     1       3.227   5.468  20.102  0.00  0.00    +0.000 C 
BRANCH   9  14
ATOM     10  C   UNL     1       1.680   8.759  18.926  0.00  0.00    +0.000 A 
ATOM     11  C   UNL     1       0.790   9.047  19.958  0.00  0.00    +0.000 A 
ATOM     12  C   UNL     1       0.691   8.197  21.062  0.00  0.00    +0.000 A 
ATOM     13  C   UNL     1       1.461   7.032  21.126  0.00  0.00    +0.000 A 
ATOM     14  C   UNL     1       2.329   6.697  20.077  0.00  0.00    +0.000 A 
ATOM     15  C   UNL     1       2.457   7.600  19.000  0.00  0.00    +0.000 A 
BRANCH  10  17
ATOM     16  C   UNL     1       1.631  11.052  18.286  0.00  0.00    +0.000 C 
ATOM     17  O   UNL     1       1.701   9.679  17.914  0.00  0.00    +0.000 OA
ENDBRANCH  10  17
ENDBRANCH   9  14
ENDBRANCH   1   9
BRANCH   5  18
ATOM     18  C   UNL     1       4.964   3.620  16.893  0.00  0.00    +0.000 C 
BRANCH  18  19
ATOM     19  C   UNL     1       5.919   4.774  17.135  0.00  0.00    +0.000 A 
ATOM     20  C   UNL     1       5.541   6.084  16.786  0.00  0.00    +0.000 A 
ATOM     21  C   UNL     1       6.343   7.178  17.123  0.00  0.00    +0.000 A 
ATOM     22  C   UNL     1       7.529   6.968  17.813  0.00  0.00    +0.000 A 
ATOM     23  F   UNL     1       8.289   8.018  18.157  0.00  0.00    +0.000 F 
ATOM     24  C   UNL     1       7.933   5.684  18.159  0.00  0.00    +0.000 A 
ATOM     25  C   UNL     1       7.132   4.584  17.818  0.00  0.00    +0.000 A 
ENDBRANCH  18  19
ENDBRANCH   5  18
TORSDOF 5
ENDMDL
MODEL 5
REMARK VINA RESULT:      -7.5      3.098      3.916
REMARK  Name = 
REMARK  6 active torsions:
REMARK  status: ('A' for Active; 'I' for Inactive)
REMARK    1  A    between atoms: C_1  and  O_2
REMARK    2  A    between atoms: O_2  and  C_3
REMARK    3  A    between atoms: C_7  and  C_8
REMARK    4  A    between atoms: C_8  and  N_9
REMARK    5  A    between atoms: N_13  and  C_14
REMARK    6  A    between atoms: C_14  and  C_15
REMARK                            x       y       z     vdW  Elec       q    Type
REMARK                         _______ _______ _______ _____ _____    ______ ____
ROOT
ATOM      1  N   UNL     1       5.596   4.034  16.999  0.00  0.00    +0.000 NA
ATOM      2  C   UNL     1       6.757   4.666  17.673  0.00  0.00    +0.000 C 
ATOM      3  C   UNL     1       6.377   5.905  18.486  0.00  0.00    +0.000 C 
ATOM      4  C   UNL     1       5.196   5.719  19.440  0.00  0.00    +0.000 C 
ATOM      5  N   UNL     1       4.087   5.055  18.755  0.00  0.00    +0.000 NA
ATOM      6  S   UNL     1       4.390   3.552  18.101  0.00  0.00    +0.000 S 
ATOM      7  O   UNL     1       3.240   3.102  17.363  0.00  0.00    +0.000 OA
ATOM      8  O   UNL     1       5.006   2.739  19.128  0.00  0.00    +0.000 OA
ENDROOT
BRANCH   1   9
ATOM      9  C   UNL     1       5.076   4.738  15.792  0.00  0.00    +0.000 C 
BRANCH   9  14
ATOM     10  C   UNL     1       5.877   3.239  12.368  0.00  0.00    +0.000 A 
ATOM     11  C   UNL     1       7.058   3.898  12.032  0.00  0.00    +0.000 A 
ATOM     12  C   UNL     1       7.627   4.819  12.914  0.00  0.00    +0.000 A 
ATOM     13  C   UNL     1       7.001   5.112  14.128  0.00  0.00    +0.000 A 
ATOM     14  C   UNL     1       5.788   4.497  14.468  0.00  0.00    +0.000 A 
ATOM     15  C   UNL     1       5.261   3.526  13.589  0.00  0.00    +0.000 A 
BRANCH  10  17
ATOM     16  C   UNL     1       6.295   1.256  11.118  0.00  0.00    +0.000 C 
ATOM     17  O   UNL     1       5.433   2.344  11.433  0.00  0.00    +0.000 OA
ENDBRANCH  10  17
ENDBRANCH   9  14
ENDBRANCH   1   9
BRANCH   5  18
ATOM     18  C   UNL     1       2.704   5.457  19.046  0.00  0.00    +0.000 C 
BRANCH  18  19
ATOM     19  C   UNL     1       2.360   6.935  19.052  0.00  0.00    +0.000 A 
ATOM     20  C   UNL     1       2.493   7.692  17.872  0.00  0.00    +0.000 A 
ATOM     21  C   UNL     1       2.054   9.018  17.815  0.00  0.00    +0.000 A 
ATOM     22  C   UNL     1       1.477   9.594  18.940  0.00  0.00    +0.000 A 
ATOM     23  F   UNL     1       1.036  10.859  18.881  0.00  0.00    +0.000 F 
ATOM     24  C   UNL     1       1.346   8.874  20.121  0.00  0.00    +0.000 A 
ATOM     25  C   UNL     1       1.789   7.545  20.181  0.00  0.00    +0.000 A 
ENDBRANCH  18  19
ENDBRANCH   5  18
TORSDOF 5
ENDMDL
MODEL 6
REMARK VINA RESULT:      -7.3      4.345      7.649
REMARK  Name = 
REMARK  6 active torsions:
REMARK  status: ('A' for Active; 'I' for Inactive)
REMARK    1  A    between atoms: C_1  and  O_2
REMARK    2  A    between atoms: O_2  and  C_3
REMARK    3  A    between atoms: C_7  and  C_8
REMARK    4  A    between atoms: C_8  and  N_9
REMARK    5  A    between atoms: N_13  and  C_14
REMARK    6  A    between atoms: C_14  and  C_15
REMARK                            x       y       z     vdW  Elec       q    Type
REMARK                         _______ _______ _______ _____ _____    ______ ____
ROOT
ATOM      1  N   UNL     1       2.376   5.104  18.828  0.00  0.00    +0.000 NA
ATOM      2  C   UNL     1       1.550   4.135  18.065  0.00  0.00    +0.000 C 
ATOM      3  C   UNL     1       2.334   3.410  16.970  0.00  0.00    +0.000 C 
ATOM      4  C   UNL     1       3.662   2.797  17.418  0.00  0.00    +0.000 C 
ATOM      5  N   UNL     1       4.430   3.764  18.203  0.00  0.00    +0.000 NA
ATOM      6  S   UNL     1       3.711   4.362  19.583  0.00  0.00    +0.000 S 
ATOM      7  O   UNL     1       4.544   5.384  20.160  0.00  0.00    +0.000 OA
ATOM      8  O   UNL     1       3.234   3.237  20.357  0.00  0.00    +0.000 OA
ENDROOT
BRANCH   1   9
ATOM      9  C   UNL     1       2.699   6.382  18.132  0.00  0.00    +0.000 C 
BRANCH   9  14
ATOM     10  C   UNL     1       1.247   8.849  20.665  0.00  0.00    +0.000 A 
ATOM     11  C   UNL     1       0.959   9.952  19.864  0.00  0.00    +0.000 A 
ATOM     12  C   UNL     1       1.206   9.909  18.490  0.00  0.00    +0.000 A 
ATOM     13  C   UNL     1       1.775   8.772  17.910  0.00  0.00    +0.000 A 
ATOM     14  C   UNL     1       2.117   7.667  18.704  0.00  0.00    +0.000 A 
ATOM     15  C   UNL     1       1.804   7.709  20.080  0.00  0.00    +0.000 A 
BRANCH  10  17
ATOM     16  C   UNL     1      -0.290   9.657  22.294  0.00  0.00    +0.000 C 
ATOM     17  O   UNL     1       0.938   9.005  21.989  0.00  0.00    +0.000 OA
ENDBRANCH  10  17
ENDBRANCH   9  14
ENDBRANCH   1   9
BRANCH   5  18
ATOM     18  C   UNL     1       5.890   3.825  18.058  0.00  0.00    +0.000 C 
BRANCH  18  19
ATOM     19  C   UNL     1       6.549   5.179  17.875  0.00  0.00    +0.000 A 
ATOM     20  C   UNL     1       6.003   6.109  16.969  0.00  0.00    +0.000 A 
ATOM     21  C   UNL     1       6.507   7.410  16.882  0.00  0.00    +0.000 A 
ATOM     22  C   UNL     1       7.560   7.790  17.704  0.00  0.00    +0.000 A 
ATOM     23  F   UNL     1       8.031   9.044  17.639  0.00  0.00    +0.000 F 
ATOM     24  C   UNL     1       8.125   6.889  18.599  0.00  0.00    +0.000 A 
ATOM     25  C   UNL     1       7.624   5.582  18.684  0.00  0.00    +0.000 A 
ENDBRANCH  18  19
ENDBRANCH   5  18
TORSDOF 5
ENDMDL
MODEL 7
REMARK VINA RESULT:      -7.3      4.217      7.346
REMARK  Name = 
REMARK  6 active torsions:
REMARK  status: ('A' for Active; 'I' for Inactive)
REMARK    1  A    between atoms: C_1  and  O_2
REMARK    2  A    between atoms: O_2  and  C_3
REMARK    3  A    between atoms: C_7  and  C_8
REMARK    4  A    between atoms: C_8  and  N_9
REMARK    5  A    between atoms: N_13  and  C_14
REMARK    6  A    between atoms: C_14  and  C_15
REMARK                            x       y       z     vdW  Elec       q    Type
REMARK                         _______ _______ _______ _____ _____    ______ ____
ROOT
ATOM      1  N   UNL     1       2.553   3.703  19.840  0.00  0.00    +0.000 NA
ATOM      2  C   UNL     1       1.332   3.887  19.017  0.00  0.00    +0.000 C 
ATOM      3  C   UNL     1       1.621   4.497  17.644  0.00  0.00    +0.000 C 
ATOM      4  C   UNL     1       2.743   3.819  16.855  0.00  0.00    +0.000 C 
ATOM      5  N   UNL     1       3.913   3.614  17.708  0.00  0.00    +0.000 NA
ATOM      6  S   UNL     1       3.699   2.695  19.083  0.00  0.00    +0.000 S 
ATOM      7  O   UNL     1       4.907   2.699  19.863  0.00  0.00    +0.000 OA
ATOM      8  O   UNL     1       3.043   1.465  18.694  0.00  0.00    +0.000 OA
ENDROOT
BRANCH   1   9
ATOM      9  C   UNL     1       3.129   4.937  20.445  0.00  0.00    +0.000 C 
BRANCH   9  14
ATOM     10  C   UNL     1       1.163   8.207  20.218  0.00  0.00    +0.000 A 
ATOM     11  C   UNL     1       1.603   8.727  19.003  0.00  0.00    +0.000 A 
ATOM     12  C   UNL     1       2.524   8.021  18.226  0.00  0.00    +0.000 A 
ATOM     13  C   UNL     1       3.037   6.801  18.674  0.00  0.00    +0.000 A 
ATOM     14  C   UNL     1       2.644   6.279  19.916  0.00  0.00    +0.000 A 
ATOM     15  C   UNL     1       1.668   6.981  20.657  0.00  0.00    +0.000 A 
BRANCH  10  17
ATOM     16  C   UNL     1       0.522  10.374  20.970  0.00  0.00    +0.000 C 
ATOM     17  O   UNL     1       0.244   8.980  20.873  0.00  0.00    +0.000 OA
ENDBRANCH  10  17
ENDBRANCH   9  14
ENDBRANCH   1   9
BRANCH   5  18
ATOM     18  C   UNL     1       5.261   3.785  17.150  0.00  0.00    +0.000 C 
BRANCH  18  19
ATOM     19  C   UNL     1       6.065   5.009  17.549  0.00  0.00    +0.000 A 
ATOM     20  C   UNL     1       6.997   4.925  18.600  0.00  0.00    +0.000 A 
ATOM     21  C   UNL     1       7.847   5.995  18.896  0.00  0.00    +0.000 A 
ATOM     22  C   UNL     1       7.769   7.157  18.139  0.00  0.00    +0.000 A 
ATOM     23  F   UNL     1       8.597   8.177  18.407  0.00  0.00    +0.000 F 
ATOM     24  C   UNL     1       6.849   7.271  17.103  0.00  0.00    +0.000 A 
ATOM     25  C   UNL     1       5.994   6.200  16.808  0.00  0.00    +0.000 A 
ENDBRANCH  18  19
ENDBRANCH   5  18
TORSDOF 5
ENDMDL
MODEL 8
REMARK VINA RESULT:      -7.3      3.712      5.515
REMARK  Name = 
REMARK  6 active torsions:
REMARK  status: ('A' for Active; 'I' for Inactive)
REMARK    1  A    between atoms: C_1  and  O_2
REMARK    2  A    between atoms: O_2  and  C_3
REMARK    3  A    between atoms: C_7  and  C_8
REMARK    4  A    between atoms: C_8  and  N_9
REMARK    5  A    between atoms: N_13  and  C_14
REMARK    6  A    between atoms: C_14  and  C_15
REMARK                            x       y       z     vdW  Elec       q    Type
REMARK                         _______ _______ _______ _____ _____    ______ ____
ROOT
ATOM      1  N   UNL     1       2.974   2.781  17.688  0.00  0.00    +0.000 NA
ATOM      2  C   UNL     1       4.122   2.091  18.326  0.00  0.00    +0.000 C 
ATOM      3  C   UNL     1       4.571   2.753  19.630  0.00  0.00    +0.000 C 
ATOM      4  C   UNL     1       3.451   3.040  20.632  0.00  0.00    +0.000 C 
ATOM      5  N   UNL     1       2.320   3.681  19.961  0.00  0.00    +0.000 NA
ATOM      6  S   UNL     1       1.609   2.845  18.706  0.00  0.00    +0.000 S 
ATOM      7  O   UNL     1       0.604   3.664  18.084  0.00  0.00    +0.000 OA
ATOM      8  O   UNL     1       1.323   1.505  19.172  0.00  0.00    +0.000 OA
ENDROOT
BRANCH   1   9
ATOM      9  C   UNL     1       3.282   4.067  16.998  0.00  0.00    +0.000 C 
BRANCH   9  14
ATOM     10  C   UNL     1       6.870   5.363  16.754  0.00  0.00    +0.000 A 
ATOM     11  C   UNL     1       7.305   4.790  15.561  0.00  0.00    +0.000 A 
ATOM     12  C   UNL     1       6.442   3.995  14.805  0.00  0.00    +0.000 A 
ATOM     13  C   UNL     1       5.143   3.740  15.252  0.00  0.00    +0.000 A 
ATOM     14  C   UNL     1       4.697   4.268  16.473  0.00  0.00    +0.000 A 
ATOM     15  C   UNL     1       5.566   5.117  17.192  0.00  0.00    +0.000 A 
BRANCH  10  17
ATOM     16  C   UNL     1       7.497   7.524  17.536  0.00  0.00    +0.000 C 
ATOM     17  O   UNL     1       7.799   6.140  17.390  0.00  0.00    +0.000 OA
ENDBRANCH  10  17
ENDBRANCH   9  14
ENDBRANCH   1   9
BRANCH   5  18
ATOM     18  C   UNL     1       1.567   4.737  20.650  0.00  0.00    +0.000 C 
BRANCH  18  19
ATOM     19  C   UNL     1       1.747   6.174  20.197  0.00  0.00    +0.000 A 
ATOM     20  C   UNL     1       2.394   6.450  18.977  0.00  0.00    +0.000 A 
ATOM     21  C   UNL     1       2.451   7.752  18.472  0.00  0.00    +0.000 A 
ATOM     22  C   UNL     1       1.859   8.787  19.184  0.00  0.00    +0.000 A 
ATOM     23  F   UNL     1       1.893  10.033  18.691  0.00  0.00    +0.000 F 
ATOM     24  C   UNL     1       1.226   8.545  20.397  0.00  0.00    +0.000 A 
ATOM     25  C   UNL     1       1.171   7.240  20.908  0.00  0.00    +0.000 A 
ENDBRANCH  18  19
ENDBRANCH   5  18
TORSDOF 5
ENDMDL
MODEL 9
REMARK VINA RESULT:      -7.1      3.009      3.734
REMARK  Name = 
REMARK  6 active torsions:
REMARK  status: ('A' for Active; 'I' for Inactive)
REMARK    1  A    between atoms: C_1  and  O_2
REMARK    2  A    between atoms: O_2  and  C_3
REMARK    3  A    between atoms: C_7  and  C_8
REMARK    4  A    between atoms: C_8  and  N_9
REMARK    5  A    between atoms: N_13  and  C_14
REMARK    6  A    between atoms: C_14  and  C_15
REMARK                            x       y       z     vdW  Elec       q    Type
REMARK                         _______ _______ _______ _____ _____    ______ ____
ROOT
ATOM      1  N   UNL     1       5.611   4.002  17.097  0.00  0.00    +0.000 NA
ATOM      2  C   UNL     1       6.772   4.634  17.772  0.00  0.00    +0.000 C 
ATOM      3  C   UNL     1       6.384   5.836  18.634  0.00  0.00    +0.000 C 
ATOM      4  C   UNL     1       5.226   5.595  19.603  0.00  0.00    +0.000 C 
ATOM      5  N   UNL     1       4.117   4.933  18.916  0.00  0.00    +0.000 NA
ATOM      6  S   UNL     1       4.435   3.459  18.205  0.00  0.00    +0.000 S 
ATOM      7  O   UNL     1       3.280   3.013  17.473  0.00  0.00    +0.000 OA
ATOM      8  O   UNL     1       5.086   2.623  19.191  0.00  0.00    +0.000 OA
ENDROOT
BRANCH   1   9
ATOM      9  C   UNL     1       5.054   4.737  15.926  0.00  0.00    +0.000 C 
BRANCH   9  14
ATOM     10  C   UNL     1       5.656   3.440  12.381  0.00  0.00    +0.000 A 
ATOM     11  C   UNL     1       6.897   3.994  12.076  0.00  0.00    +0.000 A 
ATOM     12  C   UNL     1       7.571   4.776  13.017  0.00  0.00    +0.000 A 
ATOM     13  C   UNL     1       6.992   5.037  14.262  0.00  0.00    +0.000 A 
ATOM     14  C   UNL     1       5.723   4.528  14.574  0.00  0.00    +0.000 A 
ATOM     15  C   UNL     1       5.086   3.692  13.631  0.00  0.00    +0.000 A 
BRANCH  10  17
ATOM     16  C   UNL     1       3.791   3.009  10.964  0.00  0.00    +0.000 C 
ATOM     17  O   UNL     1       5.109   2.675  11.387  0.00  0.00    +0.000 OA
ENDBRANCH  10  17
ENDBRANCH   9  14
ENDBRANCH   1   9
BRANCH   5  18
ATOM     18  C   UNL     1       2.733   5.297  19.247  0.00  0.00    +0.000 C 
BRANCH  18  19
ATOM     19  C   UNL     1       2.290   6.735  19.049  0.00  0.00    +0.000 A 
ATOM     20  C   UNL     1       1.748   7.458  20.128  0.00  0.00    +0.000 A 
ATOM     21  C   UNL     1       1.460   8.821  20.010  0.00  0.00    +0.000 A 
ATOM     22  C   UNL     1       1.716   9.470  18.809  0.00  0.00    +0.000 A 
ATOM     23  F   UNL     1       1.462  10.782  18.699  0.00  0.00    +0.000 F 
ATOM     24  C   UNL     1       2.239   8.777  17.723  0.00  0.00    +0.000 A 
ATOM     25  C   UNL     1       2.524   7.410  17.839  0.00  0.00    +0.000 A 
ENDBRANCH  18  19
ENDBRANCH   5  18
TORSDOF 5
ENDMDL
