MODEL 1
REMARK VINA RESULT:      -7.4      0.000      0.000
REMARK  Name = 
REMARK  3 active torsions:
REMARK  status: ('A' for Active; 'I' for Inactive)
REMARK    1  A    between atoms: O_1  and  N_2
REMARK    2  A    between atoms: C_3  and  C_4
REMARK    3  A    between atoms: C_5  and  C_6
REMARK                            x       y       z     vdW  Elec       q    Type
REMARK                         _______ _______ _______ _____ _____    ______ ____
ROOT
ATOM      1  C   UNL     1       2.493   6.632  19.651  0.00  0.00    +0.000 A 
ATOM      2  C   UNL     1       2.947   6.862  18.357  0.00  0.00    +0.000 A 
ATOM      3  N   UNL     1       2.577   8.111  17.914  0.00  0.00    +0.000 NA
ATOM      4  C   UNL     1       1.865   8.632  18.887  0.00  0.00    +0.000 A 
ATOM      5  C   UNL     1       1.214   9.894  18.992  0.00  0.00    +0.000 A 
ATOM      6  C   UNL     1       0.549  10.217  20.119  0.00  0.00    +0.000 A 
ATOM      7  C   UNL     1       0.480   9.300  21.247  0.00  0.00    +0.000 A 
ATOM      8 BR   UNL     1      -0.449   9.829  22.769  0.00  0.00    +0.000 Br
ATOM      9  C   UNL     1       1.093   8.109  21.152  0.00  0.00    +0.000 A 
ATOM     10  N   UNL     1       1.775   7.771  19.979  0.00  0.00    +0.000 N 
ENDROOT
BRANCH   2  11
ATOM     11  C   UNL     1       3.718   5.947  17.525  0.00  0.00    +0.000 A 
ATOM     12  C   UNL     1       3.447   4.569  17.496  0.00  0.00    +0.000 A 
ATOM     13  C   UNL     1       4.234   3.703  16.733  0.00  0.00    +0.000 A 
ATOM     14  C   UNL     1       5.271   4.218  15.968  0.00  0.00    +0.000 A 
ATOM     15  F   UNL     1       6.029   3.386  15.241  0.00  0.00    +0.000 F 
ATOM     16  C   UNL     1       5.526   5.584  15.940  0.00  0.00    +0.000 A 
ATOM     17  C   UNL     1       4.748   6.449  16.715  0.00  0.00    +0.000 A 
ENDBRANCH   2  11
BRANCH   1  19
ATOM     18  N   UNL     1       1.762   4.675  20.793  0.00  0.00    +0.000 NA
ATOM     19  C   UNL     1       2.719   5.497  20.499  0.00  0.00    +0.000 C 
BRANCH  18  20
ATOM     20  O   UNL     1       2.267   3.645  21.592  0.00  0.00    +0.000 OA
ATOM     21  H   UNL     1       2.692   3.058  20.938  0.00  0.00    +0.000 HD
ENDBRANCH  18  20
ENDBRANCH   1  19
TORSDOF 3
ENDMDL
MODEL 2
REMARK VINA RESULT:      -7.3      0.117      1.087
REMARK  Name = 
REMARK  3 active torsions:
REMARK  status: ('A' for Active; 'I' for Inactive)
REMARK    1  A    between atoms: O_1  and  N_2
REMARK    2  A    between atoms: C_3  and  C_4
REMARK    3  A    between atoms: C_5  and  C_6
REMARK                            x       y       z     vdW  Elec       q    Type
REMARK                         _______ _______ _______ _____ _____    ______ ____
ROOT
ATOM      1  C   UNL     1       2.565   6.630  19.590  0.00  0.00    +0.000 A 
ATOM      2  C   UNL     1       3.021   6.887  18.302  0.00  0.00    +0.000 A 
ATOM      3  N   UNL     1       2.628   8.134  17.875  0.00  0.00    +0.000 NA
ATOM      4  C   UNL     1       1.900   8.626  18.851  0.00  0.00    +0.000 A 
ATOM      5  C   UNL     1       1.221   9.873  18.969  0.00  0.00    +0.000 A 
ATOM      6  C   UNL     1       0.542  10.165  20.096  0.00  0.00    +0.000 A 
ATOM      7  C   UNL     1       0.486   9.230  21.211  0.00  0.00    +0.000 A 
ATOM      8 BR   UNL     1      -0.464   9.718  22.734  0.00  0.00    +0.000 Br
ATOM      9  C   UNL     1       1.125   8.054  21.102  0.00  0.00    +0.000 A 
ATOM     10  N   UNL     1       1.820   7.748  19.930  0.00  0.00    +0.000 N 
ENDROOT
BRANCH   2  11
ATOM     11  C   UNL     1       3.817   6.001  17.463  0.00  0.00    +0.000 A 
ATOM     12  C   UNL     1       4.847   6.490  16.641  0.00  0.00    +0.000 A 
ATOM     13  C   UNL     1       5.561   5.629  15.805  0.00  0.00    +0.000 A 
ATOM     14  C   UNL     1       5.273   4.271  15.815  0.00  0.00    +0.000 A 
ATOM     15  F   UNL     1       5.955   3.447  15.008  0.00  0.00    +0.000 F 
ATOM     16  C   UNL     1       4.295   3.756  16.657  0.00  0.00    +0.000 A 
ATOM     17  C   UNL     1       3.570   4.619  17.483  0.00  0.00    +0.000 A 
ENDBRANCH   2  11
BRANCH   1  19
ATOM     18  N   UNL     1       1.854   4.681  20.758  0.00  0.00    +0.000 NA
ATOM     19  C   UNL     1       2.810   5.487  20.423  0.00  0.00    +0.000 C 
BRANCH  18  20
ATOM     20  O   UNL     1       2.376   3.639  21.531  0.00  0.00    +0.000 OA
ATOM     21  H   UNL     1       2.907   4.115  22.197  0.00  0.00    +0.000 HD
ENDBRANCH  18  20
ENDBRANCH   1  19
TORSDOF 3
ENDMDL
MODEL 3
REMARK VINA RESULT:      -7.0      4.448      4.931
REMARK  Name = 
REMARK  3 active torsions:
REMARK  status: ('A' for Active; 'I' for Inactive)
REMARK    1  A    between atoms: O_1  and  N_2
REMARK    2  A    between atoms: C_3  and  C_4
REMARK    3  A    between atoms: C_5  and  C_6
REMARK                            x       y       z     vdW  Elec       q    Type
REMARK                         _______ _______ _______ _____ _____    ______ ____
ROOT
ATOM      1  C   UNL     1       4.874   3.968  18.124  0.00  0.00    +0.000 A 
ATOM      2  C   UNL     1       4.607   4.037  16.762  0.00  0.00    +0.000 A 
ATOM      3  N   UNL     1       3.283   3.771  16.500  0.00  0.00    +0.000 NA
ATOM      4  C   UNL     1       2.744   3.491  17.665  0.00  0.00    +0.000 A 
ATOM      5  C   UNL     1       1.410   3.130  18.011  0.00  0.00    +0.000 A 
ATOM      6  C   UNL     1       1.087   2.906  19.301  0.00  0.00    +0.000 A 
ATOM      7  C   UNL     1       2.076   3.029  20.362  0.00  0.00    +0.000 A 
ATOM      8 BR   UNL     1       1.543   2.715  22.116  0.00  0.00    +0.000 Br
ATOM      9  C   UNL     1       3.334   3.370  20.038  0.00  0.00    +0.000 A 
ATOM     10  N   UNL     1       3.671   3.592  18.700  0.00  0.00    +0.000 N 
ENDROOT
BRANCH   2  11
ATOM     11  C   UNL     1       5.554   4.349  15.699  0.00  0.00    +0.000 A 
ATOM     12  C   UNL     1       6.593   5.276  15.885  0.00  0.00    +0.000 A 
ATOM     13  C   UNL     1       7.457   5.599  14.836  0.00  0.00    +0.000 A 
ATOM     14  C   UNL     1       7.307   4.967  13.609  0.00  0.00    +0.000 A 
ATOM     15  F   UNL     1       8.133   5.283  12.602  0.00  0.00    +0.000 F 
ATOM     16  C   UNL     1       6.320   4.009  13.416  0.00  0.00    +0.000 A 
ATOM     17  C   UNL     1       5.446   3.697  14.461  0.00  0.00    +0.000 A 
ENDBRANCH   2  11
BRANCH   1  19
ATOM     18  N   UNL     1       6.232   5.302  19.553  0.00  0.00    +0.000 NA
ATOM     19  C   UNL     1       6.099   4.244  18.820  0.00  0.00    +0.000 C 
BRANCH  18  20
ATOM     20  O   UNL     1       7.499   5.299  20.145  0.00  0.00    +0.000 OA
ATOM     21  H   UNL     1       7.308   4.998  21.054  0.00  0.00    +0.000 HD
ENDBRANCH  18  20
ENDBRANCH   1  19
TORSDOF 3
ENDMDL
MODEL 4
REMARK VINA RESULT:      -6.9      4.424      4.801
REMARK  Name = 
REMARK  3 active torsions:
REMARK  status: ('A' for Active; 'I' for Inactive)
REMARK    1  A    between atoms: O_1  and  N_2
REMARK    2  A    between atoms: C_3  and  C_4
REMARK    3  A    between atoms: C_5  and  C_6
REMARK                            x       y       z     vdW  Elec       q    Type
REMARK                         _______ _______ _______ _____ _____    ______ ____
ROOT
ATOM      1  C   UNL     1       4.728   3.938  18.246  0.00  0.00    +0.000 A 
ATOM      2  C   UNL     1       4.446   4.055  16.890  0.00  0.00    +0.000 A 
ATOM      3  N   UNL     1       3.119   3.800  16.635  0.00  0.00    +0.000 NA
ATOM      4  C   UNL     1       2.593   3.481  17.795  0.00  0.00    +0.000 A 
ATOM      5  C   UNL     1       1.262   3.111  18.144  0.00  0.00    +0.000 A 
ATOM      6  C   UNL     1       0.953   2.844  19.429  0.00  0.00    +0.000 A 
ATOM      7  C   UNL     1       1.954   2.929  20.483  0.00  0.00    +0.000 A 
ATOM      8 BR   UNL     1       1.440   2.555  22.231  0.00  0.00    +0.000 Br
ATOM      9  C   UNL     1       3.209   3.278  20.156  0.00  0.00    +0.000 A 
ATOM     10  N   UNL     1       3.532   3.545  18.823  0.00  0.00    +0.000 N 
ENDROOT
BRANCH   2  11
ATOM     11  C   UNL     1       5.382   4.401  15.828  0.00  0.00    +0.000 A 
ATOM     12  C   UNL     1       5.460   3.654  14.641  0.00  0.00    +0.000 A 
ATOM     13  C   UNL     1       6.402   3.972  13.660  0.00  0.00    +0.000 A 
ATOM     14  C   UNL     1       7.244   5.060  13.847  0.00  0.00    +0.000 A 
ATOM     15  F   UNL     1       8.151   5.360  12.908  0.00  0.00    +0.000 F 
ATOM     16  C   UNL     1       7.151   5.845  14.990  0.00  0.00    +0.000 A 
ATOM     17  C   UNL     1       6.219   5.518  15.978  0.00  0.00    +0.000 A 
ENDBRANCH   2  11
BRANCH   1  19
ATOM     18  N   UNL     1       6.172   5.306  19.555  0.00  0.00    +0.000 NA
ATOM     19  C   UNL     1       5.962   4.188  18.937  0.00  0.00    +0.000 C 
BRANCH  18  20
ATOM     20  O   UNL     1       7.426   5.263  20.173  0.00  0.00    +0.000 OA
ATOM     21  H   UNL     1       7.945   4.707  19.561  0.00  0.00    +0.000 HD
ENDBRANCH  18  20
ENDBRANCH   1  19
TORSDOF 3
ENDMDL
MODEL 5
REMARK VINA RESULT:      -6.8      5.140      7.022
REMARK  Name = 
REMARK  3 active torsions:
REMARK  status: ('A' for Active; 'I' for Inactive)
REMARK    1  A    between atoms: O_1  and  N_2
REMARK    2  A    between atoms: C_3  and  C_4
REMARK    3  A    between atoms: C_5  and  C_6
REMARK                            x       y       z     vdW  Elec       q    Type
REMARK                         _______ _______ _______ _____ _____    ______ ____
ROOT
ATOM      1  C   UNL     1       5.751   4.798  17.580  0.00  0.00    +0.000 A 
ATOM      2  C   UNL     1       4.583   4.057  17.718  0.00  0.00    +0.000 A 
ATOM      3  N   UNL     1       4.204   3.497  16.520  0.00  0.00    +0.000 NA
ATOM      4  C   UNL     1       5.085   3.919  15.642  0.00  0.00    +0.000 A 
ATOM      5  C   UNL     1       5.195   3.675  14.243  0.00  0.00    +0.000 A 
ATOM      6  C   UNL     1       6.216   4.211  13.544  0.00  0.00    +0.000 A 
ATOM      7  C   UNL     1       7.223   5.041  14.191  0.00  0.00    +0.000 A 
ATOM      8 BR   UNL     1       8.605   5.732  13.155  0.00  0.00    +0.000 Br
ATOM      9  C   UNL     1       7.121   5.272  15.510  0.00  0.00    +0.000 A 
ATOM     10  N   UNL     1       6.058   4.724  16.231  0.00  0.00    +0.000 N 
ENDROOT
BRANCH   2  11
ATOM     11  C   UNL     1       3.814   3.856  18.940  0.00  0.00    +0.000 A 
ATOM     12  C   UNL     1       3.994   2.720  19.746  0.00  0.00    +0.000 A 
ATOM     13  C   UNL     1       3.208   2.522  20.884  0.00  0.00    +0.000 A 
ATOM     14  C   UNL     1       2.265   3.477  21.239  0.00  0.00    +0.000 A 
ATOM     15  F   UNL     1       1.508   3.282  22.326  0.00  0.00    +0.000 F 
ATOM     16  C   UNL     1       2.104   4.633  20.486  0.00  0.00    +0.000 A 
ATOM     17  C   UNL     1       2.880   4.825  19.339  0.00  0.00    +0.000 A 
ENDBRANCH   2  11
BRANCH   1  19
ATOM     18  N   UNL     1       7.247   4.825  19.432  0.00  0.00    +0.000 NA
ATOM     19  C   UNL     1       6.514   5.478  18.588  0.00  0.00    +0.000 C 
BRANCH  18  20
ATOM     20  O   UNL     1       7.910   5.730  20.267  0.00  0.00    +0.000 OA
ATOM     21  H   UNL     1       7.301   6.493  20.278  0.00  0.00    +0.000 HD
ENDBRANCH  18  20
ENDBRANCH   1  19
TORSDOF 3
ENDMDL
MODEL 6
REMARK VINA RESULT:      -6.8      5.182      7.116
REMARK  Name = 
REMARK  3 active torsions:
REMARK  status: ('A' for Active; 'I' for Inactive)
REMARK    1  A    between atoms: O_1  and  N_2
REMARK    2  A    between atoms: C_3  and  C_4
REMARK    3  A    between atoms: C_5  and  C_6
REMARK                            x       y       z     vdW  Elec       q    Type
REMARK                         _______ _______ _______ _____ _____    ______ ____
ROOT
ATOM      1  C   UNL     1       5.805   4.789  17.465  0.00  0.00    +0.000 A 
ATOM      2  C   UNL     1       4.611   4.087  17.580  0.00  0.00    +0.000 A 
ATOM      3  N   UNL     1       4.219   3.570  16.367  0.00  0.00    +0.000 NA
ATOM      4  C   UNL     1       5.118   3.981  15.503  0.00  0.00    +0.000 A 
ATOM      5  C   UNL     1       5.226   3.768  14.099  0.00  0.00    +0.000 A 
ATOM      6  C   UNL     1       6.268   4.284  13.417  0.00  0.00    +0.000 A 
ATOM      7  C   UNL     1       7.301   5.061  14.088  0.00  0.00    +0.000 A 
ATOM      8 BR   UNL     1       8.711   5.728  13.075  0.00  0.00    +0.000 Br
ATOM      9  C   UNL     1       7.201   5.264  15.411  0.00  0.00    +0.000 A 
ATOM     10  N   UNL     1       6.116   4.737  16.115  0.00  0.00    +0.000 N 
ENDROOT
BRANCH   2  11
ATOM     11  C   UNL     1       3.830   3.883  18.793  0.00  0.00    +0.000 A 
ATOM     12  C   UNL     1       2.844   4.798  19.199  0.00  0.00    +0.000 A 
ATOM     13  C   UNL     1       2.145   4.611  20.393  0.00  0.00    +0.000 A 
ATOM     14  C   UNL     1       2.403   3.487  21.167  0.00  0.00    +0.000 A 
ATOM     15  F   UNL     1       1.736   3.311  22.315  0.00  0.00    +0.000 F 
ATOM     16  C   UNL     1       3.336   2.541  20.761  0.00  0.00    +0.000 A 
ATOM     17  C   UNL     1       4.047   2.736  19.573  0.00  0.00    +0.000 A 
ENDBRANCH   2  11
BRANCH   1  19
ATOM     18  N   UNL     1       7.636   4.841  18.985  0.00  0.00    +0.000 NA
ATOM     19  C   UNL     1       6.587   5.417  18.492  0.00  0.00    +0.000 C 
BRANCH  18  20
ATOM     20  O   UNL     1       8.227   5.687  19.929  0.00  0.00    +0.000 OA
ATOM     21  H   UNL     1       7.815   5.393  20.764  0.00  0.00    +0.000 HD
ENDBRANCH  18  20
ENDBRANCH   1  19
TORSDOF 3
ENDMDL
MODEL 7
REMARK VINA RESULT:      -6.6      4.255      6.813
REMARK  Name = 
REMARK  3 active torsions:
REMARK  status: ('A' for Active; 'I' for Inactive)
REMARK    1  A    between atoms: O_1  and  N_2
REMARK    2  A    between atoms: C_3  and  C_4
REMARK    3  A    between atoms: C_5  and  C_6
REMARK                            x       y       z     vdW  Elec       q    Type
REMARK                         _______ _______ _______ _____ _____    ______ ____
ROOT
ATOM      1  C   UNL     1       1.116   9.112  20.099  0.00  0.00    +0.000 A 
ATOM      2  C   UNL     1       1.307   9.927  18.988  0.00  0.00    +0.000 A 
ATOM      3  N   UNL     1       1.949   9.248  17.978  0.00  0.00    +0.000 NA
ATOM      4  C   UNL     1       2.200   8.054  18.462  0.00  0.00    +0.000 A 
ATOM      5  C   UNL     1       2.852   6.930  17.877  0.00  0.00    +0.000 A 
ATOM      6  C   UNL     1       2.976   5.784  18.576  0.00  0.00    +0.000 A 
ATOM      7  C   UNL     1       2.451   5.662  19.929  0.00  0.00    +0.000 A 
ATOM      8 BR   UNL     1       2.654   4.041  20.819  0.00  0.00    +0.000 Br
ATOM      9  C   UNL     1       1.836   6.719  20.483  0.00  0.00    +0.000 A 
ATOM     10  N   UNL     1       1.717   7.910  19.761  0.00  0.00    +0.000 N 
ENDROOT
BRANCH   2  11
ATOM     11  C   UNL     1       0.903  11.320  18.845  0.00  0.00    +0.000 A 
ATOM     12  C   UNL     1       1.831  12.370  18.934  0.00  0.00    +0.000 A 
ATOM     13  C   UNL     1       1.412  13.700  18.848  0.00  0.00    +0.000 A 
ATOM     14  C   UNL     1       0.070  13.982  18.634  0.00  0.00    +0.000 A 
ATOM     15  F   UNL     1      -0.331  15.258  18.558  0.00  0.00    +0.000 F 
ATOM     16  C   UNL     1      -0.859  12.958  18.491  0.00  0.00    +0.000 A 
ATOM     17  C   UNL     1      -0.443  11.628  18.593  0.00  0.00    +0.000 A 
ENDBRANCH   2  11
BRANCH   1  19
ATOM     18  N   UNL     1       1.081   9.761  22.389  0.00  0.00    +0.000 NA
ATOM     19  C   UNL     1       0.433   9.404  21.327  0.00  0.00    +0.000 C 
BRANCH  18  20
ATOM     20  O   UNL     1       0.173  10.025  23.419  0.00  0.00    +0.000 OA
ATOM     21  H   UNL     1       0.397  10.942  23.669  0.00  0.00    +0.000 HD
ENDBRANCH  18  20
ENDBRANCH   1  19
TORSDOF 3
ENDMDL
MODEL 8
REMARK VINA RESULT:      -6.5      4.251      6.756
REMARK  Name = 
REMARK  3 active torsions:
REMARK  status: ('A' for Active; 'I' for Inactive)
REMARK    1  A    between atoms: O_1  and  N_2
REMARK    2  A    between atoms: C_3  and  C_4
REMARK    3  A    between atoms: C_5  and  C_6
REMARK                            x       y       z     vdW  Elec       q    Type
REMARK                         _______ _______ _______ _____ _____    ______ ____
ROOT
ATOM      1  C   UNL     1       1.105   9.106  20.122  0.00  0.00    +0.000 A 
ATOM      2  C   UNL     1       1.287   9.936  19.022  0.00  0.00    +0.000 A 
ATOM      3  N   UNL     1       1.934   9.277  18.003  0.00  0.00    +0.000 NA
ATOM      4  C   UNL     1       2.197   8.078  18.471  0.00  0.00    +0.000 A 
ATOM      5  C   UNL     1       2.859   6.968  17.871  0.00  0.00    +0.000 A 
ATOM      6  C   UNL     1       2.994   5.815  18.555  0.00  0.00    +0.000 A 
ATOM      7  C   UNL     1       2.472   5.670  19.907  0.00  0.00    +0.000 A 
ATOM      8 BR   UNL     1       2.690   4.040  20.776  0.00  0.00    +0.000 Br
ATOM      9  C   UNL     1       1.847   6.715  20.475  0.00  0.00    +0.000 A 
ATOM     10  N   UNL     1       1.716   7.913  19.769  0.00  0.00    +0.000 N 
ENDROOT
BRANCH   2  11
ATOM     11  C   UNL     1       0.869  11.327  18.897  0.00  0.00    +0.000 A 
ATOM     12  C   UNL     1      -0.476  11.678  18.694  0.00  0.00    +0.000 A 
ATOM     13  C   UNL     1      -0.845  13.014  18.524  0.00  0.00    +0.000 A 
ATOM     14  C   UNL     1       0.124  14.006  18.593  0.00  0.00    +0.000 A 
ATOM     15  F   UNL     1      -0.232  15.286  18.423  0.00  0.00    +0.000 F 
ATOM     16  C   UNL     1       1.453  13.687  18.844  0.00  0.00    +0.000 A 
ATOM     17  C   UNL     1       1.825  12.349  18.999  0.00  0.00    +0.000 A 
ENDBRANCH   2  11
BRANCH   1  19
ATOM     18  N   UNL     1       1.060   9.779  22.405  0.00  0.00    +0.000 NA
ATOM     19  C   UNL     1       0.420   9.376  21.354  0.00  0.00    +0.000 C 
BRANCH  18  20
ATOM     20  O   UNL     1       0.149  10.006  23.442  0.00  0.00    +0.000 OA
ATOM     21  H   UNL     1       0.721  10.357  24.152  0.00  0.00    +0.000 HD
ENDBRANCH  18  20
ENDBRANCH   1  19
TORSDOF 3
ENDMDL
MODEL 9
REMARK VINA RESULT:      -6.5      2.942      4.319
REMARK  Name = 
REMARK  3 active torsions:
REMARK  status: ('A' for Active; 'I' for Inactive)
REMARK    1  A    between atoms: O_1  and  N_2
REMARK    2  A    between atoms: C_3  and  C_4
REMARK    3  A    between atoms: C_5  and  C_6
REMARK                            x       y       z     vdW  Elec       q    Type
REMARK                         _______ _______ _______ _____ _____    ______ ____
ROOT
ATOM      1  C   UNL     1       1.129   9.862  19.711  0.00  0.00    +0.000 A 
ATOM      2  C   UNL     1       1.445   8.540  20.001  0.00  0.00    +0.000 A 
ATOM      3  N   UNL     1       0.889   8.146  21.196  0.00  0.00    +0.000 NA
ATOM      4  C   UNL     1       0.281   9.211  21.668  0.00  0.00    +0.000 A 
ATOM      5  C   UNL     1      -0.455   9.406  22.872  0.00  0.00    +0.000 A 
ATOM      6  C   UNL     1      -1.013  10.605  23.133  0.00  0.00    +0.000 A 
ATOM      7  C   UNL     1      -0.884  11.719  22.204  0.00  0.00    +0.000 A 
ATOM      8 BR   UNL     1      -1.695  13.337  22.636  0.00  0.00    +0.000 Br
ATOM      9  C   UNL     1      -0.190  11.538  21.068  0.00  0.00    +0.000 A 
ATOM     10  N   UNL     1       0.396  10.297  20.803  0.00  0.00    +0.000 N 
ENDROOT
BRANCH   2  11
ATOM     11  C   UNL     1       2.250   7.634  19.191  0.00  0.00    +0.000 A 
ATOM     12  C   UNL     1       2.880   8.063  18.011  0.00  0.00    +0.000 A 
ATOM     13  C   UNL     1       3.602   7.164  17.222  0.00  0.00    +0.000 A 
ATOM     14  C   UNL     1       3.727   5.843  17.631  0.00  0.00    +0.000 A 
ATOM     15  F   UNL     1       4.415   4.982  16.870  0.00  0.00    +0.000 F 
ATOM     16  C   UNL     1       3.157   5.408  18.821  0.00  0.00    +0.000 A 
ATOM     17  C   UNL     1       2.421   6.304  19.603  0.00  0.00    +0.000 A 
ENDBRANCH   2  11
BRANCH   1  19
ATOM     18  N   UNL     1       2.183  11.693  18.614  0.00  0.00    +0.000 NA
ATOM     19  C   UNL     1       1.447  10.631  18.541  0.00  0.00    +0.000 C 
BRANCH  18  20
ATOM     20  O   UNL     1       2.369  12.216  17.330  0.00  0.00    +0.000 OA
ATOM     21  H   UNL     1       3.244  11.861  17.082  0.00  0.00    +0.000 HD
ENDBRANCH  18  20
ENDBRANCH   1  19
TORSDOF 3
ENDMDL
