MODEL 1
REMARK VINA RESULT:      -7.1      0.000      0.000
REMARK  Name = 
REMARK  10 active torsions:
REMARK  status: ('A' for Active; 'I' for Inactive)
REMARK    1  A    between atoms: C_1  and  C_2
REMARK    2  A    between atoms: C_2  and  C_3
REMARK    3  A    between atoms: C_3  and  C_4
REMARK    4  A    between atoms: C_3  and  C_5
REMARK    5  A    between atoms: C_5  and  C_6
REMARK    6  A    between atoms: C_5  and  N_14
REMARK    7  A    between atoms: C_16  and  CA_17
REMARK    8  A    between atoms: CA_17  and  N_18
REMARK    9  A    between atoms: CA_17  and  C_19
REMARK   10  A    between atoms: C_19  and  O_20
REMARK                            x       y       z     vdW  Elec       q    Type
REMARK                         _______ _______ _______ _____ _____    ______ ____
ROOT
ATOM      1  C   UNL     1       5.905   5.059  18.060  0.00  0.00    +0.000 C 
ENDROOT
BRANCH   1   2
ATOM      2  C   UNL     1       4.438   5.230  18.494  0.00  0.00    +0.000 C 
ATOM      3  O   UNL     1       3.902   6.342  18.418  0.00  0.00    +0.000 OA
ATOM      4  N   UNL     1       3.713   4.115  18.896  0.00  0.00    +0.000 N 
ATOM      5  C   UNL     1       2.261   4.221  19.105  0.00  0.00    +0.000 C 
ATOM      6  C   UNL     1       1.506   3.202  18.224  0.00  0.00    +0.000 C 
ATOM      7  N   UNL     1       1.979   1.817  18.413  0.00  0.00    +0.000 NA
ATOM      8  C   UNL     1       3.439   1.742  18.213  0.00  0.00    +0.000 C 
ATOM      9  C   UNL     1       4.211   2.745  19.092  0.00  0.00    +0.000 C 
ATOM     10  H   UNL     1       1.521   1.212  17.735  0.00  0.00    +0.000 HD
ENDBRANCH   1   2
BRANCH   1  11
ATOM     11  N   UNL     1       5.907   4.982  16.605  0.00  0.00    +0.000 N 
ATOM     12  C   UNL     1       6.400   3.995  15.796  0.00  0.00    +0.000 A 
ATOM     13  C   UNL     1       6.131   4.438  14.520  0.00  0.00    +0.000 A 
ATOM     14  N   UNL     1       5.470   5.640  14.600  0.00  0.00    +0.000 NA
ATOM     15  N   UNL     1       5.337   5.962  15.880  0.00  0.00    +0.000 NA
BRANCH  13  16
ATOM     16  CA  UNL     1       6.404   3.791  13.198  0.00  0.00    +0.000 C 
BRANCH  16  17
ATOM     17  N   UNL     1       5.117   3.582  12.507  0.00  0.00    +0.000 NA
ATOM     18  H1  UNL     1       5.242   2.833  11.825  0.00  0.00    +0.000 HD
ATOM     19  H2  UNL     1       4.932   4.405  11.931  0.00  0.00    +0.000 HD
ENDBRANCH  16  17
BRANCH  16  20
ATOM     20  C   UNL     1       7.391   4.594  12.323  0.00  0.00    +0.000 C 
BRANCH  20  21
ATOM     21  O   UNL     1       8.038   5.661  13.017  0.00  0.00    +0.000 OA
ATOM     22  H   UNL     1       7.871   6.469  12.505  0.00  0.00    +0.000 HD
ENDBRANCH  20  21
ENDBRANCH  16  20
ENDBRANCH  13  16
ENDBRANCH   1  11
BRANCH   1  23
ATOM     23  C   UNL     1       6.851   6.195  18.572  0.00  0.00    +0.000 C 
ATOM     24  C   UNL     1       7.944   5.622  19.493  0.00  0.00    +0.000 C 
BRANCH  23  26
ATOM     25  C   UNL     1       7.953   8.386  17.736  0.00  0.00    +0.000 C 
ATOM     26  C   UNL     1       7.509   6.966  17.395  0.00  0.00    +0.000 C 
ENDBRANCH  23  26
ENDBRANCH   1  23
TORSDOF 8
ENDMDL
MODEL 2
REMARK VINA RESULT:      -6.8      1.872      2.290
REMARK  Name = 
REMARK  10 active torsions:
REMARK  status: ('A' for Active; 'I' for Inactive)
REMARK    1  A    between atoms: C_1  and  C_2
REMARK    2  A    between atoms: C_2  and  C_3
REMARK    3  A    between atoms: C_3  and  C_4
REMARK    4  A    between atoms: C_3  and  C_5
REMARK    5  A    between atoms: C_5  and  C_6
REMARK    6  A    between atoms: C_5  and  N_14
REMARK    7  A    between atoms: C_16  and  CA_17
REMARK    8  A    between atoms: CA_17  and  N_18
REMARK    9  A    between atoms: CA_17  and  C_19
REMARK   10  A    between atoms: C_19  and  O_20
REMARK                            x       y       z     vdW  Elec       q    Type
REMARK                         _______ _______ _______ _____ _____    ______ ____
ROOT
ATOM      1  C   UNL     1       6.340   4.882  16.746  0.00  0.00    +0.000 C 
ENDROOT
BRANCH   1   2
ATOM      2  C   UNL     1       5.000   5.617  16.940  0.00  0.00    +0.000 C 
ATOM      3  O   UNL     1       4.668   6.504  16.145  0.00  0.00    +0.000 OA
ATOM      4  N   UNL     1       4.150   5.221  17.964  0.00  0.00    +0.000 N 
ATOM      5  C   UNL     1       2.782   5.760  18.031  0.00  0.00    +0.000 C 
ATOM      6  C   UNL     1       1.743   4.619  18.024  0.00  0.00    +0.000 C 
ATOM      7  N   UNL     1       1.981   3.617  19.081  0.00  0.00    +0.000 NA
ATOM      8  C   UNL     1       3.363   3.105  19.002  0.00  0.00    +0.000 C 
ATOM      9  C   UNL     1       4.416   4.230  19.018  0.00  0.00    +0.000 C 
ATOM     10  H   UNL     1       1.334   2.842  18.960  0.00  0.00    +0.000 HD
ENDBRANCH   1   2
BRANCH   1  11
ATOM     11  N   UNL     1       6.495   4.663  15.314  0.00  0.00    +0.000 N 
ATOM     12  C   UNL     1       5.801   3.817  14.492  0.00  0.00    +0.000 A 
ATOM     13  C   UNL     1       6.358   4.021  13.250  0.00  0.00    +0.000 A 
ATOM     14  N   UNL     1       7.332   4.985  13.354  0.00  0.00    +0.000 NA
ATOM     15  N   UNL     1       7.406   5.371  14.621  0.00  0.00    +0.000 NA
BRANCH  13  16
ATOM     16  CA  UNL     1       6.015   3.408  11.928  0.00  0.00    +0.000 C 
BRANCH  16  17
ATOM     17  N   UNL     1       6.809   2.175  11.766  0.00  0.00    +0.000 NA
ATOM     18  H1  UNL     1       7.770   2.444  11.549  0.00  0.00    +0.000 HD
ATOM     19  H2  UNL     1       6.491   1.705  10.917  0.00  0.00    +0.000 HD
ENDBRANCH  16  17
BRANCH  16  20
ATOM     20  C   UNL     1       4.504   3.133  11.762  0.00  0.00    +0.000 C 
BRANCH  20  21
ATOM     21  O   UNL     1       3.915   3.812  10.652  0.00  0.00    +0.000 OA
ATOM     22  H   UNL     1       4.341   3.461   9.853  0.00  0.00    +0.000 HD
ENDBRANCH  20  21
ENDBRANCH  16  20
ENDBRANCH  13  16
ENDBRANCH   1  11
BRANCH   1  23
ATOM     23  C   UNL     1       7.570   5.643  17.344  0.00  0.00    +0.000 C 
ATOM     24  C   UNL     1       7.207   7.108  17.651  0.00  0.00    +0.000 C 
BRANCH  23  26
ATOM     25  C   UNL     1       7.811   5.716  19.922  0.00  0.00    +0.000 C 
ATOM     26  C   UNL     1       8.099   4.954  18.631  0.00  0.00    +0.000 C 
ENDBRANCH  23  26
ENDBRANCH   1  23
TORSDOF 8
ENDMDL
MODEL 3
REMARK VINA RESULT:      -6.6      3.290      5.629
REMARK  Name = 
REMARK  10 active torsions:
REMARK  status: ('A' for Active; 'I' for Inactive)
REMARK    1  A    between atoms: C_1  and  C_2
REMARK    2  A    between atoms: C_2  and  C_3
REMARK    3  A    between atoms: C_3  and  C_4
REMARK    4  A    between atoms: C_3  and  C_5
REMARK    5  A    between atoms: C_5  and  C_6
REMARK    6  A    between atoms: C_5  and  N_14
REMARK    7  A    between atoms: C_16  and  CA_17
REMARK    8  A    between atoms: CA_17  and  N_18
REMARK    9  A    between atoms: CA_17  and  C_19
REMARK   10  A    between atoms: C_19  and  O_20
REMARK                            x       y       z     vdW  Elec       q    Type
REMARK                         _______ _______ _______ _____ _____    ______ ____
ROOT
ATOM      1  C   UNL     1       3.537   5.425  17.654  0.00  0.00    +0.000 C 
ENDROOT
BRANCH   1   2
ATOM      2  C   UNL     1       3.970   4.506  18.811  0.00  0.00    +0.000 C 
ATOM      3  O   UNL     1       5.079   4.663  19.335  0.00  0.00    +0.000 OA
ATOM      4  N   UNL     1       3.077   3.562  19.300  0.00  0.00    +0.000 N 
ATOM      5  C   UNL     1       3.389   2.829  20.537  0.00  0.00    +0.000 C 
ATOM      6  C   UNL     1       2.271   3.021  21.584  0.00  0.00    +0.000 C 
ATOM      7  N   UNL     1       0.934   2.667  21.070  0.00  0.00    +0.000 NA
ATOM      8  C   UNL     1       0.653   3.403  19.822  0.00  0.00    +0.000 C 
ATOM      9  C   UNL     1       1.753   3.215  18.760  0.00  0.00    +0.000 C 
ATOM     10  H   UNL     1       0.232   2.913  21.764  0.00  0.00    +0.000 HD
ENDBRANCH   1   2
BRANCH   1  11
ATOM     11  N   UNL     1       2.935   6.607  18.258  0.00  0.00    +0.000 N 
ATOM     12  C   UNL     1       2.644   7.814  17.683  0.00  0.00    +0.000 A 
ATOM     13  C   UNL     1       2.090   8.551  18.705  0.00  0.00    +0.000 A 
ATOM     14  N   UNL     1       2.040   7.771  19.836  0.00  0.00    +0.000 NA
ATOM     15  N   UNL     1       2.558   6.583  19.549  0.00  0.00    +0.000 NA
BRANCH  13  16
ATOM     16  CA  UNL     1       1.545   9.945  18.703  0.00  0.00    +0.000 C 
BRANCH  16  17
ATOM     17  N   UNL     1       2.061  10.645  17.511  0.00  0.00    +0.000 NA
ATOM     18  H1  UNL     1       2.998  10.989  17.728  0.00  0.00    +0.000 HD
ATOM     19  H2  UNL     1       1.513  11.497  17.384  0.00  0.00    +0.000 HD
ENDBRANCH  16  17
BRANCH  16  20
ATOM     20  C   UNL     1       0.002   9.992  18.762  0.00  0.00    +0.000 C 
BRANCH  20  21
ATOM     21  O   UNL     1      -0.622  10.023  17.478  0.00  0.00    +0.000 OA
ATOM     22  H   UNL     1      -0.034   9.544  16.870  0.00  0.00    +0.000 HD
ENDBRANCH  20  21
ENDBRANCH  16  20
ENDBRANCH  13  16
ENDBRANCH   1  11
BRANCH   1  23
ATOM     23  C   UNL     1       4.703   5.811  16.684  0.00  0.00    +0.000 C 
ATOM     24  C   UNL     1       5.746   6.685  17.406  0.00  0.00    +0.000 C 
BRANCH  23  26
ATOM     25  C   UNL     1       5.534   4.563  14.572  0.00  0.00    +0.000 C 
ATOM     26  C   UNL     1       5.395   4.553  16.092  0.00  0.00    +0.000 C 
ENDBRANCH  23  26
ENDBRANCH   1  23
TORSDOF 8
ENDMDL
MODEL 4
REMARK VINA RESULT:      -6.5      2.166      2.803
REMARK  Name = 
REMARK  10 active torsions:
REMARK  status: ('A' for Active; 'I' for Inactive)
REMARK    1  A    between atoms: C_1  and  C_2
REMARK    2  A    between atoms: C_2  and  C_3
REMARK    3  A    between atoms: C_3  and  C_4
REMARK    4  A    between atoms: C_3  and  C_5
REMARK    5  A    between atoms: C_5  and  C_6
REMARK    6  A    between atoms: C_5  and  N_14
REMARK    7  A    between atoms: C_16  and  CA_17
REMARK    8  A    between atoms: CA_17  and  N_18
REMARK    9  A    between atoms: CA_17  and  C_19
REMARK   10  A    between atoms: C_19  and  O_20
REMARK                            x       y       z     vdW  Elec       q    Type
REMARK                         _______ _______ _______ _____ _____    ______ ____
ROOT
ATOM      1  C   UNL     1       4.788   5.441  18.502  0.00  0.00    +0.000 C 
ENDROOT
BRANCH   1   2
ATOM      2  C   UNL     1       4.656   3.960  18.904  0.00  0.00    +0.000 C 
ATOM      3  O   UNL     1       5.450   3.475  19.719  0.00  0.00    +0.000 OA
ATOM      4  N   UNL     1       3.601   3.210  18.402  0.00  0.00    +0.000 N 
ATOM      5  C   UNL     1       3.335   1.867  18.940  0.00  0.00    +0.000 C 
ATOM      6  C   UNL     1       1.891   1.768  19.476  0.00  0.00    +0.000 C 
ATOM      7  N   UNL     1       0.878   2.160  18.476  0.00  0.00    +0.000 NA
ATOM      8  C   UNL     1       1.177   3.502  17.941  0.00  0.00    +0.000 C 
ATOM      9  C   UNL     1       2.612   3.618  17.392  0.00  0.00    +0.000 C 
ATOM     10  H   UNL     1      -0.038   2.176  18.917  0.00  0.00    +0.000 HD
ENDBRANCH   1   2
BRANCH   1  11
ATOM     11  N   UNL     1       5.590   5.476  17.286  0.00  0.00    +0.000 N 
ATOM     12  C   UNL     1       5.286   5.000  16.040  0.00  0.00    +0.000 A 
ATOM     13  C   UNL     1       6.395   5.303  15.282  0.00  0.00    +0.000 A 
ATOM     14  N   UNL     1       7.303   5.965  16.073  0.00  0.00    +0.000 NA
ATOM     15  N   UNL     1       6.800   6.067  17.296  0.00  0.00    +0.000 NA
BRANCH  13  16
ATOM     16  CA  UNL     1       6.665   5.062  13.830  0.00  0.00    +0.000 C 
BRANCH  16  17
ATOM     17  N   UNL     1       8.056   5.461  13.541  0.00  0.00    +0.000 NA
ATOM     18  H1  UNL     1       8.528   4.668  13.105  0.00  0.00    +0.000 HD
ATOM     19  H2  UNL     1       8.542   5.572  14.433  0.00  0.00    +0.000 HD
ENDBRANCH  16  17
BRANCH  16  20
ATOM     20  C   UNL     1       6.394   3.604  13.398  0.00  0.00    +0.000 C 
BRANCH  20  21
ATOM     21  O   UNL     1       5.713   3.491  12.148  0.00  0.00    +0.000 OA
ATOM     22  H   UNL     1       5.003   2.840  12.275  0.00  0.00    +0.000 HD
ENDBRANCH  20  21
ENDBRANCH  16  20
ENDBRANCH  13  16
ENDBRANCH   1  11
BRANCH   1  23
ATOM     23  C   UNL     1       3.414   6.164  18.300  0.00  0.00    +0.000 C 
ATOM     24  C   UNL     1       2.714   6.393  19.652  0.00  0.00    +0.000 C 
BRANCH  23  26
ATOM     25  C   UNL     1       2.431   8.499  17.762  0.00  0.00    +0.000 C 
ATOM     26  C   UNL     1       3.585   7.520  17.562  0.00  0.00    +0.000 C 
ENDBRANCH  23  26
ENDBRANCH   1  23
TORSDOF 8
ENDMDL
MODEL 5
REMARK VINA RESULT:      -6.5      3.125      5.067
REMARK  Name = 
REMARK  10 active torsions:
REMARK  status: ('A' for Active; 'I' for Inactive)
REMARK    1  A    between atoms: C_1  and  C_2
REMARK    2  A    between atoms: C_2  and  C_3
REMARK    3  A    between atoms: C_3  and  C_4
REMARK    4  A    between atoms: C_3  and  C_5
REMARK    5  A    between atoms: C_5  and  C_6
REMARK    6  A    between atoms: C_5  and  N_14
REMARK    7  A    between atoms: C_16  and  CA_17
REMARK    8  A    between atoms: CA_17  and  N_18
REMARK    9  A    between atoms: CA_17  and  C_19
REMARK   10  A    between atoms: C_19  and  O_20
REMARK                            x       y       z     vdW  Elec       q    Type
REMARK                         _______ _______ _______ _____ _____    ______ ____
ROOT
ATOM      1  C   UNL     1       5.051   5.217  17.859  0.00  0.00    +0.000 C 
ENDROOT
BRANCH   1   2
ATOM      2  C   UNL     1       4.754   3.973  18.716  0.00  0.00    +0.000 C 
ATOM      3  O   UNL     1       5.481   3.705  19.681  0.00  0.00    +0.000 OA
ATOM      4  N   UNL     1       3.629   3.208  18.436  0.00  0.00    +0.000 N 
ATOM      5  C   UNL     1       3.211   2.150  19.370  0.00  0.00    +0.000 C 
ATOM      6  C   UNL     1       1.759   2.378  19.840  0.00  0.00    +0.000 C 
ATOM      7  N   UNL     1       0.807   2.518  18.722  0.00  0.00    +0.000 NA
ATOM      8  C   UNL     1       1.257   3.573  17.793  0.00  0.00    +0.000 C 
ATOM      9  C   UNL     1       2.702   3.358  17.304  0.00  0.00    +0.000 C 
ATOM     10  H   UNL     1      -0.108   2.770  19.090  0.00  0.00    +0.000 HD
ENDBRANCH   1   2
BRANCH   1  11
ATOM     11  N   UNL     1       4.025   6.201  18.178  0.00  0.00    +0.000 N 
ATOM     12  C   UNL     1       3.267   6.318  19.311  0.00  0.00    +0.000 A 
ATOM     13  C   UNL     1       2.472   7.417  19.074  0.00  0.00    +0.000 A 
ATOM     14  N   UNL     1       2.790   7.936  17.842  0.00  0.00    +0.000 NA
ATOM     15  N   UNL     1       3.743   7.185  17.304  0.00  0.00    +0.000 NA
BRANCH  13  16
ATOM     16  CA  UNL     1       1.445   8.069  19.947  0.00  0.00    +0.000 C 
BRANCH  16  17
ATOM     17  N   UNL     1       1.866   7.920  21.353  0.00  0.00    +0.000 NA
ATOM     18  H1  UNL     1       1.075   8.171  21.948  0.00  0.00    +0.000 HD
ATOM     19  H2  UNL     1       2.558   8.644  21.552  0.00  0.00    +0.000 HD
ENDBRANCH  16  17
BRANCH  16  20
ATOM     20  C   UNL     1       1.195   9.549  19.585  0.00  0.00    +0.000 C 
BRANCH  20  21
ATOM     21  O   UNL     1       0.533   9.732  18.333  0.00  0.00    +0.000 OA
ATOM     22  H   UNL     1       0.586  10.680  18.125  0.00  0.00    +0.000 HD
ENDBRANCH  20  21
ENDBRANCH  16  20
ENDBRANCH  13  16
ENDBRANCH   1  11
BRANCH   1  23
ATOM     23  C   UNL     1       6.488   5.801  18.073  0.00  0.00    +0.000 C 
ATOM     24  C   UNL     1       7.560   4.771  17.674  0.00  0.00    +0.000 C 
BRANCH  23  26
ATOM     25  C   UNL     1       7.847   7.985  17.766  0.00  0.00    +0.000 C 
ATOM     26  C   UNL     1       6.697   7.113  17.268  0.00  0.00    +0.000 C 
ENDBRANCH  23  26
ENDBRANCH   1  23
TORSDOF 8
ENDMDL
MODEL 6
REMARK VINA RESULT:      -6.4      1.931      2.535
REMARK  Name = 
REMARK  10 active torsions:
REMARK  status: ('A' for Active; 'I' for Inactive)
REMARK    1  A    between atoms: C_1  and  C_2
REMARK    2  A    between atoms: C_2  and  C_3
REMARK    3  A    between atoms: C_3  and  C_4
REMARK    4  A    between atoms: C_3  and  C_5
REMARK    5  A    between atoms: C_5  and  C_6
REMARK    6  A    between atoms: C_5  and  N_14
REMARK    7  A    between atoms: C_16  and  CA_17
REMARK    8  A    between atoms: CA_17  and  N_18
REMARK    9  A    between atoms: CA_17  and  C_19
REMARK   10  A    between atoms: C_19  and  O_20
REMARK                            x       y       z     vdW  Elec       q    Type
REMARK                         _______ _______ _______ _____ _____    ______ ____
ROOT
ATOM      1  C   UNL     1       4.874   5.337  18.487  0.00  0.00    +0.000 C 
ENDROOT
BRANCH   1   2
ATOM      2  C   UNL     1       4.652   3.875  18.917  0.00  0.00    +0.000 C 
ATOM      3  O   UNL     1       5.410   3.360  19.748  0.00  0.00    +0.000 OA
ATOM      4  N   UNL     1       3.558   3.179  18.419  0.00  0.00    +0.000 N 
ATOM      5  C   UNL     1       3.209   1.864  18.981  0.00  0.00    +0.000 C 
ATOM      6  C   UNL     1       1.758   1.862  19.506  0.00  0.00    +0.000 C 
ATOM      7  N   UNL     1       0.778   2.292  18.490  0.00  0.00    +0.000 NA
ATOM      8  C   UNL     1       1.159   3.604  17.932  0.00  0.00    +0.000 C 
ATOM      9  C   UNL     1       2.603   3.624  17.394  0.00  0.00    +0.000 C 
ATOM     10  H   UNL     1      -0.140   2.372  18.922  0.00  0.00    +0.000 HD
ENDBRANCH   1   2
BRANCH   1  11
ATOM     11  N   UNL     1       5.730   5.303  17.309  0.00  0.00    +0.000 N 
ATOM     12  C   UNL     1       5.690   4.450  16.239  0.00  0.00    +0.000 A 
ATOM     13  C   UNL     1       6.719   4.875  15.429  0.00  0.00    +0.000 A 
ATOM     14  N   UNL     1       7.317   5.967  16.010  0.00  0.00    +0.000 NA
ATOM     15  N   UNL     1       6.703   6.221  17.158  0.00  0.00    +0.000 NA
BRANCH  13  16
ATOM     16  CA  UNL     1       7.171   4.362  14.097  0.00  0.00    +0.000 C 
BRANCH  16  17
ATOM     17  N   UNL     1       6.087   3.546  13.520  0.00  0.00    +0.000 NA
ATOM     18  H1  UNL     1       6.446   3.093  12.677  0.00  0.00    +0.000 HD
ATOM     19  H2  UNL     1       5.369   4.181  13.166  0.00  0.00    +0.000 HD
ENDBRANCH  16  17
BRANCH  16  20
ATOM     20  C   UNL     1       7.610   5.485  13.132  0.00  0.00    +0.000 C 
BRANCH  20  21
ATOM     21  O   UNL     1       8.924   5.982  13.387  0.00  0.00    +0.000 OA
ATOM     22  H   UNL     1       9.015   6.047  14.352  0.00  0.00    +0.000 HD
ENDBRANCH  20  21
ENDBRANCH  16  20
ENDBRANCH  13  16
ENDBRANCH   1  11
BRANCH   1  23
ATOM     23  C   UNL     1       3.548   6.120  18.206  0.00  0.00    +0.000 C 
ATOM     24  C   UNL     1       2.806   6.426  19.520  0.00  0.00    +0.000 C 
BRANCH  23  26
ATOM     25  C   UNL     1       2.749   8.515  17.629  0.00  0.00    +0.000 C 
ATOM     26  C   UNL     1       3.816   7.441  17.435  0.00  0.00    +0.000 C 
ENDBRANCH  23  26
ENDBRANCH   1  23
TORSDOF 8
ENDMDL
MODEL 7
REMARK VINA RESULT:      -6.4      1.438      1.547
REMARK  Name = 
REMARK  10 active torsions:
REMARK  status: ('A' for Active; 'I' for Inactive)
REMARK    1  A    between atoms: C_1  and  C_2
REMARK    2  A    between atoms: C_2  and  C_3
REMARK    3  A    between atoms: C_3  and  C_4
REMARK    4  A    between atoms: C_3  and  C_5
REMARK    5  A    between atoms: C_5  and  C_6
REMARK    6  A    between atoms: C_5  and  N_14
REMARK    7  A    between atoms: C_16  and  CA_17
REMARK    8  A    between atoms: CA_17  and  N_18
REMARK    9  A    between atoms: CA_17  and  C_19
REMARK   10  A    between atoms: C_19  and  O_20
REMARK                            x       y       z     vdW  Elec       q    Type
REMARK                         _______ _______ _______ _____ _____    ______ ____
ROOT
ATOM      1  C   UNL     1       6.057   4.972  17.700  0.00  0.00    +0.000 C 
ENDROOT
BRANCH   1   2
ATOM      2  C   UNL     1       4.529   5.127  17.817  0.00  0.00    +0.000 C 
ATOM      3  O   UNL     1       3.966   6.077  17.259  0.00  0.00    +0.000 OA
ATOM      4  N   UNL     1       3.796   4.156  18.486  0.00  0.00    +0.000 N 
ATOM      5  C   UNL     1       2.327   4.172  18.421  0.00  0.00    +0.000 C 
ATOM      6  C   UNL     1       1.788   2.834  17.873  0.00  0.00    +0.000 C 
ATOM      7  N   UNL     1       2.282   1.664  18.624  0.00  0.00    +0.000 NA
ATOM      8  C   UNL     1       3.756   1.679  18.687  0.00  0.00    +0.000 C 
ATOM      9  C   UNL     1       4.313   3.005  19.242  0.00  0.00    +0.000 C 
ATOM     10  H   UNL     1       1.981   0.813  18.155  0.00  0.00    +0.000 HD
ENDBRANCH   1   2
BRANCH   1  11
ATOM     11  N   UNL     1       6.356   4.815  16.283  0.00  0.00    +0.000 N 
ATOM     12  C   UNL     1       5.601   4.227  15.304  0.00  0.00    +0.000 A 
ATOM     13  C   UNL     1       6.361   4.364  14.164  0.00  0.00    +0.000 A 
ATOM     14  N   UNL     1       7.514   5.041  14.479  0.00  0.00    +0.000 NA
ATOM     15  N   UNL     1       7.499   5.313  15.777  0.00  0.00    +0.000 NA
BRANCH  13  16
ATOM     16  CA  UNL     1       6.070   3.945  12.756  0.00  0.00    +0.000 C 
BRANCH  16  17
ATOM     17  N   UNL     1       7.078   2.946  12.350  0.00  0.00    +0.000 NA
ATOM     18  H1  UNL     1       7.980   3.419  12.280  0.00  0.00    +0.000 HD
ATOM     19  H2  UNL     1       6.875   2.669  11.388  0.00  0.00    +0.000 HD
ENDBRANCH  16  17
BRANCH  16  20
ATOM     20  C   UNL     1       4.634   3.407  12.569  0.00  0.00    +0.000 C 
BRANCH  20  21
ATOM     21  O   UNL     1       4.327   3.045  11.223  0.00  0.00    +0.000 OA
ATOM     22  H   UNL     1       3.520   2.504  11.257  0.00  0.00    +0.000 HD
ENDBRANCH  20  21
ENDBRANCH  16  20
ENDBRANCH  13  16
ENDBRANCH   1  11
BRANCH   1  23
ATOM     23  C   UNL     1       6.862   6.161  18.324  0.00  0.00    +0.000 C 
ATOM     24  C   UNL     1       8.101   5.644  19.078  0.00  0.00    +0.000 C 
BRANCH  23  26
ATOM     25  C   UNL     1       7.981   8.436  17.793  0.00  0.00    +0.000 C 
ATOM     26  C   UNL     1       7.297   7.187  17.243  0.00  0.00    +0.000 C 
ENDBRANCH  23  26
ENDBRANCH   1  23
TORSDOF 8
ENDMDL
MODEL 8
REMARK VINA RESULT:      -6.4      1.572      1.943
REMARK  Name = 
REMARK  10 active torsions:
REMARK  status: ('A' for Active; 'I' for Inactive)
REMARK    1  A    between atoms: C_1  and  C_2
REMARK    2  A    between atoms: C_2  and  C_3
REMARK    3  A    between atoms: C_3  and  C_4
REMARK    4  A    between atoms: C_3  and  C_5
REMARK    5  A    between atoms: C_5  and  C_6
REMARK    6  A    between atoms: C_5  and  N_14
REMARK    7  A    between atoms: C_16  and  CA_17
REMARK    8  A    between atoms: CA_17  and  N_18
REMARK    9  A    between atoms: CA_17  and  C_19
REMARK   10  A    between atoms: C_19  and  O_20
REMARK                            x       y       z     vdW  Elec       q    Type
REMARK                         _______ _______ _______ _____ _____    ______ ____
ROOT
ATOM      1  C   UNL     1       6.371   5.640  17.139  0.00  0.00    +0.000 C 
ENDROOT
BRANCH   1   2
ATOM      2  C   UNL     1       4.897   6.053  17.310  0.00  0.00    +0.000 C 
ATOM      3  O   UNL     1       4.453   7.014  16.671  0.00  0.00    +0.000 OA
ATOM      4  N   UNL     1       4.068   5.292  18.124  0.00  0.00    +0.000 N 
ATOM      5  C   UNL     1       2.618   5.539  18.128  0.00  0.00    +0.000 C 
ATOM      6  C   UNL     1       1.843   4.254  17.770  0.00  0.00    +0.000 C 
ATOM      7  N   UNL     1       2.198   3.109  18.630  0.00  0.00    +0.000 NA
ATOM      8  C   UNL     1       3.657   2.892  18.620  0.00  0.00    +0.000 C 
ATOM      9  C   UNL     1       4.449   4.163  18.986  0.00  0.00    +0.000 C 
ATOM     10  H   UNL     1       1.737   2.272  18.280  0.00  0.00    +0.000 HD
ENDBRANCH   1   2
BRANCH   1  11
ATOM     11  N   UNL     1       6.506   5.115  15.787  0.00  0.00    +0.000 N 
ATOM     12  C   UNL     1       5.763   4.153  15.159  0.00  0.00    +0.000 A 
ATOM     13  C   UNL     1       6.323   4.058  13.905  0.00  0.00    +0.000 A 
ATOM     14  N   UNL     1       7.349   4.967  13.809  0.00  0.00    +0.000 NA
ATOM     15  N   UNL     1       7.450   5.609  14.965  0.00  0.00    +0.000 NA
BRANCH  13  16
ATOM     16  CA  UNL     1       5.939   3.198  12.741  0.00  0.00    +0.000 C 
BRANCH  16  17
ATOM     17  N   UNL     1       4.672   3.708  12.183  0.00  0.00    +0.000 NA
ATOM     18  H1  UNL     1       4.459   3.170  11.341  0.00  0.00    +0.000 HD
ATOM     19  H2  UNL     1       4.841   4.652  11.832  0.00  0.00    +0.000 HD
ENDBRANCH  16  17
BRANCH  16  20
ATOM     20  C   UNL     1       7.040   3.114  11.661  0.00  0.00    +0.000 C 
BRANCH  20  21
ATOM     21  O   UNL     1       7.382   1.779  11.290  0.00  0.00    +0.000 OA
ATOM     22  H   UNL     1       8.062   1.846  10.599  0.00  0.00    +0.000 HD
ENDBRANCH  20  21
ENDBRANCH  16  20
ENDBRANCH  13  16
ENDBRANCH   1  11
BRANCH   1  23
ATOM     23  C   UNL     1       7.386   6.802  17.404  0.00  0.00    +0.000 C 
ATOM     24  C   UNL     1       6.668   8.165  17.402  0.00  0.00    +0.000 C 
BRANCH  23  26
ATOM     25  C   UNL     1       7.604   5.473  19.617  0.00  0.00    +0.000 C 
ATOM     26  C   UNL     1       8.139   6.609  18.748  0.00  0.00    +0.000 C 
ENDBRANCH  23  26
ENDBRANCH   1  23
TORSDOF 8
ENDMDL
MODEL 9
REMARK VINA RESULT:      -6.4      1.710      2.422
REMARK  Name = 
REMARK  10 active torsions:
REMARK  status: ('A' for Active; 'I' for Inactive)
REMARK    1  A    between atoms: C_1  and  C_2
REMARK    2  A    between atoms: C_2  and  C_3
REMARK    3  A    between atoms: C_3  and  C_4
REMARK    4  A    between atoms: C_3  and  C_5
REMARK    5  A    between atoms: C_5  and  C_6
REMARK    6  A    between atoms: C_5  and  N_14
REMARK    7  A    between atoms: C_16  and  CA_17
REMARK    8  A    between atoms: CA_17  and  N_18
REMARK    9  A    between atoms: CA_17  and  C_19
REMARK   10  A    between atoms: C_19  and  O_20
REMARK                            x       y       z     vdW  Elec       q    Type
REMARK                         _______ _______ _______ _____ _____    ______ ____
ROOT
ATOM      1  C   UNL     1       5.223   5.711  17.990  0.00  0.00    +0.000 C 
ENDROOT
BRANCH   1   2
ATOM      2  C   UNL     1       5.242   4.588  19.043  0.00  0.00    +0.000 C 
ATOM      3  O   UNL     1       5.798   4.778  20.131  0.00  0.00    +0.000 OA
ATOM      4  N   UNL     1       4.568   3.401  18.783  0.00  0.00    +0.000 N 
ATOM      5  C   UNL     1       4.392   2.408  19.854  0.00  0.00    +0.000 C 
ATOM      6  C   UNL     1       2.897   2.091  20.066  0.00  0.00    +0.000 C 
ATOM      7  N   UNL     1       2.216   1.673  18.826  0.00  0.00    +0.000 NA
ATOM      8  C   UNL     1       2.420   2.677  17.764  0.00  0.00    +0.000 C 
ATOM      9  C   UNL     1       3.909   3.000  17.531  0.00  0.00    +0.000 C 
ATOM     10  H   UNL     1       1.218   1.582  19.006  0.00  0.00    +0.000 HD
ENDBRANCH   1   2
BRANCH   1  11
ATOM     11  N   UNL     1       5.965   5.219  16.836  0.00  0.00    +0.000 N 
ATOM     12  C   UNL     1       5.511   4.941  15.576  0.00  0.00    +0.000 A 
ATOM     13  C   UNL     1       6.632   4.515  14.899  0.00  0.00    +0.000 A 
ATOM     14  N   UNL     1       7.710   4.575  15.748  0.00  0.00    +0.000 NA
ATOM     15  N   UNL     1       7.291   5.008  16.930  0.00  0.00    +0.000 NA
BRANCH  13  16
ATOM     16  CA  UNL     1       6.793   4.090  13.473  0.00  0.00    +0.000 C 
BRANCH  16  17
ATOM     17  N   UNL     1       5.453   3.835  12.909  0.00  0.00    +0.000 NA
ATOM     18  H1  UNL     1       5.489   2.954  12.394  0.00  0.00    +0.000 HD
ATOM     19  H2  UNL     1       5.281   4.533  12.182  0.00  0.00    +0.000 HD
ENDBRANCH  16  17
BRANCH  16  20
ATOM     20  C   UNL     1       7.581   5.110  12.622  0.00  0.00    +0.000 C 
BRANCH  20  21
ATOM     21  O   UNL     1       8.493   5.906  13.378  0.00  0.00    +0.000 OA
ATOM     22  H   UNL     1       9.323   5.935  12.873  0.00  0.00    +0.000 HD
ENDBRANCH  20  21
ENDBRANCH  16  20
ENDBRANCH  13  16
ENDBRANCH   1  11
BRANCH   1  23
ATOM     23  C   UNL     1       3.783   6.174  17.586  0.00  0.00    +0.000 C 
ATOM     24  C   UNL     1       2.811   6.028  18.772  0.00  0.00    +0.000 C 
BRANCH  23  26
ATOM     25  C   UNL     1       2.683   8.517  17.692  0.00  0.00    +0.000 C 
ATOM     26  C   UNL     1       3.774   7.642  17.080  0.00  0.00    +0.000 C 
ENDBRANCH  23  26
ENDBRANCH   1  23
TORSDOF 8
ENDMDL
