MODEL 1
REMARK VINA RESULT:      -7.3      0.000      0.000
REMARK  Name = 
REMARK  7 active torsions:
REMARK  status: ('A' for Active; 'I' for Inactive)
REMARK    1  A    between atoms: C_1  and  C_2
REMARK    2  A    between atoms: C_2  and  O_3
REMARK    3  A    between atoms: O_3  and  C_4
REMARK    4  A    between atoms: C_7  and  N_8
REMARK    5  A    between atoms: C_9  and  C_11
REMARK    6  A    between atoms: N_14  and  S_15
REMARK    7  A    between atoms: S_15  and  C_16
REMARK                            x       y       z     vdW  Elec       q    Type
REMARK                         _______ _______ _______ _____ _____    ______ ____
ROOT
ATOM      1  N   UNL     1       3.170   6.361  19.625  0.00  0.00    +0.000 N 
ATOM      2  C   UNL     1       2.837   5.083  19.214  0.00  0.00    +0.000 C 
ATOM      3  O   UNL     1       1.715   4.729  18.863  0.00  0.00    +0.000 OA
ATOM      4  H   UNL     1       4.114   6.529  19.947  0.00  0.00    +0.000 HD
ENDROOT
BRANCH   1   8
ATOM      5  C   UNL     1       0.535   9.690  19.603  0.00  0.00    +0.000 A 
ATOM      6  C   UNL     1       0.664   8.921  20.751  0.00  0.00    +0.000 A 
ATOM      7  C   UNL     1       1.537   7.832  20.782  0.00  0.00    +0.000 A 
ATOM      8  C   UNL     1       2.288   7.474  19.656  0.00  0.00    +0.000 A 
ATOM      9  C   UNL     1       2.147   8.254  18.502  0.00  0.00    +0.000 A 
ATOM     10  C   UNL     1       1.271   9.352  18.470  0.00  0.00    +0.000 A 
BRANCH   5  11
ATOM     11  O   UNL     1      -0.357  10.717  19.711  0.00  0.00    +0.000 OA
BRANCH  11  13
ATOM     12  C   UNL     1      -2.197  10.616  18.220  0.00  0.00    +0.000 C 
ATOM     13  C   UNL     1      -0.853  11.268  18.495  0.00  0.00    +0.000 C 
ENDBRANCH  11  13
ENDBRANCH   5  11
ENDBRANCH   1   8
BRANCH   2  14
ATOM     14  C   UNL     1       3.983   4.070  19.245  0.00  0.00    +0.000 C 
ATOM     15  C   UNL     1       5.369   4.715  19.341  0.00  0.00    +0.000 C 
ATOM     16  C   UNL     1       5.780   5.455  18.068  0.00  0.00    +0.000 C 
ATOM     17  N   UNL     1       5.624   4.610  16.860  0.00  0.00    +0.000 NA
ATOM     18  C   UNL     1       4.305   3.942  16.722  0.00  0.00    +0.000 C 
ATOM     19  C   UNL     1       3.945   3.176  17.993  0.00  0.00    +0.000 C 
BRANCH  17  20
ATOM     20  S   UNL     1       6.233   5.288  15.410  0.00  0.00    +0.000 S 
ATOM     21  C   UNL     1       6.026   3.961  14.227  0.00  0.00    +0.000 C 
ATOM     22  O   UNL     1       5.364   6.379  15.023  0.00  0.00    +0.000 OA
ATOM     23  O   UNL     1       7.655   5.492  15.586  0.00  0.00    +0.000 OA
ENDBRANCH  17  20
ENDBRANCH   2  14
TORSDOF 5
ENDMDL
MODEL 2
REMARK VINA RESULT:      -7.1      0.437      1.194
REMARK  Name = 
REMARK  7 active torsions:
REMARK  status: ('A' for Active; 'I' for Inactive)
REMARK    1  A    between atoms: C_1  and  C_2
REMARK    2  A    between atoms: C_2  and  O_3
REMARK    3  A    between atoms: O_3  and  C_4
REMARK    4  A    between atoms: C_7  and  N_8
REMARK    5  A    between atoms: C_9  and  C_11
REMARK    6  A    between atoms: N_14  and  S_15
REMARK    7  A    between atoms: S_15  and  C_16
REMARK                            x       y       z     vdW  Elec       q    Type
REMARK                         _______ _______ _______ _____ _____    ______ ____
ROOT
ATOM      1  N   UNL     1       3.014   6.342  19.764  0.00  0.00    +0.000 N 
ATOM      2  C   UNL     1       2.758   5.145  19.119  0.00  0.00    +0.000 C 
ATOM      3  O   UNL     1       1.733   4.893  18.492  0.00  0.00    +0.000 OA
ATOM      4  H   UNL     1       3.870   6.422  20.300  0.00  0.00    +0.000 HD
ENDROOT
BRANCH   1   8
ATOM      5  C   UNL     1       0.469   9.738  19.869  0.00  0.00    +0.000 A 
ATOM      6  C   UNL     1       1.207   9.465  18.725  0.00  0.00    +0.000 A 
ATOM      7  C   UNL     1       2.038   8.344  18.667  0.00  0.00    +0.000 A 
ATOM      8  C   UNL     1       2.165   7.480  19.760  0.00  0.00    +0.000 A 
ATOM      9  C   UNL     1       1.419   7.767  20.910  0.00  0.00    +0.000 A 
ATOM     10  C   UNL     1       0.581   8.892  20.969  0.00  0.00    +0.000 A 
BRANCH   5  11
ATOM     11  O   UNL     1      -0.293  10.867  19.790  0.00  0.00    +0.000 OA
BRANCH  11  13
ATOM     12  C   UNL     1      -0.738  12.740  18.408  0.00  0.00    +0.000 C 
ATOM     13  C   UNL     1      -0.783  11.224  18.502  0.00  0.00    +0.000 C 
ENDBRANCH  11  13
ENDBRANCH   5  11
ENDBRANCH   1   8
BRANCH   2  14
ATOM     14  C   UNL     1       3.852   4.085  19.252  0.00  0.00    +0.000 C 
ATOM     15  C   UNL     1       5.259   4.672  19.400  0.00  0.00    +0.000 C 
ATOM     16  C   UNL     1       5.772   5.340  18.124  0.00  0.00    +0.000 C 
ATOM     17  N   UNL     1       5.642   4.454  16.944  0.00  0.00    +0.000 NA
ATOM     18  C   UNL     1       4.304   3.839  16.758  0.00  0.00    +0.000 C 
ATOM     19  C   UNL     1       3.841   3.143  18.037  0.00  0.00    +0.000 C 
BRANCH  17  20
ATOM     20  S   UNL     1       6.359   5.043  15.504  0.00  0.00    +0.000 S 
ATOM     21  C   UNL     1       5.677   3.971  14.245  0.00  0.00    +0.000 C 
ATOM     22  O   UNL     1       5.865   6.385  15.273  0.00  0.00    +0.000 OA
ATOM     23  O   UNL     1       7.778   4.773  15.579  0.00  0.00    +0.000 OA
ENDBRANCH  17  20
ENDBRANCH   2  14
TORSDOF 5
ENDMDL
MODEL 3
REMARK VINA RESULT:      -7.0      0.882      1.360
REMARK  Name = 
REMARK  7 active torsions:
REMARK  status: ('A' for Active; 'I' for Inactive)
REMARK    1  A    between atoms: C_1  and  C_2
REMARK    2  A    between atoms: C_2  and  O_3
REMARK    3  A    between atoms: O_3  and  C_4
REMARK    4  A    between atoms: C_7  and  N_8
REMARK    5  A    between atoms: C_9  and  C_11
REMARK    6  A    between atoms: N_14  and  S_15
REMARK    7  A    between atoms: S_15  and  C_16
REMARK                            x       y       z     vdW  Elec       q    Type
REMARK                         _______ _______ _______ _____ _____    ______ ____
ROOT
ATOM      1  N   UNL     1       3.065   5.881  19.210  0.00  0.00    +0.000 N 
ATOM      2  C   UNL     1       2.476   4.642  19.032  0.00  0.00    +0.000 C 
ATOM      3  O   UNL     1       1.266   4.442  18.984  0.00  0.00    +0.000 OA
ATOM      4  H   UNL     1       4.074   5.923  19.290  0.00  0.00    +0.000 HD
ENDROOT
BRANCH   1   8
ATOM      5  C   UNL     1       0.995   9.582  19.408  0.00  0.00    +0.000 A 
ATOM      6  C   UNL     1       1.059   8.767  20.530  0.00  0.00    +0.000 A 
ATOM      7  C   UNL     1       1.749   7.554  20.488  0.00  0.00    +0.000 A 
ATOM      8  C   UNL     1       2.374   7.116  19.315  0.00  0.00    +0.000 A 
ATOM      9  C   UNL     1       2.300   7.944  18.188  0.00  0.00    +0.000 A 
ATOM     10  C   UNL     1       1.609   9.166  18.229  0.00  0.00    +0.000 A 
BRANCH   5  11
ATOM     11  O   UNL     1       0.285  10.732  19.587  0.00  0.00    +0.000 OA
BRANCH  11  13
ATOM     12  C   UNL     1      -1.752  10.288  18.459  0.00  0.00    +0.000 C 
ATOM     13  C   UNL     1      -0.516  11.171  18.494  0.00  0.00    +0.000 C 
ENDBRANCH  11  13
ENDBRANCH   5  11
ENDBRANCH   1   8
BRANCH   2  14
ATOM     14  C   UNL     1       3.449   3.468  18.916  0.00  0.00    +0.000 C 
ATOM     15  C   UNL     1       4.832   3.757  19.508  0.00  0.00    +0.000 C 
ATOM     16  C   UNL     1       5.636   4.772  18.696  0.00  0.00    +0.000 C 
ATOM     17  N   UNL     1       5.691   4.415  17.259  0.00  0.00    +0.000 NA
ATOM     18  C   UNL     1       4.380   4.105  16.633  0.00  0.00    +0.000 C 
ATOM     19  C   UNL     1       3.623   3.055  17.445  0.00  0.00    +0.000 C 
BRANCH  17  20
ATOM     20  S   UNL     1       6.722   5.391  16.302  0.00  0.00    +0.000 S 
ATOM     21  C   UNL     1       7.343   6.591  17.474  0.00  0.00    +0.000 C 
ATOM     22  O   UNL     1       7.833   4.573  15.860  0.00  0.00    +0.000 OA
ATOM     23  O   UNL     1       5.895   6.102  15.351  0.00  0.00    +0.000 OA
ENDBRANCH  17  20
ENDBRANCH   2  14
TORSDOF 5
ENDMDL
MODEL 4
REMARK VINA RESULT:      -7.0      1.121      1.972
REMARK  Name = 
REMARK  7 active torsions:
REMARK  status: ('A' for Active; 'I' for Inactive)
REMARK    1  A    between atoms: C_1  and  C_2
REMARK    2  A    between atoms: C_2  and  O_3
REMARK    3  A    between atoms: O_3  and  C_4
REMARK    4  A    between atoms: C_7  and  N_8
REMARK    5  A    between atoms: C_9  and  C_11
REMARK    6  A    between atoms: N_14  and  S_15
REMARK    7  A    between atoms: S_15  and  C_16
REMARK                            x       y       z     vdW  Elec       q    Type
REMARK                         _______ _______ _______ _____ _____    ______ ____
ROOT
ATOM      1  N   UNL     1       2.694   6.136  19.310  0.00  0.00    +0.000 N 
ATOM      2  C   UNL     1       2.285   5.094  18.496  0.00  0.00    +0.000 C 
ATOM      3  O   UNL     1       1.353   5.151  17.700  0.00  0.00    +0.000 OA
ATOM      4  H   UNL     1       3.440   5.961  19.971  0.00  0.00    +0.000 HD
ENDROOT
BRANCH   1   8
ATOM      5  C   UNL     1       1.034  10.041  19.449  0.00  0.00    +0.000 A 
ATOM      6  C   UNL     1       1.636   9.589  18.282  0.00  0.00    +0.000 A 
ATOM      7  C   UNL     1       2.173   8.302  18.213  0.00  0.00    +0.000 A 
ATOM      8  C   UNL     1       2.140   7.443  19.318  0.00  0.00    +0.000 A 
ATOM      9  C   UNL     1       1.534   7.910  20.491  0.00  0.00    +0.000 A 
ATOM     10  C   UNL     1       0.990   9.203  20.561  0.00  0.00    +0.000 A 
BRANCH   5  11
ATOM     11  O   UNL     1       0.559  11.317  19.379  0.00  0.00    +0.000 OA
BRANCH  11  13
ATOM     12  C   UNL     1      -1.807  11.361  19.236  0.00  0.00    +0.000 C 
ATOM     13  C   UNL     1      -0.510  11.557  18.469  0.00  0.00    +0.000 C 
ENDBRANCH  11  13
ENDBRANCH   5  11
ENDBRANCH   1   8
BRANCH   2  14
ATOM     14  C   UNL     1       3.071   3.792  18.661  0.00  0.00    +0.000 C 
ATOM     15  C   UNL     1       4.244   3.903  19.639  0.00  0.00    +0.000 C 
ATOM     16  C   UNL     1       5.388   4.770  19.114  0.00  0.00    +0.000 C 
ATOM     17  N   UNL     1       5.813   4.363  17.754  0.00  0.00    +0.000 NA
ATOM     18  C   UNL     1       4.715   4.219  16.765  0.00  0.00    +0.000 C 
ATOM     19  C   UNL     1       3.610   3.313  17.303  0.00  0.00    +0.000 C 
BRANCH  17  20
ATOM     20  S   UNL     1       7.210   5.154  17.157  0.00  0.00    +0.000 S 
ATOM     21  C   UNL     1       7.613   6.303  18.468  0.00  0.00    +0.000 C 
ATOM     22  O   UNL     1       8.275   4.178  17.066  0.00  0.00    +0.000 OA
ATOM     23  O   UNL     1       6.813   5.935  16.006  0.00  0.00    +0.000 OA
ENDBRANCH  17  20
ENDBRANCH   2  14
TORSDOF 5
ENDMDL
MODEL 5
REMARK VINA RESULT:      -7.0      1.027      1.053
REMARK  Name = 
REMARK  7 active torsions:
REMARK  status: ('A' for Active; 'I' for Inactive)
REMARK    1  A    between atoms: C_1  and  C_2
REMARK    2  A    between atoms: C_2  and  O_3
REMARK    3  A    between atoms: O_3  and  C_4
REMARK    4  A    between atoms: C_7  and  N_8
REMARK    5  A    between atoms: C_9  and  C_11
REMARK    6  A    between atoms: N_14  and  S_15
REMARK    7  A    between atoms: S_15  and  C_16
REMARK                            x       y       z     vdW  Elec       q    Type
REMARK                         _______ _______ _______ _____ _____    ______ ____
ROOT
ATOM      1  N   UNL     1       3.075   6.052  19.312  0.00  0.00    +0.000 N 
ATOM      2  C   UNL     1       2.537   4.805  19.048  0.00  0.00    +0.000 C 
ATOM      3  O   UNL     1       1.355   4.591  18.796  0.00  0.00    +0.000 OA
ATOM      4  H   UNL     1       4.055   6.107  19.562  0.00  0.00    +0.000 HD
ENDROOT
BRANCH   1   8
ATOM      5  C   UNL     1       0.946   9.720  19.113  0.00  0.00    +0.000 A 
ATOM      6  C   UNL     1       1.008   9.023  20.312  0.00  0.00    +0.000 A 
ATOM      7  C   UNL     1       1.716   7.823  20.400  0.00  0.00    +0.000 A 
ATOM      8  C   UNL     1       2.364   7.280  19.284  0.00  0.00    +0.000 A 
ATOM      9  C   UNL     1       2.292   7.990  18.078  0.00  0.00    +0.000 A 
ATOM     10  C   UNL     1       1.582   9.198  17.989  0.00  0.00    +0.000 A 
BRANCH   5  11
ATOM     11  O   UNL     1       0.216  10.870  19.168  0.00  0.00    +0.000 OA
BRANCH  11  13
ATOM     12  C   UNL     1       0.197  13.200  18.731  0.00  0.00    +0.000 C 
ATOM     13  C   UNL     1       0.929  12.073  19.439  0.00  0.00    +0.000 C 
ENDBRANCH  11  13
ENDBRANCH   5  11
ENDBRANCH   1   8
BRANCH   2  14
ATOM     14  C   UNL     1       3.528   3.641  19.112  0.00  0.00    +0.000 C 
ATOM     15  C   UNL     1       4.956   4.070  19.459  0.00  0.00    +0.000 C 
ATOM     16  C   UNL     1       5.638   4.860  18.341  0.00  0.00    +0.000 C 
ATOM     17  N   UNL     1       5.549   4.163  17.036  0.00  0.00    +0.000 NA
ATOM     18  C   UNL     1       4.190   3.706  16.654  0.00  0.00    +0.000 C 
ATOM     19  C   UNL     1       3.556   2.883  17.774  0.00  0.00    +0.000 C 
BRANCH  17  20
ATOM     20  S   UNL     1       6.443   4.880  15.763  0.00  0.00    +0.000 S 
ATOM     21  C   UNL     1       5.943   3.926  14.333  0.00  0.00    +0.000 C 
ATOM     22  O   UNL     1       5.969   6.237  15.590  0.00  0.00    +0.000 OA
ATOM     23  O   UNL     1       7.843   4.602  15.999  0.00  0.00    +0.000 OA
ENDBRANCH  17  20
ENDBRANCH   2  14
TORSDOF 5
ENDMDL
MODEL 6
REMARK VINA RESULT:      -7.0      1.472      2.236
REMARK  Name = 
REMARK  7 active torsions:
REMARK  status: ('A' for Active; 'I' for Inactive)
REMARK    1  A    between atoms: C_1  and  C_2
REMARK    2  A    between atoms: C_2  and  O_3
REMARK    3  A    between atoms: O_3  and  C_4
REMARK    4  A    between atoms: C_7  and  N_8
REMARK    5  A    between atoms: C_9  and  C_11
REMARK    6  A    between atoms: N_14  and  S_15
REMARK    7  A    between atoms: S_15  and  C_16
REMARK                            x       y       z     vdW  Elec       q    Type
REMARK                         _______ _______ _______ _____ _____    ______ ____
ROOT
ATOM      1  N   UNL     1       2.767   6.088  19.208  0.00  0.00    +0.000 N 
ATOM      2  C   UNL     1       2.343   4.984  18.491  0.00  0.00    +0.000 C 
ATOM      3  O   UNL     1       1.408   4.981  17.695  0.00  0.00    +0.000 OA
ATOM      4  H   UNL     1       3.514   5.963  19.880  0.00  0.00    +0.000 HD
ENDROOT
BRANCH   1   8
ATOM      5  C   UNL     1       1.148  10.008  19.009  0.00  0.00    +0.000 A 
ATOM      6  C   UNL     1       1.784   9.467  17.900  0.00  0.00    +0.000 A 
ATOM      7  C   UNL     1       2.309   8.174  17.942  0.00  0.00    +0.000 A 
ATOM      8  C   UNL     1       2.228   7.397  19.103  0.00  0.00    +0.000 A 
ATOM      9  C   UNL     1       1.587   7.953  20.217  0.00  0.00    +0.000 A 
ATOM     10  C   UNL     1       1.056   9.253  20.176  0.00  0.00    +0.000 A 
BRANCH   5  11
ATOM     11  O   UNL     1       0.690  11.280  18.831  0.00  0.00    +0.000 OA
BRANCH  11  13
ATOM     12  C   UNL     1       2.269  13.018  19.156  0.00  0.00    +0.000 C 
ATOM     13  C   UNL     1       1.113  12.255  19.779  0.00  0.00    +0.000 C 
ENDBRANCH  11  13
ENDBRANCH   5  11
ENDBRANCH   1   8
BRANCH   2  14
ATOM     14  C   UNL     1       3.114   3.692  18.767  0.00  0.00    +0.000 C 
ATOM     15  C   UNL     1       4.358   3.894  19.636  0.00  0.00    +0.000 C 
ATOM     16  C   UNL     1       5.477   4.654  18.923  0.00  0.00    +0.000 C 
ATOM     17  N   UNL     1       5.791   4.065  17.600  0.00  0.00    +0.000 NA
ATOM     18  C   UNL     1       4.621   3.827  16.718  0.00  0.00    +0.000 C 
ATOM     19  C   UNL     1       3.543   3.028  17.447  0.00  0.00    +0.000 C 
BRANCH  17  20
ATOM     20  S   UNL     1       7.155   4.733  16.807  0.00  0.00    +0.000 S 
ATOM     21  C   UNL     1       7.059   6.468  17.236  0.00  0.00    +0.000 C 
ATOM     22  O   UNL     1       8.346   4.181  17.418  0.00  0.00    +0.000 OA
ATOM     23  O   UNL     1       6.929   4.627  15.382  0.00  0.00    +0.000 OA
ENDBRANCH  17  20
ENDBRANCH   2  14
TORSDOF 5
ENDMDL
MODEL 7
REMARK VINA RESULT:      -7.0      1.698      2.162
REMARK  Name = 
REMARK  7 active torsions:
REMARK  status: ('A' for Active; 'I' for Inactive)
REMARK    1  A    between atoms: C_1  and  C_2
REMARK    2  A    between atoms: C_2  and  O_3
REMARK    3  A    between atoms: O_3  and  C_4
REMARK    4  A    between atoms: C_7  and  N_8
REMARK    5  A    between atoms: C_9  and  C_11
REMARK    6  A    between atoms: N_14  and  S_15
REMARK    7  A    between atoms: S_15  and  C_16
REMARK                            x       y       z     vdW  Elec       q    Type
REMARK                         _______ _______ _______ _____ _____    ______ ____
ROOT
ATOM      1  N   UNL     1       2.760   5.993  19.114  0.00  0.00    +0.000 N 
ATOM      2  C   UNL     1       2.294   4.935  18.353  0.00  0.00    +0.000 C 
ATOM      3  O   UNL     1       1.335   4.991  17.588  0.00  0.00    +0.000 OA
ATOM      4  H   UNL     1       3.525   5.820  19.755  0.00  0.00    +0.000 HD
ENDROOT
BRANCH   1   8
ATOM      5  C   UNL     1       1.215   9.943  18.942  0.00  0.00    +0.000 A 
ATOM      6  C   UNL     1       1.104   9.210  20.116  0.00  0.00    +0.000 A 
ATOM      7  C   UNL     1       1.620   7.915  20.196  0.00  0.00    +0.000 A 
ATOM      8  C   UNL     1       2.242   7.314  19.096  0.00  0.00    +0.000 A 
ATOM      9  C   UNL     1       2.345   8.061  17.915  0.00  0.00    +0.000 A 
ATOM     10  C   UNL     1       1.829   9.365  17.834  0.00  0.00    +0.000 A 
BRANCH   5  11
ATOM     11  O   UNL     1       0.662  11.189  19.002  0.00  0.00    +0.000 OA
BRANCH  11  13
ATOM     12  C   UNL     1       2.252  12.917  18.678  0.00  0.00    +0.000 C 
ATOM     13  C   UNL     1       1.399  12.187  19.701  0.00  0.00    +0.000 C 
ENDBRANCH  11  13
ENDBRANCH   5  11
ENDBRANCH   1   8
BRANCH   2  14
ATOM     14  C   UNL     1       3.049   3.618  18.536  0.00  0.00    +0.000 C 
ATOM     15  C   UNL     1       4.068   3.649  19.679  0.00  0.00    +0.000 C 
ATOM     16  C   UNL     1       5.275   4.541  19.389  0.00  0.00    +0.000 C 
ATOM     17  N   UNL     1       5.893   4.228  18.079  0.00  0.00    +0.000 NA
ATOM     18  C   UNL     1       4.951   4.165  16.933  0.00  0.00    +0.000 C 
ATOM     19  C   UNL     1       3.781   3.232  17.239  0.00  0.00    +0.000 C 
BRANCH  17  20
ATOM     20  S   UNL     1       7.360   5.047  17.749  0.00  0.00    +0.000 S 
ATOM     21  C   UNL     1       6.813   6.696  17.317  0.00  0.00    +0.000 C 
ATOM     22  O   UNL     1       8.116   5.130  18.981  0.00  0.00    +0.000 OA
ATOM     23  O   UNL     1       7.934   4.457  16.559  0.00  0.00    +0.000 OA
ENDBRANCH  17  20
ENDBRANCH   2  14
TORSDOF 5
ENDMDL
MODEL 8
REMARK VINA RESULT:      -6.9      0.988      1.532
REMARK  Name = 
REMARK  7 active torsions:
REMARK  status: ('A' for Active; 'I' for Inactive)
REMARK    1  A    between atoms: C_1  and  C_2
REMARK    2  A    between atoms: C_2  and  O_3
REMARK    3  A    between atoms: O_3  and  C_4
REMARK    4  A    between atoms: C_7  and  N_8
REMARK    5  A    between atoms: C_9  and  C_11
REMARK    6  A    between atoms: N_14  and  S_15
REMARK    7  A    between atoms: S_15  and  C_16
REMARK                            x       y       z     vdW  Elec       q    Type
REMARK                         _______ _______ _______ _____ _____    ______ ____
ROOT
ATOM      1  N   UNL     1       3.047   6.308  19.582  0.00  0.00    +0.000 N 
ATOM      2  C   UNL     1       2.686   5.052  19.128  0.00  0.00    +0.000 C 
ATOM      3  O   UNL     1       1.629   4.788  18.562  0.00  0.00    +0.000 OA
ATOM      4  H   UNL     1       3.920   6.402  20.086  0.00  0.00    +0.000 HD
ENDROOT
BRANCH   1   8
ATOM      5  C   UNL     1       0.758   9.864  19.216  0.00  0.00    +0.000 A 
ATOM      6  C   UNL     1       1.470   9.388  18.124  0.00  0.00    +0.000 A 
ATOM      7  C   UNL     1       2.216   8.212  18.222  0.00  0.00    +0.000 A 
ATOM      8  C   UNL     1       2.284   7.494  19.421  0.00  0.00    +0.000 A 
ATOM      9  C   UNL     1       1.564   7.986  20.518  0.00  0.00    +0.000 A 
ATOM     10  C   UNL     1       0.811   9.167  20.421  0.00  0.00    +0.000 A 
BRANCH   5  11
ATOM     11  O   UNL     1       0.080  11.025  18.984  0.00  0.00    +0.000 OA
BRANCH  11  13
ATOM     12  C   UNL     1      -1.920  11.667  17.885  0.00  0.00    +0.000 C 
ATOM     13  C   UNL     1      -1.338  10.978  19.107  0.00  0.00    +0.000 C 
ENDBRANCH  11  13
ENDBRANCH   5  11
ENDBRANCH   1   8
BRANCH   2  14
ATOM     14  C   UNL     1       3.704   3.943  19.402  0.00  0.00    +0.000 C 
ATOM     15  C   UNL     1       5.137   4.454  19.569  0.00  0.00    +0.000 C 
ATOM     16  C   UNL     1       5.747   4.979  18.269  0.00  0.00    +0.000 C 
ATOM     17  N   UNL     1       5.612   4.005  17.160  0.00  0.00    +0.000 NA
ATOM     18  C   UNL     1       4.246   3.458  16.961  0.00  0.00    +0.000 C 
ATOM     19  C   UNL     1       3.685   2.903  18.269  0.00  0.00    +0.000 C 
BRANCH  17  20
ATOM     20  S   UNL     1       6.427   4.425  15.714  0.00  0.00    +0.000 S 
ATOM     21  C   UNL     1       5.652   5.970  15.249  0.00  0.00    +0.000 C 
ATOM     22  O   UNL     1       7.812   4.694  16.040  0.00  0.00    +0.000 OA
ATOM     23  O   UNL     1       6.073   3.445  14.710  0.00  0.00    +0.000 OA
ENDBRANCH  17  20
ENDBRANCH   2  14
TORSDOF 5
ENDMDL
MODEL 9
REMARK VINA RESULT:      -6.9      0.967      1.131
REMARK  Name = 
REMARK  7 active torsions:
REMARK  status: ('A' for Active; 'I' for Inactive)
REMARK    1  A    between atoms: C_1  and  C_2
REMARK    2  A    between atoms: C_2  and  O_3
REMARK    3  A    between atoms: O_3  and  C_4
REMARK    4  A    between atoms: C_7  and  N_8
REMARK    5  A    between atoms: C_9  and  C_11
REMARK    6  A    between atoms: N_14  and  S_15
REMARK    7  A    between atoms: S_15  and  C_16
REMARK                            x       y       z     vdW  Elec       q    Type
REMARK                         _______ _______ _______ _____ _____    ______ ____
ROOT
ATOM      1  N   UNL     1       2.983   6.261  19.723  0.00  0.00    +0.000 N 
ATOM      2  C   UNL     1       2.666   5.053  19.127  0.00  0.00    +0.000 C 
ATOM      3  O   UNL     1       1.660   4.844  18.457  0.00  0.00    +0.000 OA
ATOM      4  H   UNL     1       3.812   6.306  20.302  0.00  0.00    +0.000 HD
ENDROOT
BRANCH   1   8
ATOM      5  C   UNL     1       0.730   9.832  19.279  0.00  0.00    +0.000 A 
ATOM      6  C   UNL     1       0.734   9.167  20.498  0.00  0.00    +0.000 A 
ATOM      7  C   UNL     1       1.481   8.000  20.667  0.00  0.00    +0.000 A 
ATOM      8  C   UNL     1       2.227   7.458  19.613  0.00  0.00    +0.000 A 
ATOM      9  C   UNL     1       2.212   8.135  18.387  0.00  0.00    +0.000 A 
ATOM     10  C   UNL     1       1.463   9.311  18.216  0.00  0.00    +0.000 A 
BRANCH   5  11
ATOM     11  O   UNL     1      -0.048  10.953  19.253  0.00  0.00    +0.000 OA
BRANCH  11  13
ATOM     12  C   UNL     1      -1.719  11.613  17.707  0.00  0.00    +0.000 C 
ATOM     13  C   UNL     1      -1.425  10.773  18.938  0.00  0.00    +0.000 C 
ENDBRANCH  11  13
ENDBRANCH   5  11
ENDBRANCH   1   8
BRANCH   2  14
ATOM     14  C   UNL     1       3.666   3.922  19.376  0.00  0.00    +0.000 C 
ATOM     15  C   UNL     1       5.106   4.408  19.563  0.00  0.00    +0.000 C 
ATOM     16  C   UNL     1       5.731   4.957  18.281  0.00  0.00    +0.000 C 
ATOM     17  N   UNL     1       5.586   4.014  17.146  0.00  0.00    +0.000 NA
ATOM     18  C   UNL     1       4.214   3.494  16.927  0.00  0.00    +0.000 C 
ATOM     19  C   UNL     1       3.638   2.913  18.216  0.00  0.00    +0.000 C 
BRANCH  17  20
ATOM     20  S   UNL     1       6.415   4.460  15.715  0.00  0.00    +0.000 S 
ATOM     21  C   UNL     1       5.640   6.009  15.267  0.00  0.00    +0.000 C 
ATOM     22  O   UNL     1       7.796   4.729  16.060  0.00  0.00    +0.000 OA
ATOM     23  O   UNL     1       6.075   3.495  14.693  0.00  0.00    +0.000 OA
ENDBRANCH  17  20
ENDBRANCH   2  14
TORSDOF 5
ENDMDL
