MODEL 1
REMARK VINA RESULT:      -8.3      0.000      0.000
REMARK  Name = 
REMARK  7 active torsions:
REMARK  status: ('A' for Active; 'I' for Inactive)
REMARK    1  A    between atoms: C_1  and  N_2
REMARK    2  A    between atoms: N_2  and  C_3
REMARK    3  A    between atoms: C_4  and  C_6
REMARK    4  A    between atoms: C_6  and  N_7
REMARK    5  A    between atoms: N_10  and  C_11
REMARK    6  A    between atoms: C_11  and  C_12
REMARK    7  A    between atoms: C_15  and  C_16
REMARK                            x       y       z     vdW  Elec       q    Type
REMARK                         _______ _______ _______ _____ _____    ______ ____
ROOT
ATOM      1  C   UNL     1       1.724   8.484  19.117  0.00  0.00    +0.000 A 
ATOM      2  C   UNL     1       1.267   9.023  17.902  0.00  0.00    +0.000 A 
ATOM      3  C   UNL     1       0.273  10.018  17.875  0.00  0.00    +0.000 A 
ATOM      4  C   UNL     1      -0.311  10.473  19.055  0.00  0.00    +0.000 A 
ATOM      5  C   UNL     1       0.098   9.865  20.258  0.00  0.00    +0.000 A 
ATOM      6  C   UNL     1       1.122   8.923  20.297  0.00  0.00    +0.000 A 
ENDROOT
BRANCH   4   7
ATOM      7  C   UNL     1      -1.394  11.478  19.055  0.00  0.00    +0.000 A 
ATOM      8  N   UNL     1      -2.646  11.282  18.688  0.00  0.00    +0.000 NA
ATOM      9  N   UNL     1      -3.414  12.196  19.373  0.00  0.00    +0.000 NA
ATOM     10  C   UNL     1      -2.612  12.936  20.129  0.00  0.00    +0.000 A 
ATOM     11  N   UNL     1      -1.335  12.742  19.653  0.00  0.00    +0.000 N 
ATOM     12  C   UNL     1      -0.145  13.445  19.912  0.00  0.00    +0.000 A 
ATOM     13  C   UNL     1       0.864  13.381  18.936  0.00  0.00    +0.000 A 
ATOM     14  C   UNL     1       2.184  13.371  19.345  0.00  0.00    +0.000 A 
ATOM     15  C   UNL     1       2.423  13.481  20.700  0.00  0.00    +0.000 A 
ATOM     16  N   UNL     1       1.460  13.757  21.616  0.00  0.00    +0.000 NA
ATOM     17  C   UNL     1       0.167  13.784  21.215  0.00  0.00    +0.000 A 
ATOM     18  N   UNL     1      -0.747  14.088  22.208  0.00  0.00    +0.000 N 
ATOM     19  C   UNL     1      -2.138  14.262  22.229  0.00  0.00    +0.000 A 
ATOM     20  C   UNL     1      -2.670  14.996  23.312  0.00  0.00    +0.000 A 
ATOM     21  C   UNL     1      -4.046  15.175  23.477  0.00  0.00    +0.000 A 
ATOM     22  C   UNL     1      -4.922  14.631  22.552  0.00  0.00    +0.000 A 
ATOM     23  C   UNL     1      -4.415  13.944  21.449  0.00  0.00    +0.000 A 
ATOM     24  C   UNL     1      -3.028  13.766  21.258  0.00  0.00    +0.000 A 
ATOM     25  H   UNL     1      -0.250  14.324  23.061  0.00  0.00    +0.000 HD
ENDBRANCH   4   7
BRANCH   1  26
ATOM     26  C   UNL     1       2.708   7.340  19.206  0.00  0.00    +0.000 C 
BRANCH  26  30
ATOM     27  N   UNL     1       5.463   4.941  18.314  0.00  0.00    +0.000 NA
ATOM     28  C   UNL     1       5.433   6.359  17.879  0.00  0.00    +0.000 C 
ATOM     29  C   UNL     1       4.105   6.844  17.240  0.00  0.00    +0.000 C 
ATOM     30  N   UNL     1       2.874   6.521  17.999  0.00  0.00    +0.000 NA
ATOM     31  C   UNL     1       2.917   5.088  18.360  0.00  0.00    +0.000 C 
ATOM     32  C   UNL     1       4.227   4.641  19.065  0.00  0.00    +0.000 C 
BRANCH  27  33
ATOM     33  C   UNL     1       5.604   4.001  17.176  0.00  0.00    +0.000 C 
BRANCH  33  37
ATOM     34  C   UNL     1       7.532   4.947  13.989  0.00  0.00    +0.000 C 
ATOM     35  N   UNL     1       6.423   4.696  14.893  0.00  0.00    +0.000 N 
ATOM     36  C   UNL     1       5.093   4.558  14.331  0.00  0.00    +0.000 C 
ATOM     37  C   UNL     1       6.739   4.412  16.220  0.00  0.00    +0.000 C 
ATOM     38  O   UNL     1       7.900   4.475  16.637  0.00  0.00    +0.000 OA
ENDBRANCH  33  37
ENDBRANCH  27  33
ENDBRANCH  26  30
ENDBRANCH   1  26
TORSDOF 5
ENDMDL
MODEL 2
REMARK VINA RESULT:      -8.0      3.287     11.563
REMARK  Name = 
REMARK  7 active torsions:
REMARK  status: ('A' for Active; 'I' for Inactive)
REMARK    1  A    between atoms: C_1  and  N_2
REMARK    2  A    between atoms: N_2  and  C_3
REMARK    3  A    between atoms: C_4  and  C_6
REMARK    4  A    between atoms: C_6  and  N_7
REMARK    5  A    between atoms: N_10  and  C_11
REMARK    6  A    between atoms: C_11  and  C_12
REMARK    7  A    between atoms: C_15  and  C_16
REMARK                            x       y       z     vdW  Elec       q    Type
REMARK                         _______ _______ _______ _____ _____    ______ ____
ROOT
ATOM      1  C   UNL     1       2.442   7.327  19.993  0.00  0.00    +0.000 A 
ATOM      2  C   UNL     1       2.419   5.968  20.351  0.00  0.00    +0.000 A 
ATOM      3  C   UNL     1       2.919   4.979  19.484  0.00  0.00    +0.000 A 
ATOM      4  C   UNL     1       3.421   5.319  18.229  0.00  0.00    +0.000 A 
ATOM      5  C   UNL     1       3.360   6.674  17.852  0.00  0.00    +0.000 A 
ATOM      6  C   UNL     1       2.921   7.665  18.727  0.00  0.00    +0.000 A 
ENDROOT
BRANCH   4   7
ATOM      7  C   UNL     1       3.902   4.298  17.277  0.00  0.00    +0.000 A 
ATOM      8  N   UNL     1       3.158   3.453  16.588  0.00  0.00    +0.000 NA
ATOM      9  N   UNL     1       3.861   3.134  15.448  0.00  0.00    +0.000 NA
ATOM     10  C   UNL     1       5.021   3.779  15.476  0.00  0.00    +0.000 A 
ATOM     11  N   UNL     1       5.205   4.201  16.774  0.00  0.00    +0.000 N 
ATOM     12  C   UNL     1       6.347   4.710  17.418  0.00  0.00    +0.000 A 
ATOM     13  C   UNL     1       6.412   4.571  18.814  0.00  0.00    +0.000 A 
ATOM     14  C   UNL     1       7.010   5.573  19.555  0.00  0.00    +0.000 A 
ATOM     15  C   UNL     1       7.558   6.628  18.855  0.00  0.00    +0.000 A 
ATOM     16  N   UNL     1       7.683   6.656  17.503  0.00  0.00    +0.000 NA
ATOM     17  C   UNL     1       7.111   5.666  16.776  0.00  0.00    +0.000 A 
ATOM     18  N   UNL     1       7.299   5.762  15.409  0.00  0.00    +0.000 N 
ATOM     19  C   UNL     1       6.934   4.960  14.319  0.00  0.00    +0.000 A 
ATOM     20  C   UNL     1       7.671   5.133  13.127  0.00  0.00    +0.000 A 
ATOM     21  C   UNL     1       7.355   4.441  11.956  0.00  0.00    +0.000 A 
ATOM     22  C   UNL     1       6.295   3.549  11.954  0.00  0.00    +0.000 A 
ATOM     23  C   UNL     1       5.584   3.326  13.133  0.00  0.00    +0.000 A 
ATOM     24  C   UNL     1       5.899   4.005  14.330  0.00  0.00    +0.000 A 
ATOM     25  H   UNL     1       7.923   6.537  15.209  0.00  0.00    +0.000 HD
ENDBRANCH   4   7
BRANCH   1  26
ATOM     26  C   UNL     1       1.823   8.422  20.832  0.00  0.00    +0.000 C 
BRANCH  26  30
ATOM     27  N   UNL     1      -0.253  11.248  22.192  0.00  0.00    +0.000 NA
ATOM     28  C   UNL     1      -0.324   9.855  22.699  0.00  0.00    +0.000 C 
ATOM     29  C   UNL     1      -0.485   8.749  21.623  0.00  0.00    +0.000 C 
ATOM     30  N   UNL     1       0.455   8.823  20.481  0.00  0.00    +0.000 NA
ATOM     31  C   UNL     1       0.450  10.211  19.969  0.00  0.00    +0.000 C 
ATOM     32  C   UNL     1       0.687  11.298  21.053  0.00  0.00    +0.000 C 
BRANCH  27  33
ATOM     33  C   UNL     1      -1.578  11.768  21.776  0.00  0.00    +0.000 C 
BRANCH  33  37
ATOM     34  C   UNL     1      -2.811  14.313  24.380  0.00  0.00    +0.000 C 
ATOM     35  N   UNL     1      -2.183  13.771  23.187  0.00  0.00    +0.000 N 
ATOM     36  C   UNL     1      -1.275  14.620  22.439  0.00  0.00    +0.000 C 
ATOM     37  C   UNL     1      -2.344  12.407  22.949  0.00  0.00    +0.000 C 
ATOM     38  O   UNL     1      -3.076  11.708  23.658  0.00  0.00    +0.000 OA
ENDBRANCH  33  37
ENDBRANCH  27  33
ENDBRANCH  26  30
ENDBRANCH   1  26
TORSDOF 5
ENDMDL
MODEL 3
REMARK VINA RESULT:      -7.9      0.916      1.115
REMARK  Name = 
REMARK  7 active torsions:
REMARK  status: ('A' for Active; 'I' for Inactive)
REMARK    1  A    between atoms: C_1  and  N_2
REMARK    2  A    between atoms: N_2  and  C_3
REMARK    3  A    between atoms: C_4  and  C_6
REMARK    4  A    between atoms: C_6  and  N_7
REMARK    5  A    between atoms: N_10  and  C_11
REMARK    6  A    between atoms: C_11  and  C_12
REMARK    7  A    between atoms: C_15  and  C_16
REMARK                            x       y       z     vdW  Elec       q    Type
REMARK                         _______ _______ _______ _____ _____    ______ ____
ROOT
ATOM      1  C   UNL     1       1.399   8.849  19.009  0.00  0.00    +0.000 A 
ATOM      2  C   UNL     1       0.877   9.251  17.766  0.00  0.00    +0.000 A 
ATOM      3  C   UNL     1      -0.249  10.089  17.687  0.00  0.00    +0.000 A 
ATOM      4  C   UNL     1      -0.900  10.519  18.841  0.00  0.00    +0.000 A 
ATOM      5  C   UNL     1      -0.417  10.041  20.074  0.00  0.00    +0.000 A 
ATOM      6  C   UNL     1       0.731   9.259  20.164  0.00  0.00    +0.000 A 
ENDROOT
BRANCH   4   7
ATOM      7  C   UNL     1      -2.117  11.356  18.787  0.00  0.00    +0.000 A 
ATOM      8  N   UNL     1      -3.257  11.046  18.201  0.00  0.00    +0.000 NA
ATOM      9  N   UNL     1      -4.249  11.738  18.858  0.00  0.00    +0.000 NA
ATOM     10  C   UNL     1      -3.689  12.463  19.819  0.00  0.00    +0.000 A 
ATOM     11  N   UNL     1      -2.342  12.516  19.536  0.00  0.00    +0.000 N 
ATOM     12  C   UNL     1      -1.326  13.330  20.068  0.00  0.00    +0.000 A 
ATOM     13  C   UNL     1      -0.192  13.546  19.268  0.00  0.00    +0.000 A 
ATOM     14  C   UNL     1       1.042  13.657  19.882  0.00  0.00    +0.000 A 
ATOM     15  C   UNL     1       1.065  13.602  21.260  0.00  0.00    +0.000 A 
ATOM     16  N   UNL     1      -0.049  13.609  22.035  0.00  0.00    +0.000 NA
ATOM     17  C   UNL     1      -1.261  13.517  21.436  0.00  0.00    +0.000 A 
ATOM     18  N   UNL     1      -2.343  13.547  22.297  0.00  0.00    +0.000 N 
ATOM     19  C   UNL     1      -3.733  13.525  22.113  0.00  0.00    +0.000 A 
ATOM     20  C   UNL     1      -4.522  14.015  23.176  0.00  0.00    +0.000 A 
ATOM     21  C   UNL     1      -5.918  13.980  23.137  0.00  0.00    +0.000 A 
ATOM     22  C   UNL     1      -6.557  13.460  22.023  0.00  0.00    +0.000 A 
ATOM     23  C   UNL     1      -5.797  13.015  20.942  0.00  0.00    +0.000 A 
ATOM     24  C   UNL     1      -4.386  13.057  20.957  0.00  0.00    +0.000 A 
ATOM     25  H   UNL     1      -2.016  13.723  23.241  0.00  0.00    +0.000 HD
ENDBRANCH   4   7
BRANCH   1  26
ATOM     26  C   UNL     1       2.536   7.864  19.158  0.00  0.00    +0.000 C 
BRANCH  26  30
ATOM     27  N   UNL     1       5.333   5.427  18.545  0.00  0.00    +0.000 NA
ATOM     28  C   UNL     1       5.233   6.750  17.881  0.00  0.00    +0.000 C 
ATOM     29  C   UNL     1       3.861   7.083  17.237  0.00  0.00    +0.000 C 
ATOM     30  N   UNL     1       2.677   6.859  18.098  0.00  0.00    +0.000 NA
ATOM     31  C   UNL     1       2.788   5.509  18.693  0.00  0.00    +0.000 C 
ATOM     32  C   UNL     1       4.143   5.225  19.396  0.00  0.00    +0.000 C 
BRANCH  27  33
ATOM     33  C   UNL     1       5.457   4.313  17.575  0.00  0.00    +0.000 C 
BRANCH  33  37
ATOM     34  C   UNL     1       7.407   4.787  14.298  0.00  0.00    +0.000 C 
ATOM     35  N   UNL     1       6.295   4.715  15.229  0.00  0.00    +0.000 N 
ATOM     36  C   UNL     1       4.950   4.628  14.693  0.00  0.00    +0.000 C 
ATOM     37  C   UNL     1       6.607   4.537  16.576  0.00  0.00    +0.000 C 
ATOM     38  O   UNL     1       7.775   4.549  16.977  0.00  0.00    +0.000 OA
ENDBRANCH  33  37
ENDBRANCH  27  33
ENDBRANCH  26  30
ENDBRANCH   1  26
TORSDOF 5
ENDMDL
MODEL 4
REMARK VINA RESULT:      -7.9      3.235     11.529
REMARK  Name = 
REMARK  7 active torsions:
REMARK  status: ('A' for Active; 'I' for Inactive)
REMARK    1  A    between atoms: C_1  and  N_2
REMARK    2  A    between atoms: N_2  and  C_3
REMARK    3  A    between atoms: C_4  and  C_6
REMARK    4  A    between atoms: C_6  and  N_7
REMARK    5  A    between atoms: N_10  and  C_11
REMARK    6  A    between atoms: C_11  and  C_12
REMARK    7  A    between atoms: C_15  and  C_16
REMARK                            x       y       z     vdW  Elec       q    Type
REMARK                         _______ _______ _______ _____ _____    ______ ____
ROOT
ATOM      1  C   UNL     1       2.225   7.274  19.811  0.00  0.00    +0.000 A 
ATOM      2  C   UNL     1       2.837   7.653  18.603  0.00  0.00    +0.000 A 
ATOM      3  C   UNL     1       3.339   6.690  17.709  0.00  0.00    +0.000 A 
ATOM      4  C   UNL     1       3.274   5.332  18.014  0.00  0.00    +0.000 A 
ATOM      5  C   UNL     1       2.734   4.973  19.264  0.00  0.00    +0.000 A 
ATOM      6  C   UNL     1       2.182   5.916  20.127  0.00  0.00    +0.000 A 
ENDROOT
BRANCH   4   7
ATOM      7  C   UNL     1       3.841   4.302  17.119  0.00  0.00    +0.000 A 
ATOM      8  N   UNL     1       3.164   3.415  16.416  0.00  0.00    +0.000 NA
ATOM      9  N   UNL     1       3.939   3.088  15.326  0.00  0.00    +0.000 NA
ATOM     10  C   UNL     1       5.075   3.772  15.399  0.00  0.00    +0.000 A 
ATOM     11  N   UNL     1       5.171   4.235  16.692  0.00  0.00    +0.000 N 
ATOM     12  C   UNL     1       6.259   4.799  17.384  0.00  0.00    +0.000 A 
ATOM     13  C   UNL     1       6.249   4.700  18.785  0.00  0.00    +0.000 A 
ATOM     14  C   UNL     1       6.773   5.742  19.528  0.00  0.00    +0.000 A 
ATOM     15  C   UNL     1       7.326   6.795  18.830  0.00  0.00    +0.000 A 
ATOM     16  N   UNL     1       7.526   6.790  17.487  0.00  0.00    +0.000 NA
ATOM     17  C   UNL     1       7.027   5.762  16.758  0.00  0.00    +0.000 A 
ATOM     18  N   UNL     1       7.289   5.828  15.402  0.00  0.00    +0.000 N 
ATOM     19  C   UNL     1       7.012   4.984  14.316  0.00  0.00    +0.000 A 
ATOM     20  C   UNL     1       7.809   5.149  13.163  0.00  0.00    +0.000 A 
ATOM     21  C   UNL     1       7.582   4.415  11.997  0.00  0.00    +0.000 A 
ATOM     22  C   UNL     1       6.553   3.488  11.962  0.00  0.00    +0.000 A 
ATOM     23  C   UNL     1       5.784   3.275  13.106  0.00  0.00    +0.000 A 
ATOM     24  C   UNL     1       6.009   3.996  14.298  0.00  0.00    +0.000 A 
ATOM     25  H   UNL     1       7.899   6.617  15.214  0.00  0.00    +0.000 HD
ENDBRANCH   4   7
BRANCH   1  26
ATOM     26  C   UNL     1       1.765   8.262  20.860  0.00  0.00    +0.000 C 
BRANCH  26  30
ATOM     27  N   UNL     1      -0.016  10.986  22.742  0.00  0.00    +0.000 NA
ATOM     28  C   UNL     1       0.051   9.577  23.200  0.00  0.00    +0.000 C 
ATOM     29  C   UNL     1      -0.321   8.502  22.144  0.00  0.00    +0.000 C 
ATOM     30  N   UNL     1       0.347   8.638  20.829  0.00  0.00    +0.000 NA
ATOM     31  C   UNL     1       0.205  10.041  20.383  0.00  0.00    +0.000 C 
ATOM     32  C   UNL     1       0.653  11.098  21.430  0.00  0.00    +0.000 C 
BRANCH  27  33
ATOM     33  C   UNL     1      -1.408  11.486  22.644  0.00  0.00    +0.000 C 
BRANCH  33  37
ATOM     34  C   UNL     1      -2.821  15.001  23.292  0.00  0.00    +0.000 C 
ATOM     35  N   UNL     1      -2.771  13.582  22.986  0.00  0.00    +0.000 N 
ATOM     36  C   UNL     1      -3.944  12.961  22.401  0.00  0.00    +0.000 C 
ATOM     37  C   UNL     1      -1.532  12.953  23.096  0.00  0.00    +0.000 C 
ATOM     38  O   UNL     1      -0.542  13.545  23.536  0.00  0.00    +0.000 OA
ENDBRANCH  33  37
ENDBRANCH  27  33
ENDBRANCH  26  30
ENDBRANCH   1  26
TORSDOF 5
ENDMDL
MODEL 5
REMARK VINA RESULT:      -7.6      3.181     11.165
REMARK  Name = 
REMARK  7 active torsions:
REMARK  status: ('A' for Active; 'I' for Inactive)
REMARK    1  A    between atoms: C_1  and  N_2
REMARK    2  A    between atoms: N_2  and  C_3
REMARK    3  A    between atoms: C_4  and  C_6
REMARK    4  A    between atoms: C_6  and  N_7
REMARK    5  A    between atoms: N_10  and  C_11
REMARK    6  A    between atoms: C_11  and  C_12
REMARK    7  A    between atoms: C_15  and  C_16
REMARK                            x       y       z     vdW  Elec       q    Type
REMARK                         _______ _______ _______ _____ _____    ______ ____
ROOT
ATOM      1  C   UNL     1       2.395   6.993  20.180  0.00  0.00    +0.000 A 
ATOM      2  C   UNL     1       2.389   5.616  20.465  0.00  0.00    +0.000 A 
ATOM      3  C   UNL     1       2.938   4.684  19.566  0.00  0.00    +0.000 A 
ATOM      4  C   UNL     1       3.474   5.099  18.349  0.00  0.00    +0.000 A 
ATOM      5  C   UNL     1       3.398   6.471  18.041  0.00  0.00    +0.000 A 
ATOM      6  C   UNL     1       2.909   7.406  18.949  0.00  0.00    +0.000 A 
ENDROOT
BRANCH   4   7
ATOM      7  C   UNL     1       4.009   4.139  17.362  0.00  0.00    +0.000 A 
ATOM      8  N   UNL     1       3.311   3.276  16.648  0.00  0.00    +0.000 NA
ATOM      9  N   UNL     1       4.025   3.035  15.496  0.00  0.00    +0.000 NA
ATOM     10  C   UNL     1       5.147   3.744  15.542  0.00  0.00    +0.000 A 
ATOM     11  N   UNL     1       5.312   4.133  16.852  0.00  0.00    +0.000 N 
ATOM     12  C   UNL     1       6.426   4.685  17.510  0.00  0.00    +0.000 A 
ATOM     13  C   UNL     1       6.505   4.504  18.900  0.00  0.00    +0.000 A 
ATOM     14  C   UNL     1       7.049   5.514  19.672  0.00  0.00    +0.000 A 
ATOM     15  C   UNL     1       7.533   6.621  19.006  0.00  0.00    +0.000 A 
ATOM     16  N   UNL     1       7.650   6.700  17.656  0.00  0.00    +0.000 NA
ATOM     17  C   UNL     1       7.132   5.703  16.898  0.00  0.00    +0.000 A 
ATOM     18  N   UNL     1       7.308   5.855  15.534  0.00  0.00    +0.000 N 
ATOM     19  C   UNL     1       6.984   5.069  14.419  0.00  0.00    +0.000 A 
ATOM     20  C   UNL     1       7.705   5.323  13.232  0.00  0.00    +0.000 A 
ATOM     21  C   UNL     1       7.423   4.653  12.039  0.00  0.00    +0.000 A 
ATOM     22  C   UNL     1       6.416   3.702  12.011  0.00  0.00    +0.000 A 
ATOM     23  C   UNL     1       5.724   3.401  13.184  0.00  0.00    +0.000 A 
ATOM     24  C   UNL     1       6.006   4.057  14.402  0.00  0.00    +0.000 A 
ATOM     25  H   UNL     1       7.886   6.670  15.358  0.00  0.00    +0.000 HD
ENDBRANCH   4   7
BRANCH   1  26
ATOM     26  C   UNL     1       1.725   8.030  21.052  0.00  0.00    +0.000 C 
BRANCH  26  30
ATOM     27  N   UNL     1      -0.039  11.186  22.086  0.00  0.00    +0.000 NA
ATOM     28  C   UNL     1      -0.363   9.845  22.631  0.00  0.00    +0.000 C 
ATOM     29  C   UNL     1      -0.577   8.721  21.584  0.00  0.00    +0.000 C 
ATOM     30  N   UNL     1       0.472   8.604  20.545  0.00  0.00    +0.000 NA
ATOM     31  C   UNL     1       0.721   9.951  19.987  0.00  0.00    +0.000 C 
ATOM     32  C   UNL     1       1.007  11.045  21.051  0.00  0.00    +0.000 C 
BRANCH  27  33
ATOM     33  C   UNL     1      -1.225  11.869  21.515  0.00  0.00    +0.000 C 
BRANCH  33  37
ATOM     34  C   UNL     1      -0.577  14.877  19.213  0.00  0.00    +0.000 C 
ATOM     35  N   UNL     1      -1.024  13.570  19.663  0.00  0.00    +0.000 N 
ATOM     36  C   UNL     1      -1.381  12.581  18.663  0.00  0.00    +0.000 C 
ATOM     37  C   UNL     1      -0.896  13.290  21.022  0.00  0.00    +0.000 C 
ATOM     38  O   UNL     1      -0.521  14.148  21.828  0.00  0.00    +0.000 OA
ENDBRANCH  33  37
ENDBRANCH  27  33
ENDBRANCH  26  30
ENDBRANCH   1  26
TORSDOF 5
ENDMDL
MODEL 6
REMARK VINA RESULT:      -7.6      3.094     11.413
REMARK  Name = 
REMARK  7 active torsions:
REMARK  status: ('A' for Active; 'I' for Inactive)
REMARK    1  A    between atoms: C_1  and  N_2
REMARK    2  A    between atoms: N_2  and  C_3
REMARK    3  A    between atoms: C_4  and  C_6
REMARK    4  A    between atoms: C_6  and  N_7
REMARK    5  A    between atoms: N_10  and  C_11
REMARK    6  A    between atoms: C_11  and  C_12
REMARK    7  A    between atoms: C_15  and  C_16
REMARK                            x       y       z     vdW  Elec       q    Type
REMARK                         _______ _______ _______ _____ _____    ______ ____
ROOT
ATOM      1  C   UNL     1       2.429   7.177  20.097  0.00  0.00    +0.000 A 
ATOM      2  C   UNL     1       2.611   5.843  20.499  0.00  0.00    +0.000 A 
ATOM      3  C   UNL     1       3.138   4.882  19.618  0.00  0.00    +0.000 A 
ATOM      4  C   UNL     1       3.465   5.221  18.306  0.00  0.00    +0.000 A 
ATOM      5  C   UNL     1       3.200   6.541  17.893  0.00  0.00    +0.000 A 
ATOM      6  C   UNL     1       2.733   7.511  18.776  0.00  0.00    +0.000 A 
ENDROOT
BRANCH   4   7
ATOM      7  C   UNL     1       3.970   4.222  17.343  0.00  0.00    +0.000 A 
ATOM      8  N   UNL     1       3.247   3.360  16.655  0.00  0.00    +0.000 NA
ATOM      9  N   UNL     1       3.948   3.071  15.506  0.00  0.00    +0.000 NA
ATOM     10  C   UNL     1       5.088   3.751  15.529  0.00  0.00    +0.000 A 
ATOM     11  N   UNL     1       5.270   4.170  16.827  0.00  0.00    +0.000 N 
ATOM     12  C   UNL     1       6.401   4.710  17.465  0.00  0.00    +0.000 A 
ATOM     13  C   UNL     1       6.483   4.563  18.860  0.00  0.00    +0.000 A 
ATOM     14  C   UNL     1       7.056   5.579  19.602  0.00  0.00    +0.000 A 
ATOM     15  C   UNL     1       7.565   6.656  18.905  0.00  0.00    +0.000 A 
ATOM     16  N   UNL     1       7.676   6.696  17.553  0.00  0.00    +0.000 NA
ATOM     17  C   UNL     1       7.129   5.694  16.824  0.00  0.00    +0.000 A 
ATOM     18  N   UNL     1       7.302   5.806  15.456  0.00  0.00    +0.000 N 
ATOM     19  C   UNL     1       6.953   4.999  14.363  0.00  0.00    +0.000 A 
ATOM     20  C   UNL     1       7.674   5.204  13.166  0.00  0.00    +0.000 A 
ATOM     21  C   UNL     1       7.369   4.510  11.993  0.00  0.00    +0.000 A 
ATOM     22  C   UNL     1       6.338   3.585  11.994  0.00  0.00    +0.000 A 
ATOM     23  C   UNL     1       5.645   3.332  13.178  0.00  0.00    +0.000 A 
ATOM     24  C   UNL     1       5.949   4.013  14.377  0.00  0.00    +0.000 A 
ATOM     25  H   UNL     1       7.900   6.601  15.256  0.00  0.00    +0.000 HD
ENDBRANCH   4   7
BRANCH   1  26
ATOM     26  C   UNL     1       1.768   8.228  20.960  0.00  0.00    +0.000 C 
BRANCH  26  30
ATOM     27  N   UNL     1      -0.097  11.326  21.990  0.00  0.00    +0.000 NA
ATOM     28  C   UNL     1      -0.318   9.991  22.598  0.00  0.00    +0.000 C 
ATOM     29  C   UNL     1      -0.533   8.820  21.604  0.00  0.00    +0.000 C 
ATOM     30  N   UNL     1       0.460   8.718  20.509  0.00  0.00    +0.000 NA
ATOM     31  C   UNL     1       0.605  10.055  19.893  0.00  0.00    +0.000 C 
ATOM     32  C   UNL     1       0.893  11.201  20.901  0.00  0.00    +0.000 C 
BRANCH  27  33
ATOM     33  C   UNL     1      -1.348  11.926  21.469  0.00  0.00    +0.000 C 
BRANCH  33  37
ATOM     34  C   UNL     1      -1.235  15.740  21.929  0.00  0.00    +0.000 C 
ATOM     35  N   UNL     1      -1.246  14.323  22.250  0.00  0.00    +0.000 N 
ATOM     36  C   UNL     1      -1.511  13.929  23.621  0.00  0.00    +0.000 C 
ATOM     37  C   UNL     1      -1.195  13.431  21.180  0.00  0.00    +0.000 C 
ATOM     38  O   UNL     1      -1.038  13.820  20.019  0.00  0.00    +0.000 OA
ENDBRANCH  33  37
ENDBRANCH  27  33
ENDBRANCH  26  30
ENDBRANCH   1  26
TORSDOF 5
ENDMDL
MODEL 7
REMARK VINA RESULT:      -7.5      1.137      1.305
REMARK  Name = 
REMARK  7 active torsions:
REMARK  status: ('A' for Active; 'I' for Inactive)
REMARK    1  A    between atoms: C_1  and  N_2
REMARK    2  A    between atoms: N_2  and  C_3
REMARK    3  A    between atoms: C_4  and  C_6
REMARK    4  A    between atoms: C_6  and  N_7
REMARK    5  A    between atoms: N_10  and  C_11
REMARK    6  A    between atoms: C_11  and  C_12
REMARK    7  A    between atoms: C_15  and  C_16
REMARK                            x       y       z     vdW  Elec       q    Type
REMARK                         _______ _______ _______ _____ _____    ______ ____
ROOT
ATOM      1  C   UNL     1       1.222   8.993  19.401  0.00  0.00    +0.000 A 
ATOM      2  C   UNL     1       0.692   9.446  18.180  0.00  0.00    +0.000 A 
ATOM      3  C   UNL     1      -0.357  10.382  18.144  0.00  0.00    +0.000 A 
ATOM      4  C   UNL     1      -0.924  10.862  19.322  0.00  0.00    +0.000 A 
ATOM      5  C   UNL     1      -0.439  10.337  20.536  0.00  0.00    +0.000 A 
ATOM      6  C   UNL     1       0.637   9.455  20.581  0.00  0.00    +0.000 A 
ENDROOT
BRANCH   4   7
ATOM      7  C   UNL     1      -2.061  11.805  19.316  0.00  0.00    +0.000 A 
ATOM      8  N   UNL     1      -3.274  11.568  18.853  0.00  0.00    +0.000 NA
ATOM      9  N   UNL     1      -4.136  12.389  19.543  0.00  0.00    +0.000 NA
ATOM     10  C   UNL     1      -3.428  13.117  20.399  0.00  0.00    +0.000 A 
ATOM     11  N   UNL     1      -2.114  13.025  19.998  0.00  0.00    +0.000 N 
ATOM     12  C   UNL     1      -0.986  13.772  20.383  0.00  0.00    +0.000 A 
ATOM     13  C   UNL     1       0.085  13.830  19.476  0.00  0.00    +0.000 A 
ATOM     14  C   UNL     1       1.375  13.862  19.972  0.00  0.00    +0.000 A 
ATOM     15  C   UNL     1       1.520  13.890  21.343  0.00  0.00    +0.000 A 
ATOM     16  N   UNL     1       0.487  14.050  22.209  0.00  0.00    +0.000 NA
ATOM     17  C   UNL     1      -0.778  14.034  21.724  0.00  0.00    +0.000 A 
ATOM     18  N   UNL     1      -1.769  14.218  22.671  0.00  0.00    +0.000 N 
ATOM     19  C   UNL     1      -3.167  14.316  22.610  0.00  0.00    +0.000 A 
ATOM     20  C   UNL     1      -3.808  14.943  23.700  0.00  0.00    +0.000 A 
ATOM     21  C   UNL     1      -5.199  15.036  23.784  0.00  0.00    +0.000 A 
ATOM     22  C   UNL     1      -5.982  14.511  22.768  0.00  0.00    +0.000 A 
ATOM     23  C   UNL     1      -5.367  13.931  21.659  0.00  0.00    +0.000 A 
ATOM     24  C   UNL     1      -3.962  13.842  21.550  0.00  0.00    +0.000 A 
ATOM     25  H   UNL     1      -1.342  14.421  23.569  0.00  0.00    +0.000 HD
ENDBRANCH   4   7
BRANCH   1  26
ATOM     26  C   UNL     1       2.271   7.910  19.506  0.00  0.00    +0.000 C 
BRANCH  26  30
ATOM     27  N   UNL     1       4.827   5.297  18.623  0.00  0.00    +0.000 NA
ATOM     28  C   UNL     1       4.647   6.562  17.869  0.00  0.00    +0.000 C 
ATOM     29  C   UNL     1       3.191   6.905  17.456  0.00  0.00    +0.000 C 
ATOM     30  N   UNL     1       2.181   6.812  18.536  0.00  0.00    +0.000 NA
ATOM     31  C   UNL     1       2.357   5.514  19.222  0.00  0.00    +0.000 C 
ATOM     32  C   UNL     1       3.809   5.225  19.691  0.00  0.00    +0.000 C 
BRANCH  27  33
ATOM     33  C   UNL     1       4.733   4.100  17.753  0.00  0.00    +0.000 C 
BRANCH  33  37
ATOM     34  C   UNL     1       7.315   4.833  15.003  0.00  0.00    +0.000 C 
ATOM     35  N   UNL     1       6.758   4.480  16.297  0.00  0.00    +0.000 N 
ATOM     36  C   UNL     1       7.634   4.500  17.453  0.00  0.00    +0.000 C 
ATOM     37  C   UNL     1       5.374   4.333  16.373  0.00  0.00    +0.000 C 
ATOM     38  O   UNL     1       4.660   4.393  15.367  0.00  0.00    +0.000 OA
ENDBRANCH  33  37
ENDBRANCH  27  33
ENDBRANCH  26  30
ENDBRANCH   1  26
TORSDOF 5
ENDMDL
MODEL 8
REMARK VINA RESULT:      -7.4      2.980     11.348
REMARK  Name = 
REMARK  7 active torsions:
REMARK  status: ('A' for Active; 'I' for Inactive)
REMARK    1  A    between atoms: C_1  and  N_2
REMARK    2  A    between atoms: N_2  and  C_3
REMARK    3  A    between atoms: C_4  and  C_6
REMARK    4  A    between atoms: C_6  and  N_7
REMARK    5  A    between atoms: N_10  and  C_11
REMARK    6  A    between atoms: C_11  and  C_12
REMARK    7  A    between atoms: C_15  and  C_16
REMARK                            x       y       z     vdW  Elec       q    Type
REMARK                         _______ _______ _______ _____ _____    ______ ____
ROOT
ATOM      1  C   UNL     1       2.356   7.522  19.647  0.00  0.00    +0.000 A 
ATOM      2  C   UNL     1       2.308   6.182  20.069  0.00  0.00    +0.000 A 
ATOM      3  C   UNL     1       2.865   5.152  19.289  0.00  0.00    +0.000 A 
ATOM      4  C   UNL     1       3.452   5.431  18.057  0.00  0.00    +0.000 A 
ATOM      5  C   UNL     1       3.419   6.765  17.609  0.00  0.00    +0.000 A 
ATOM      6  C   UNL     1       2.922   7.797  18.401  0.00  0.00    +0.000 A 
ENDROOT
BRANCH   4   7
ATOM      7  C   UNL     1       3.998   4.365  17.192  0.00  0.00    +0.000 A 
ATOM      8  N   UNL     1       3.308   3.424  16.575  0.00  0.00    +0.000 NA
ATOM      9  N   UNL     1       4.033   3.054  15.465  0.00  0.00    +0.000 NA
ATOM     10  C   UNL     1       5.153   3.766  15.440  0.00  0.00    +0.000 A 
ATOM     11  N   UNL     1       5.306   4.303  16.698  0.00  0.00    +0.000 N 
ATOM     12  C   UNL     1       6.413   4.929  17.298  0.00  0.00    +0.000 A 
ATOM     13  C   UNL     1       6.479   4.910  18.701  0.00  0.00    +0.000 A 
ATOM     14  C   UNL     1       7.014   6.003  19.357  0.00  0.00    +0.000 A 
ATOM     15  C   UNL     1       7.503   7.027  18.572  0.00  0.00    +0.000 A 
ATOM     16  N   UNL     1       7.633   6.951  17.223  0.00  0.00    +0.000 NA
ATOM     17  C   UNL     1       7.123   5.873  16.580  0.00  0.00    +0.000 A 
ATOM     18  N   UNL     1       7.312   5.867  15.210  0.00  0.00    +0.000 N 
ATOM     19  C   UNL     1       7.000   4.957  14.189  0.00  0.00    +0.000 A 
ATOM     20  C   UNL     1       7.732   5.075  12.987  0.00  0.00    +0.000 A 
ATOM     21  C   UNL     1       7.462   4.272  11.877  0.00  0.00    +0.000 A 
ATOM     22  C   UNL     1       6.456   3.321  11.949  0.00  0.00    +0.000 A 
ATOM     23  C   UNL     1       5.754   3.156  13.143  0.00  0.00    +0.000 A 
ATOM     24  C   UNL     1       6.023   3.948  14.279  0.00  0.00    +0.000 A 
ATOM     25  H   UNL     1       7.891   6.658  14.947  0.00  0.00    +0.000 HD
ENDBRANCH   4   7
BRANCH   1  26
ATOM     26  C   UNL     1       1.682   8.656  20.385  0.00  0.00    +0.000 C 
BRANCH  26  30
ATOM     27  N   UNL     1       0.332  12.124  20.924  0.00  0.00    +0.000 NA
ATOM     28  C   UNL     1      -0.265  10.905  21.523  0.00  0.00    +0.000 C 
ATOM     29  C   UNL     1      -0.528   9.728  20.547  0.00  0.00    +0.000 C 
ATOM     30  N   UNL     1       0.608   9.356  19.671  0.00  0.00    +0.000 NA
ATOM     31  C   UNL     1       1.135  10.591  19.050  0.00  0.00    +0.000 C 
ATOM     32  C   UNL     1       1.460  11.729  20.055  0.00  0.00    +0.000 C 
BRANCH  27  33
ATOM     33  C   UNL     1      -0.651  12.916  20.148  0.00  0.00    +0.000 C 
BRANCH  33  37
ATOM     34  C   UNL     1      -4.399  12.855  20.997  0.00  0.00    +0.000 C 
ATOM     35  N   UNL     1      -3.143  12.561  20.330  0.00  0.00    +0.000 N 
ATOM     36  C   UNL     1      -3.186  11.925  19.026  0.00  0.00    +0.000 C 
ATOM     37  C   UNL     1      -1.984  13.084  20.901  0.00  0.00    +0.000 C 
ATOM     38  O   UNL     1      -2.008  13.680  21.982  0.00  0.00    +0.000 OA
ENDBRANCH  33  37
ENDBRANCH  27  33
ENDBRANCH  26  30
ENDBRANCH   1  26
TORSDOF 5
ENDMDL
MODEL 9
REMARK VINA RESULT:      -7.4      1.943      2.599
REMARK  Name = 
REMARK  7 active torsions:
REMARK  status: ('A' for Active; 'I' for Inactive)
REMARK    1  A    between atoms: C_1  and  N_2
REMARK    2  A    between atoms: N_2  and  C_3
REMARK    3  A    between atoms: C_4  and  C_6
REMARK    4  A    between atoms: C_6  and  N_7
REMARK    5  A    between atoms: N_10  and  C_11
REMARK    6  A    between atoms: C_11  and  C_12
REMARK    7  A    between atoms: C_15  and  C_16
REMARK                            x       y       z     vdW  Elec       q    Type
REMARK                         _______ _______ _______ _____ _____    ______ ____
ROOT
ATOM      1  C   UNL     1       1.146   9.206  19.051  0.00  0.00    +0.000 A 
ATOM      2  C   UNL     1       0.607   9.634  17.825  0.00  0.00    +0.000 A 
ATOM      3  C   UNL     1      -0.584  10.381  17.775  0.00  0.00    +0.000 A 
ATOM      4  C   UNL     1      -1.280  10.690  18.941  0.00  0.00    +0.000 A 
ATOM      5  C   UNL     1      -0.772  10.185  20.153  0.00  0.00    +0.000 A 
ATOM      6  C   UNL     1       0.435   9.494  20.216  0.00  0.00    +0.000 A 
ENDROOT
BRANCH   4   7
ATOM      7  C   UNL     1      -2.560  11.427  18.915  0.00  0.00    +0.000 A 
ATOM      8  N   UNL     1      -3.635  11.110  18.218  0.00  0.00    +0.000 NA
ATOM      9  N   UNL     1      -4.719  11.625  18.892  0.00  0.00    +0.000 NA
ATOM     10  C   UNL     1      -4.279  12.257  19.974  0.00  0.00    +0.000 A 
ATOM     11  N   UNL     1      -2.929  12.454  19.791  0.00  0.00    +0.000 N 
ATOM     12  C   UNL     1      -2.020  13.267  20.492  0.00  0.00    +0.000 A 
ATOM     13  C   UNL     1      -0.865  13.678  19.805  0.00  0.00    +0.000 A 
ATOM     14  C   UNL     1       0.318  13.803  20.509  0.00  0.00    +0.000 A 
ATOM     15  C   UNL     1       0.268  13.565  21.867  0.00  0.00    +0.000 A 
ATOM     16  N   UNL     1      -0.884  13.378  22.560  0.00  0.00    +0.000 NA
ATOM     17  C   UNL     1      -2.047  13.271  21.873  0.00  0.00    +0.000 A 
ATOM     18  N   UNL     1      -3.174  13.098  22.657  0.00  0.00    +0.000 N 
ATOM     19  C   UNL     1      -4.545  12.991  22.379  0.00  0.00    +0.000 A 
ATOM     20  C   UNL     1      -5.432  13.268  23.441  0.00  0.00    +0.000 A 
ATOM     21  C   UNL     1      -6.815  13.128  23.304  0.00  0.00    +0.000 A 
ATOM     22  C   UNL     1      -7.343  12.714  22.092  0.00  0.00    +0.000 A 
ATOM     23  C   UNL     1      -6.487  12.481  21.015  0.00  0.00    +0.000 A 
ATOM     24  C   UNL     1      -5.089  12.633  21.131  0.00  0.00    +0.000 A 
ATOM     25  H   UNL     1      -2.918  13.171  23.636  0.00  0.00    +0.000 HD
ENDBRANCH   4   7
BRANCH   1  26
ATOM     26  C   UNL     1       2.359   8.310  19.163  0.00  0.00    +0.000 C 
BRANCH  26  30
ATOM     27  N   UNL     1       4.927   5.575  18.912  0.00  0.00    +0.000 NA
ATOM     28  C   UNL     1       4.996   6.843  18.144  0.00  0.00    +0.000 C 
ATOM     29  C   UNL     1       3.702   7.252  17.393  0.00  0.00    +0.000 C 
ATOM     30  N   UNL     1       2.456   7.213  18.193  0.00  0.00    +0.000 NA
ATOM     31  C   UNL     1       2.398   5.912  18.893  0.00  0.00    +0.000 C 
ATOM     32  C   UNL     1       3.677   5.557  19.700  0.00  0.00    +0.000 C 
BRANCH  27  33
ATOM     33  C   UNL     1       4.991   4.379  18.038  0.00  0.00    +0.000 C 
BRANCH  33  37
ATOM     34  C   UNL     1       2.776   1.381  18.975  0.00  0.00    +0.000 C 
ATOM     35  N   UNL     1       3.333   2.485  18.212  0.00  0.00    +0.000 N 
ATOM     36  C   UNL     1       2.584   2.984  17.075  0.00  0.00    +0.000 C 
ATOM     37  C   UNL     1       4.457   3.117  18.741  0.00  0.00    +0.000 C 
ATOM     38  O   UNL     1       5.021   2.694  19.755  0.00  0.00    +0.000 OA
ENDBRANCH  33  37
ENDBRANCH  27  33
ENDBRANCH  26  30
ENDBRANCH   1  26
TORSDOF 5
ENDMDL
