MODEL 1
REMARK VINA RESULT:      -8.0      0.000      0.000
REMARK  Name = 
REMARK  5 active torsions:
REMARK  status: ('A' for Active; 'I' for Inactive)
REMARK    1  A    between atoms: C_1  and  O_2
REMARK    2  A    between atoms: O_2  and  C_3
REMARK    3  A    between atoms: C_8  and  C_9
REMARK    4  A    between atoms: C_11  and  C_12
REMARK    5  A    between atoms: N_19  and  C_20
REMARK                            x       y       z     vdW  Elec       q    Type
REMARK                         _______ _______ _______ _____ _____    ______ ____
ROOT
ATOM      1  C   UNL     1       4.339   4.629  18.330  0.00  0.00    +0.000 C 
ATOM      2  C   UNL     1       5.181   3.919  17.267  0.00  0.00    +0.000 C 
ATOM      3  C   UNL     1       5.113   4.914  16.137  0.00  0.00    +0.000 C 
ATOM      4  N   UNL     1       4.444   5.997  16.390  0.00  0.00    +0.000 NA
ATOM      5  N   UNL     1       4.012   5.911  17.681  0.00  0.00    +0.000 N 
ENDROOT
BRANCH   1  11
ATOM      6  C   UNL     1       3.004   3.045  19.912  0.00  0.00    +0.000 A 
ATOM      7  C   UNL     1       1.786   2.401  20.210  0.00  0.00    +0.000 A 
ATOM      8  C   UNL     1       0.687   2.472  19.356  0.00  0.00    +0.000 A 
ATOM      9  C   UNL     1       0.806   3.154  18.159  0.00  0.00    +0.000 A 
ATOM     10  C   UNL     1       2.004   3.800  17.854  0.00  0.00    +0.000 A 
ATOM     11  C   UNL     1       3.114   3.814  18.738  0.00  0.00    +0.000 A 
BRANCH   6  13
ATOM     12  C   UNL     1       4.860   1.628  20.525  0.00  0.00    +0.000 C 
ATOM     13  O   UNL     1       3.974   2.694  20.808  0.00  0.00    +0.000 OA
ENDBRANCH   6  13
ENDBRANCH   1  11
BRANCH   3  14
ATOM     14  C   UNL     1       5.805   4.677  14.847  0.00  0.00    +0.000 A 
ATOM     15  C   UNL     1       5.265   3.829  13.874  0.00  0.00    +0.000 A 
ATOM     16  C   UNL     1       5.954   3.603  12.679  0.00  0.00    +0.000 A 
ATOM     17  C   UNL     1       7.187   4.214  12.454  0.00  0.00    +0.000 A 
ATOM     18  C   UNL     1       7.732   5.063  13.417  0.00  0.00    +0.000 A 
ATOM     19  C   UNL     1       7.041   5.296  14.610  0.00  0.00    +0.000 A 
ENDBRANCH   3  14
BRANCH   5  20
ATOM     20  C   UNL     1       3.220   6.915  18.244  0.00  0.00    +0.000 A 
ATOM     21  C   UNL     1       2.859   8.047  17.494  0.00  0.00    +0.000 A 
ATOM     22  C   UNL     1       2.006   9.028  18.011  0.00  0.00    +0.000 A 
ATOM     23  C   UNL     1       1.520   8.912  19.309  0.00  0.00    +0.000 A 
ATOM     24  C   UNL     1       1.885   7.816  20.084  0.00  0.00    +0.000 A 
ATOM     25  C   UNL     1       2.721   6.828  19.553  0.00  0.00    +0.000 A 
ENDBRANCH   5  20
TORSDOF 4
ENDMDL
MODEL 2
REMARK VINA RESULT:      -7.9      0.084      1.365
REMARK  Name = 
REMARK  5 active torsions:
REMARK  status: ('A' for Active; 'I' for Inactive)
REMARK    1  A    between atoms: C_1  and  O_2
REMARK    2  A    between atoms: O_2  and  C_3
REMARK    3  A    between atoms: C_8  and  C_9
REMARK    4  A    between atoms: C_11  and  C_12
REMARK    5  A    between atoms: N_19  and  C_20
REMARK                            x       y       z     vdW  Elec       q    Type
REMARK                         _______ _______ _______ _____ _____    ______ ____
ROOT
ATOM      1  C   UNL     1       4.287   4.680  18.393  0.00  0.00    +0.000 C 
ATOM      2  C   UNL     1       5.178   3.977  17.367  0.00  0.00    +0.000 C 
ATOM      3  C   UNL     1       5.114   4.950  16.218  0.00  0.00    +0.000 C 
ATOM      4  N   UNL     1       4.409   6.018  16.434  0.00  0.00    +0.000 NA
ATOM      5  N   UNL     1       3.943   5.942  17.713  0.00  0.00    +0.000 N 
ENDROOT
BRANCH   1  11
ATOM      6  C   UNL     1       2.970   3.050  19.942  0.00  0.00    +0.000 A 
ATOM      7  C   UNL     1       1.762   2.381  20.223  0.00  0.00    +0.000 A 
ATOM      8  C   UNL     1       0.667   2.446  19.364  0.00  0.00    +0.000 A 
ATOM      9  C   UNL     1       0.781   3.150  18.179  0.00  0.00    +0.000 A 
ATOM     10  C   UNL     1       1.969   3.821  17.891  0.00  0.00    +0.000 A 
ATOM     11  C   UNL     1       3.074   3.839  18.781  0.00  0.00    +0.000 A 
BRANCH   6  13
ATOM     12  C   UNL     1       4.839   1.646  20.549  0.00  0.00    +0.000 C 
ATOM     13  O   UNL     1       3.942   2.701  20.838  0.00  0.00    +0.000 OA
ENDBRANCH   6  13
ENDBRANCH   1  11
BRANCH   3  14
ATOM     14  C   UNL     1       5.848   4.711  14.952  0.00  0.00    +0.000 A 
ATOM     15  C   UNL     1       7.070   5.337  14.687  0.00  0.00    +0.000 A 
ATOM     16  C   UNL     1       7.725   5.114  13.472  0.00  0.00    +0.000 A 
ATOM     17  C   UNL     1       7.161   4.273  12.515  0.00  0.00    +0.000 A 
ATOM     18  C   UNL     1       5.943   3.642  12.772  0.00  0.00    +0.000 A 
ATOM     19  C   UNL     1       5.290   3.858  13.988  0.00  0.00    +0.000 A 
ENDBRANCH   3  14
BRANCH   5  20
ATOM     20  C   UNL     1       3.109   6.933  18.237  0.00  0.00    +0.000 A 
ATOM     21  C   UNL     1       2.641   6.849  19.559  0.00  0.00    +0.000 A 
ATOM     22  C   UNL     1       1.867   7.865  20.129  0.00  0.00    +0.000 A 
ATOM     23  C   UNL     1       1.516   8.978  19.373  0.00  0.00    +0.000 A 
ATOM     24  C   UNL     1       1.941   9.073  18.052  0.00  0.00    +0.000 A 
ATOM     25  C   UNL     1       2.732   8.063  17.495  0.00  0.00    +0.000 A 
ENDBRANCH   5  20
TORSDOF 4
ENDMDL
MODEL 3
REMARK VINA RESULT:      -7.9      0.387      1.040
REMARK  Name = 
REMARK  5 active torsions:
REMARK  status: ('A' for Active; 'I' for Inactive)
REMARK    1  A    between atoms: C_1  and  O_2
REMARK    2  A    between atoms: O_2  and  C_3
REMARK    3  A    between atoms: C_8  and  C_9
REMARK    4  A    between atoms: C_11  and  C_12
REMARK    5  A    between atoms: N_19  and  C_20
REMARK                            x       y       z     vdW  Elec       q    Type
REMARK                         _______ _______ _______ _____ _____    ______ ____
ROOT
ATOM      1  C   UNL     1       4.690   4.641  18.181  0.00  0.00    +0.000 C 
ATOM      2  C   UNL     1       5.539   3.952  17.110  0.00  0.00    +0.000 C 
ATOM      3  C   UNL     1       5.368   4.904  15.953  0.00  0.00    +0.000 C 
ATOM      4  N   UNL     1       4.640   5.950  16.199  0.00  0.00    +0.000 NA
ATOM      5  N   UNL     1       4.259   5.879  17.506  0.00  0.00    +0.000 N 
ENDROOT
BRANCH   1  11
ATOM      6  C   UNL     1       3.556   2.943  19.801  0.00  0.00    +0.000 A 
ATOM      7  C   UNL     1       2.392   2.242  20.175  0.00  0.00    +0.000 A 
ATOM      8  C   UNL     1       1.220   2.307  19.426  0.00  0.00    +0.000 A 
ATOM      9  C   UNL     1       1.208   3.043  18.255  0.00  0.00    +0.000 A 
ATOM     10  C   UNL     1       2.351   3.746  17.875  0.00  0.00    +0.000 A 
ATOM     11  C   UNL     1       3.535   3.764  18.658  0.00  0.00    +0.000 A 
BRANCH   6  13
ATOM     12  C   UNL     1       5.051   1.247  20.648  0.00  0.00    +0.000 C 
ATOM     13  O   UNL     1       4.614   2.591  20.592  0.00  0.00    +0.000 OA
ENDBRANCH   6  13
ENDBRANCH   1  11
BRANCH   3  14
ATOM     14  C   UNL     1       6.028   4.669  14.647  0.00  0.00    +0.000 A 
ATOM     15  C   UNL     1       7.218   5.318  14.303  0.00  0.00    +0.000 A 
ATOM     16  C   UNL     1       7.802   5.098  13.052  0.00  0.00    +0.000 A 
ATOM     17  C   UNL     1       7.198   4.239  12.137  0.00  0.00    +0.000 A 
ATOM     18  C   UNL     1       6.011   3.585  12.472  0.00  0.00    +0.000 A 
ATOM     19  C   UNL     1       5.429   3.798  13.724  0.00  0.00    +0.000 A 
ENDBRANCH   3  14
BRANCH   5  20
ATOM     20  C   UNL     1       3.425   6.848  18.069  0.00  0.00    +0.000 A 
ATOM     21  C   UNL     1       3.028   7.971  17.322  0.00  0.00    +0.000 A 
ATOM     22  C   UNL     1       2.134   8.915  17.837  0.00  0.00    +0.000 A 
ATOM     23  C   UNL     1       1.641   8.773  19.130  0.00  0.00    +0.000 A 
ATOM     24  C   UNL     1       2.041   7.687  19.902  0.00  0.00    +0.000 A 
ATOM     25  C   UNL     1       2.919   6.735  19.372  0.00  0.00    +0.000 A 
ENDBRANCH   5  20
TORSDOF 4
ENDMDL
MODEL 4
REMARK VINA RESULT:      -7.8      1.386      2.307
REMARK  Name = 
REMARK  5 active torsions:
REMARK  status: ('A' for Active; 'I' for Inactive)
REMARK    1  A    between atoms: C_1  and  O_2
REMARK    2  A    between atoms: O_2  and  C_3
REMARK    3  A    between atoms: C_8  and  C_9
REMARK    4  A    between atoms: C_11  and  C_12
REMARK    5  A    between atoms: N_19  and  C_20
REMARK                            x       y       z     vdW  Elec       q    Type
REMARK                         _______ _______ _______ _____ _____    ______ ____
ROOT
ATOM      1  C   UNL     1       4.070   5.334  19.218  0.00  0.00    +0.000 C 
ATOM      2  C   UNL     1       5.036   4.583  18.299  0.00  0.00    +0.000 C 
ATOM      3  C   UNL     1       4.860   5.347  17.012  0.00  0.00    +0.000 C 
ATOM      4  N   UNL     1       4.036   6.348  17.070  0.00  0.00    +0.000 NA
ATOM      5  N   UNL     1       3.582   6.424  18.353  0.00  0.00    +0.000 N 
ENDROOT
BRANCH   1  11
ATOM      6  C   UNL     1       2.073   3.678  18.967  0.00  0.00    +0.000 A 
ATOM      7  C   UNL     1       1.144   2.822  19.592  0.00  0.00    +0.000 A 
ATOM      8  C   UNL     1       1.052   2.720  20.978  0.00  0.00    +0.000 A 
ATOM      9  C   UNL     1       1.863   3.515  21.768  0.00  0.00    +0.000 A 
ATOM     10  C   UNL     1       2.790   4.363  21.163  0.00  0.00    +0.000 A 
ATOM     11  C   UNL     1       2.963   4.432  19.756  0.00  0.00    +0.000 A 
BRANCH   6  13
ATOM     12  C   UNL     1       2.384   2.727  16.771  0.00  0.00    +0.000 C 
ATOM     13  O   UNL     1       1.859   3.730  17.618  0.00  0.00    +0.000 OA
ENDBRANCH   6  13
ENDBRANCH   1  11
BRANCH   3  14
ATOM     14  C   UNL     1       5.617   4.996  15.787  0.00  0.00    +0.000 A 
ATOM     15  C   UNL     1       6.942   5.404  15.604  0.00  0.00    +0.000 A 
ATOM     16  C   UNL     1       7.621   5.081  14.426  0.00  0.00    +0.000 A 
ATOM     17  C   UNL     1       6.979   4.358  13.422  0.00  0.00    +0.000 A 
ATOM     18  C   UNL     1       5.658   3.943  13.596  0.00  0.00    +0.000 A 
ATOM     19  C   UNL     1       4.980   4.259  14.777  0.00  0.00    +0.000 A 
ENDBRANCH   3  14
BRANCH   5  20
ATOM     20  C   UNL     1       2.638   7.383  18.729  0.00  0.00    +0.000 A 
ATOM     21  C   UNL     1       2.167   7.444  20.051  0.00  0.00    +0.000 A 
ATOM     22  C   UNL     1       1.280   8.441  20.469  0.00  0.00    +0.000 A 
ATOM     23  C   UNL     1       0.818   9.385  19.558  0.00  0.00    +0.000 A 
ATOM     24  C   UNL     1       1.245   9.331  18.236  0.00  0.00    +0.000 A 
ATOM     25  C   UNL     1       2.149   8.343  17.830  0.00  0.00    +0.000 A 
ENDBRANCH   5  20
TORSDOF 4
ENDMDL
MODEL 5
REMARK VINA RESULT:      -7.6      1.408      1.905
REMARK  Name = 
REMARK  5 active torsions:
REMARK  status: ('A' for Active; 'I' for Inactive)
REMARK    1  A    between atoms: C_1  and  O_2
REMARK    2  A    between atoms: O_2  and  C_3
REMARK    3  A    between atoms: C_8  and  C_9
REMARK    4  A    between atoms: C_11  and  C_12
REMARK    5  A    between atoms: N_19  and  C_20
REMARK                            x       y       z     vdW  Elec       q    Type
REMARK                         _______ _______ _______ _____ _____    ______ ____
ROOT
ATOM      1  C   UNL     1       4.070   5.376  19.212  0.00  0.00    +0.000 C 
ATOM      2  C   UNL     1       5.010   4.615  18.274  0.00  0.00    +0.000 C 
ATOM      3  C   UNL     1       4.840   5.400  16.999  0.00  0.00    +0.000 C 
ATOM      4  N   UNL     1       4.040   6.419  17.078  0.00  0.00    +0.000 NA
ATOM      5  N   UNL     1       3.600   6.488  18.366  0.00  0.00    +0.000 N 
ENDROOT
BRANCH   1  11
ATOM      6  C   UNL     1       2.016   3.792  18.960  0.00  0.00    +0.000 A 
ATOM      7  C   UNL     1       1.074   2.946  19.580  0.00  0.00    +0.000 A 
ATOM      8  C   UNL     1       1.011   2.804  20.965  0.00  0.00    +0.000 A 
ATOM      9  C   UNL     1       1.865   3.549  21.758  0.00  0.00    +0.000 A 
ATOM     10  C   UNL     1       2.805   4.386  21.157  0.00  0.00    +0.000 A 
ATOM     11  C   UNL     1       2.947   4.492  19.749  0.00  0.00    +0.000 A 
BRANCH   6  13
ATOM     12  C   UNL     1       2.297   2.932  16.721  0.00  0.00    +0.000 C 
ATOM     13  O   UNL     1       1.773   3.892  17.618  0.00  0.00    +0.000 OA
ENDBRANCH   6  13
ENDBRANCH   1  11
BRANCH   3  14
ATOM     14  C   UNL     1       5.577   5.047  15.762  0.00  0.00    +0.000 A 
ATOM     15  C   UNL     1       4.975   4.306  14.740  0.00  0.00    +0.000 A 
ATOM     16  C   UNL     1       5.704   3.964  13.597  0.00  0.00    +0.000 A 
ATOM     17  C   UNL     1       7.037   4.352  13.473  0.00  0.00    +0.000 A 
ATOM     18  C   UNL     1       7.645   5.093  14.486  0.00  0.00    +0.000 A 
ATOM     19  C   UNL     1       6.916   5.443  15.627  0.00  0.00    +0.000 A 
ENDBRANCH   3  14
BRANCH   5  20
ATOM     20  C   UNL     1       2.682   7.464  18.763  0.00  0.00    +0.000 A 
ATOM     21  C   UNL     1       2.219   8.425  17.849  0.00  0.00    +0.000 A 
ATOM     22  C   UNL     1       1.245   9.364  18.203  0.00  0.00    +0.000 A 
ATOM     23  C   UNL     1       0.735   9.382  19.497  0.00  0.00    +0.000 A 
ATOM     24  C   UNL     1       1.197   8.461  20.430  0.00  0.00    +0.000 A 
ATOM     25  C   UNL     1       2.156   7.511  20.063  0.00  0.00    +0.000 A 
ENDBRANCH   5  20
TORSDOF 4
ENDMDL
MODEL 6
REMARK VINA RESULT:      -7.5      1.909      5.848
REMARK  Name = 
REMARK  5 active torsions:
REMARK  status: ('A' for Active; 'I' for Inactive)
REMARK    1  A    between atoms: C_1  and  O_2
REMARK    2  A    between atoms: O_2  and  C_3
REMARK    3  A    between atoms: C_8  and  C_9
REMARK    4  A    between atoms: C_11  and  C_12
REMARK    5  A    between atoms: N_19  and  C_20
REMARK                            x       y       z     vdW  Elec       q    Type
REMARK                         _______ _______ _______ _____ _____    ______ ____
ROOT
ATOM      1  C   UNL     1       2.360   5.646  17.932  0.00  0.00    +0.000 C 
ATOM      2  C   UNL     1       1.389   6.799  18.194  0.00  0.00    +0.000 C 
ATOM      3  C   UNL     1       2.329   7.977  18.166  0.00  0.00    +0.000 C 
ATOM      4  N   UNL     1       3.570   7.690  17.918  0.00  0.00    +0.000 NA
ATOM      5  N   UNL     1       3.641   6.344  17.718  0.00  0.00    +0.000 N 
ENDROOT
BRANCH   1  11
ATOM      6  C   UNL     1       2.753   3.286  18.965  0.00  0.00    +0.000 A 
ATOM      7  C   UNL     1       2.814   2.481  20.121  0.00  0.00    +0.000 A 
ATOM      8  C   UNL     1       2.491   2.978  21.382  0.00  0.00    +0.000 A 
ATOM      9  C   UNL     1       2.053   4.284  21.500  0.00  0.00    +0.000 A 
ATOM     10  C   UNL     1       1.992   5.093  20.366  0.00  0.00    +0.000 A 
ATOM     11  C   UNL     1       2.390   4.641  19.080  0.00  0.00    +0.000 A 
BRANCH   6  13
ATOM     12  C   UNL     1       3.796   1.404  17.870  0.00  0.00    +0.000 C 
ATOM     13  O   UNL     1       2.951   2.538  17.838  0.00  0.00    +0.000 OA
ENDBRANCH   6  13
ENDBRANCH   1  11
BRANCH   3  14
ATOM     14  C   UNL     1       1.846   9.365  18.366  0.00  0.00    +0.000 A 
ATOM     15  C   UNL     1       2.552  10.463  17.863  0.00  0.00    +0.000 A 
ATOM     16  C   UNL     1       2.086  11.761  18.092  0.00  0.00    +0.000 A 
ATOM     17  C   UNL     1       0.922  11.969  18.828  0.00  0.00    +0.000 A 
ATOM     18  C   UNL     1       0.210  10.880  19.332  0.00  0.00    +0.000 A 
ATOM     19  C   UNL     1       0.669   9.581  19.098  0.00  0.00    +0.000 A 
ENDBRANCH   3  14
BRANCH   5  20
ATOM     20  C   UNL     1       4.863   5.715  17.468  0.00  0.00    +0.000 A 
ATOM     21  C   UNL     1       5.083   5.033  16.259  0.00  0.00    +0.000 A 
ATOM     22  C   UNL     1       6.323   4.461  15.955  0.00  0.00    +0.000 A 
ATOM     23  C   UNL     1       7.365   4.531  16.874  0.00  0.00    +0.000 A 
ATOM     24  C   UNL     1       7.165   5.175  18.090  0.00  0.00    +0.000 A 
ATOM     25  C   UNL     1       5.930   5.764  18.378  0.00  0.00    +0.000 A 
ENDBRANCH   5  20
TORSDOF 4
ENDMDL
MODEL 7
REMARK VINA RESULT:      -7.4      1.943      5.857
REMARK  Name = 
REMARK  5 active torsions:
REMARK  status: ('A' for Active; 'I' for Inactive)
REMARK    1  A    between atoms: C_1  and  O_2
REMARK    2  A    between atoms: O_2  and  C_3
REMARK    3  A    between atoms: C_8  and  C_9
REMARK    4  A    between atoms: C_11  and  C_12
REMARK    5  A    between atoms: N_19  and  C_20
REMARK                            x       y       z     vdW  Elec       q    Type
REMARK                         _______ _______ _______ _____ _____    ______ ____
ROOT
ATOM      1  C   UNL     1       2.434   5.698  17.919  0.00  0.00    +0.000 C 
ATOM      2  C   UNL     1       1.441   6.825  18.209  0.00  0.00    +0.000 C 
ATOM      3  C   UNL     1       2.357   8.022  18.206  0.00  0.00    +0.000 C 
ATOM      4  N   UNL     1       3.604   7.766  17.950  0.00  0.00    +0.000 NA
ATOM      5  N   UNL     1       3.701   6.426  17.718  0.00  0.00    +0.000 N 
ENDROOT
BRANCH   1  11
ATOM      6  C   UNL     1       2.966   3.351  18.918  0.00  0.00    +0.000 A 
ATOM      7  C   UNL     1       3.033   2.523  20.057  0.00  0.00    +0.000 A 
ATOM      8  C   UNL     1       2.603   2.957  21.309  0.00  0.00    +0.000 A 
ATOM      9  C   UNL     1       2.052   4.219  21.433  0.00  0.00    +0.000 A 
ATOM     10  C   UNL     1       1.984   5.051  20.316  0.00  0.00    +0.000 A 
ATOM     11  C   UNL     1       2.486   4.668  19.044  0.00  0.00    +0.000 A 
BRANCH   6  13
ATOM     12  C   UNL     1       3.820   1.346  17.879  0.00  0.00    +0.000 C 
ATOM     13  O   UNL     1       3.286   2.652  17.788  0.00  0.00    +0.000 OA
ENDBRANCH   6  13
ENDBRANCH   1  11
BRANCH   3  14
ATOM     14  C   UNL     1       1.848   9.395  18.438  0.00  0.00    +0.000 A 
ATOM     15  C   UNL     1       0.678   9.626  19.168  0.00  0.00    +0.000 A 
ATOM     16  C   UNL     1       0.206  10.930  19.346  0.00  0.00    +0.000 A 
ATOM     17  C   UNL     1       0.894  12.006  18.790  0.00  0.00    +0.000 A 
ATOM     18  C   UNL     1       2.064  11.786  18.061  0.00  0.00    +0.000 A 
ATOM     19  C   UNL     1       2.541  10.484  17.888  0.00  0.00    +0.000 A 
ENDBRANCH   3  14
BRANCH   5  20
ATOM     20  C   UNL     1       4.934   5.827  17.453  0.00  0.00    +0.000 A 
ATOM     21  C   UNL     1       5.949   5.815  18.425  0.00  0.00    +0.000 A 
ATOM     22  C   UNL     1       7.164   5.157  18.210  0.00  0.00    +0.000 A 
ATOM     23  C   UNL     1       7.404   4.521  16.996  0.00  0.00    +0.000 A 
ATOM     24  C   UNL     1       6.429   4.542  16.005  0.00  0.00    +0.000 A 
ATOM     25  C   UNL     1       5.208   5.184  16.236  0.00  0.00    +0.000 A 
ENDBRANCH   5  20
TORSDOF 4
ENDMDL
MODEL 8
REMARK VINA RESULT:      -7.3      2.455      3.758
REMARK  Name = 
REMARK  5 active torsions:
REMARK  status: ('A' for Active; 'I' for Inactive)
REMARK    1  A    between atoms: C_1  and  O_2
REMARK    2  A    between atoms: O_2  and  C_3
REMARK    3  A    between atoms: C_8  and  C_9
REMARK    4  A    between atoms: C_11  and  C_12
REMARK    5  A    between atoms: N_19  and  C_20
REMARK                            x       y       z     vdW  Elec       q    Type
REMARK                         _______ _______ _______ _____ _____    ______ ____
ROOT
ATOM      1  C   UNL     1       5.735   4.572  17.414  0.00  0.00    +0.000 C 
ATOM      2  C   UNL     1       5.330   3.704  16.220  0.00  0.00    +0.000 C 
ATOM      3  C   UNL     1       6.028   4.423  15.094  0.00  0.00    +0.000 C 
ATOM      4  N   UNL     1       6.729   5.457  15.446  0.00  0.00    +0.000 NA
ATOM      5  N   UNL     1       6.640   5.562  16.803  0.00  0.00    +0.000 N 
ENDROOT
BRANCH   1  11
ATOM      6  C   UNL     1       3.895   4.663  19.257  0.00  0.00    +0.000 A 
ATOM      7  C   UNL     1       2.836   5.375  19.856  0.00  0.00    +0.000 A 
ATOM      8  C   UNL     1       2.368   6.578  19.332  0.00  0.00    +0.000 A 
ATOM      9  C   UNL     1       2.926   7.067  18.165  0.00  0.00    +0.000 A 
ATOM     10  C   UNL     1       3.978   6.376  17.565  0.00  0.00    +0.000 A 
ATOM     11  C   UNL     1       4.529   5.190  18.116  0.00  0.00    +0.000 A 
BRANCH   6  13
ATOM     12  C   UNL     1       3.448   2.290  19.300  0.00  0.00    +0.000 C 
ATOM     13  O   UNL     1       4.059   3.442  19.849  0.00  0.00    +0.000 OA
ENDBRANCH   6  13
ENDBRANCH   1  11
BRANCH   3  14
ATOM     14  C   UNL     1       5.945   3.943  13.694  0.00  0.00    +0.000 A 
ATOM     15  C   UNL     1       7.079   3.876  12.877  0.00  0.00    +0.000 A 
ATOM     16  C   UNL     1       6.964   3.447  11.551  0.00  0.00    +0.000 A 
ATOM     17  C   UNL     1       5.720   3.092  11.034  0.00  0.00    +0.000 A 
ATOM     18  C   UNL     1       4.585   3.153  11.842  0.00  0.00    +0.000 A 
ATOM     19  C   UNL     1       4.697   3.575  13.170  0.00  0.00    +0.000 A 
ENDBRANCH   3  14
BRANCH   5  20
ATOM     20  C   UNL     1       7.260   6.610  17.487  0.00  0.00    +0.000 A 
ATOM     21  C   UNL     1       7.931   6.377  18.700  0.00  0.00    +0.000 A 
ATOM     22  C   UNL     1       8.622   7.394  19.364  0.00  0.00    +0.000 A 
ATOM     23  C   UNL     1       8.629   8.684  18.843  0.00  0.00    +0.000 A 
ATOM     24  C   UNL     1       7.949   8.950  17.659  0.00  0.00    +0.000 A 
ATOM     25  C   UNL     1       7.278   7.922  16.989  0.00  0.00    +0.000 A 
ENDBRANCH   5  20
TORSDOF 4
ENDMDL
MODEL 9
REMARK VINA RESULT:      -7.2      2.469      3.735
REMARK  Name = 
REMARK  5 active torsions:
REMARK  status: ('A' for Active; 'I' for Inactive)
REMARK    1  A    between atoms: C_1  and  O_2
REMARK    2  A    between atoms: O_2  and  C_3
REMARK    3  A    between atoms: C_8  and  C_9
REMARK    4  A    between atoms: C_11  and  C_12
REMARK    5  A    between atoms: N_19  and  C_20
REMARK                            x       y       z     vdW  Elec       q    Type
REMARK                         _______ _______ _______ _____ _____    ______ ____
ROOT
ATOM      1  C   UNL     1       5.434   4.861  17.364  0.00  0.00    +0.000 C 
ATOM      2  C   UNL     1       4.971   4.006  16.182  0.00  0.00    +0.000 C 
ATOM      3  C   UNL     1       5.842   4.548  15.077  0.00  0.00    +0.000 C 
ATOM      4  N   UNL     1       6.676   5.477  15.434  0.00  0.00    +0.000 NA
ATOM      5  N   UNL     1       6.521   5.665  16.775  0.00  0.00    +0.000 N 
ENDROOT
BRANCH   1  11
ATOM      6  C   UNL     1       3.580   5.376  19.121  0.00  0.00    +0.000 A 
ATOM      7  C   UNL     1       2.607   6.274  19.605  0.00  0.00    +0.000 A 
ATOM      8  C   UNL     1       2.306   7.461  18.942  0.00  0.00    +0.000 A 
ATOM      9  C   UNL     1       2.946   7.750  17.751  0.00  0.00    +0.000 A 
ATOM     10  C   UNL     1       3.915   6.873  17.263  0.00  0.00    +0.000 A 
ATOM     11  C   UNL     1       4.301   5.695  17.955  0.00  0.00    +0.000 A 
BRANCH   6  13
ATOM     12  C   UNL     1       2.388   3.759  20.459  0.00  0.00    +0.000 C 
ATOM     13  O   UNL     1       3.577   4.216  19.844  0.00  0.00    +0.000 OA
ENDBRANCH   6  13
ENDBRANCH   1  11
BRANCH   3  14
ATOM     14  C   UNL     1       5.771   4.016  13.696  0.00  0.00    +0.000 A 
ATOM     15  C   UNL     1       4.546   3.703  13.097  0.00  0.00    +0.000 A 
ATOM     16  C   UNL     1       4.513   3.175  11.802  0.00  0.00    +0.000 A 
ATOM     17  C   UNL     1       5.698   2.952  11.105  0.00  0.00    +0.000 A 
ATOM     18  C   UNL     1       6.924   3.264  11.693  0.00  0.00    +0.000 A 
ATOM     19  C   UNL     1       6.960   3.798  12.984  0.00  0.00    +0.000 A 
ENDBRANCH   3  14
BRANCH   5  20
ATOM     20  C   UNL     1       7.256   6.638  17.457  0.00  0.00    +0.000 A 
ATOM     21  C   UNL     1       7.343   7.949  16.958  0.00  0.00    +0.000 A 
ATOM     22  C   UNL     1       8.009   8.959  17.661  0.00  0.00    +0.000 A 
ATOM     23  C   UNL     1       8.634   8.668  18.869  0.00  0.00    +0.000 A 
ATOM     24  C   UNL     1       8.589   7.372  19.371  0.00  0.00    +0.000 A 
ATOM     25  C   UNL     1       7.902   6.373  18.674  0.00  0.00    +0.000 A 
ENDBRANCH   5  20
TORSDOF 4
ENDMDL
