MODEL 1
REMARK VINA RESULT:      -7.6      0.000      0.000
REMARK  Name = 
REMARK  10 active torsions:
REMARK  status: ('A' for Active; 'I' for Inactive)
REMARK    1  A    between atoms: C_2  and  O_3
REMARK    2  A    between atoms: C_2  and  C_4
REMARK    3  A    between atoms: C_7  and  C_8
REMARK    4  A    between atoms: C_8  and  C_10
REMARK    5  A    between atoms: C_10  and  C_11
REMARK    6  A    between atoms: C_11  and  C_12
REMARK    7  A    between atoms: C_12  and  C_13
REMARK    8  A    between atoms: C_13  and  C_14
REMARK    9  A    between atoms: C_14  and  C_15
REMARK   10  A    between atoms: C_15  and  C_16
REMARK                            x       y       z     vdW  Elec       q    Type
REMARK                         _______ _______ _______ _____ _____    ______ ____
ROOT
ATOM      1  C   UNL     1       5.832   4.601  17.557  0.00  0.00    +0.000 C 
ENDROOT
BRANCH   1   2
ATOM      2  C   UNL     1       7.136   4.418  16.794  0.00  0.00    +0.000 C 
ATOM      3  O   UNL     1       8.194   4.209  17.378  0.00  0.00    +0.000 OA
BRANCH   2   7
ATOM      4  C   UNL     1       6.433   3.940  13.341  0.00  0.00    +0.000 A 
ATOM      5  C   UNL     1       7.287   5.017  13.309  0.00  0.00    +0.000 A 
ATOM      6  N   UNL     1       7.653   5.377  14.579  0.00  0.00    +0.000 NA
ATOM      7  C   UNL     1       7.028   4.506  15.352  0.00  0.00    +0.000 A 
ATOM      8  O   UNL     1       6.243   3.606  14.662  0.00  0.00    +0.000 OA
BRANCH   4  10
ATOM      9  O   UNL     1       4.694   3.393  11.834  0.00  0.00    +0.000 OA
ATOM     10  C   UNL     1       5.813   3.192  12.288  0.00  0.00    +0.000 C 
BRANCH  10  11
ATOM     11  O   UNL     1       6.616   2.200  11.826  0.00  0.00    +0.000 OA
ATOM     12  H   UNL     1       6.496   1.370  12.330  0.00  0.00    +0.000 HD
ENDBRANCH  10  11
ENDBRANCH   4  10
ENDBRANCH   2   7
ENDBRANCH   1   2
BRANCH   1  13
ATOM     13  C   UNL     1       4.914   5.657  16.937  0.00  0.00    +0.000 C 
BRANCH  13  14
ATOM     14  C   UNL     1       4.737   6.883  17.836  0.00  0.00    +0.000 C 
BRANCH  14  15
ATOM     15  C   UNL     1       3.489   7.690  17.469  0.00  0.00    +0.000 C 
BRANCH  15  16
ATOM     16  C   UNL     1       2.286   7.264  18.301  0.00  0.00    +0.000 C 
BRANCH  16  17
ATOM     17  C   UNL     1       2.703   6.486  19.555  0.00  0.00    +0.000 C 
BRANCH  17  18
ATOM     18  C   UNL     1       2.052   5.124  19.563  0.00  0.00    +0.000 A 
ATOM     19  C   UNL     1       1.774   4.482  20.776  0.00  0.00    +0.000 A 
ATOM     20  C   UNL     1       1.303   3.169  20.788  0.00  0.00    +0.000 A 
ATOM     21  C   UNL     1       1.089   2.493  19.588  0.00  0.00    +0.000 A 
ATOM     22  C   UNL     1       1.323   3.139  18.375  0.00  0.00    +0.000 A 
ATOM     23  C   UNL     1       1.803   4.449  18.361  0.00  0.00    +0.000 A 
ENDBRANCH  17  18
ENDBRANCH  16  17
ENDBRANCH  15  16
ENDBRANCH  14  15
ENDBRANCH  13  14
ENDBRANCH   1  13
TORSDOF 10
ENDMDL
MODEL 2
REMARK VINA RESULT:      -7.4      0.555      1.165
REMARK  Name = 
REMARK  10 active torsions:
REMARK  status: ('A' for Active; 'I' for Inactive)
REMARK    1  A    between atoms: C_2  and  O_3
REMARK    2  A    between atoms: C_2  and  C_4
REMARK    3  A    between atoms: C_7  and  C_8
REMARK    4  A    between atoms: C_8  and  C_10
REMARK    5  A    between atoms: C_10  and  C_11
REMARK    6  A    between atoms: C_11  and  C_12
REMARK    7  A    between atoms: C_12  and  C_13
REMARK    8  A    between atoms: C_13  and  C_14
REMARK    9  A    between atoms: C_14  and  C_15
REMARK   10  A    between atoms: C_15  and  C_16
REMARK                            x       y       z     vdW  Elec       q    Type
REMARK                         _______ _______ _______ _____ _____    ______ ____
ROOT
ATOM      1  C   UNL     1       5.537   4.395  17.360  0.00  0.00    +0.000 C 
ENDROOT
BRANCH   1   2
ATOM      2  C   UNL     1       6.908   4.462  16.703  0.00  0.00    +0.000 C 
ATOM      3  O   UNL     1       7.937   4.478  17.372  0.00  0.00    +0.000 OA
BRANCH   2   7
ATOM      4  C   UNL     1       6.416   3.888  13.228  0.00  0.00    +0.000 A 
ATOM      5  C   UNL     1       7.322   4.922  13.218  0.00  0.00    +0.000 A 
ATOM      6  N   UNL     1       7.619   5.312  14.497  0.00  0.00    +0.000 NA
ATOM      7  C   UNL     1       6.901   4.500  15.255  0.00  0.00    +0.000 A 
ATOM      8  O   UNL     1       6.121   3.614  14.544  0.00  0.00    +0.000 OA
BRANCH   4  10
ATOM      9  O   UNL     1       4.721   3.317  11.680  0.00  0.00    +0.000 OA
ATOM     10  C   UNL     1       5.831   3.131  12.162  0.00  0.00    +0.000 C 
BRANCH  10  11
ATOM     11  O   UNL     1       6.658   2.150  11.720  0.00  0.00    +0.000 OA
ATOM     12  H   UNL     1       7.524   2.172  12.176  0.00  0.00    +0.000 HD
ENDBRANCH  10  11
ENDBRANCH   4  10
ENDBRANCH   2   7
ENDBRANCH   1   2
BRANCH   1  13
ATOM     13  C   UNL     1       5.169   5.674  18.117  0.00  0.00    +0.000 C 
BRANCH  13  14
ATOM     14  C   UNL     1       4.731   6.805  17.183  0.00  0.00    +0.000 C 
BRANCH  14  15
ATOM     15  C   UNL     1       3.513   7.558  17.725  0.00  0.00    +0.000 C 
BRANCH  15  16
ATOM     16  C   UNL     1       2.398   6.600  18.122  0.00  0.00    +0.000 C 
BRANCH  16  17
ATOM     17  C   UNL     1       2.291   6.443  19.643  0.00  0.00    +0.000 C 
BRANCH  17  18
ATOM     18  C   UNL     1       2.039   4.999  20.001  0.00  0.00    +0.000 A 
ATOM     19  C   UNL     1       1.414   4.144  19.086  0.00  0.00    +0.000 A 
ATOM     20  C   UNL     1       1.053   2.849  19.460  0.00  0.00    +0.000 A 
ATOM     21  C   UNL     1       1.329   2.393  20.749  0.00  0.00    +0.000 A 
ATOM     22  C   UNL     1       1.989   3.223  21.653  0.00  0.00    +0.000 A 
ATOM     23  C   UNL     1       2.342   4.522  21.283  0.00  0.00    +0.000 A 
ENDBRANCH  17  18
ENDBRANCH  16  17
ENDBRANCH  15  16
ENDBRANCH  14  15
ENDBRANCH  13  14
ENDBRANCH   1  13
TORSDOF 10
ENDMDL
MODEL 3
REMARK VINA RESULT:      -7.3      1.124      1.371
REMARK  Name = 
REMARK  10 active torsions:
REMARK  status: ('A' for Active; 'I' for Inactive)
REMARK    1  A    between atoms: C_2  and  O_3
REMARK    2  A    between atoms: C_2  and  C_4
REMARK    3  A    between atoms: C_7  and  C_8
REMARK    4  A    between atoms: C_8  and  C_10
REMARK    5  A    between atoms: C_10  and  C_11
REMARK    6  A    between atoms: C_11  and  C_12
REMARK    7  A    between atoms: C_12  and  C_13
REMARK    8  A    between atoms: C_13  and  C_14
REMARK    9  A    between atoms: C_14  and  C_15
REMARK   10  A    between atoms: C_15  and  C_16
REMARK                            x       y       z     vdW  Elec       q    Type
REMARK                         _______ _______ _______ _____ _____    ______ ____
ROOT
ATOM      1  C   UNL     1       5.701   4.728  17.108  0.00  0.00    +0.000 C 
ENDROOT
BRANCH   1   2
ATOM      2  C   UNL     1       7.025   4.521  16.387  0.00  0.00    +0.000 C 
ATOM      3  O   UNL     1       8.076   4.393  17.006  0.00  0.00    +0.000 OA
BRANCH   2   7
ATOM      4  C   UNL     1       6.341   3.784  12.976  0.00  0.00    +0.000 A 
ATOM      5  C   UNL     1       7.272   4.789  12.867  0.00  0.00    +0.000 A 
ATOM      6  N   UNL     1       7.645   5.235  14.107  0.00  0.00    +0.000 NA
ATOM      7  C   UNL     1       6.945   4.485  14.941  0.00  0.00    +0.000 A 
ATOM      8  O   UNL     1       6.106   3.586  14.317  0.00  0.00    +0.000 OA
BRANCH   4  10
ATOM      9  O   UNL     1       6.153   2.006  11.428  0.00  0.00    +0.000 OA
ATOM     10  C   UNL     1       5.682   2.991  11.981  0.00  0.00    +0.000 C 
BRANCH  10  11
ATOM     11  O   UNL     1       4.438   3.456  11.701  0.00  0.00    +0.000 OA
ATOM     12  H   UNL     1       3.742   2.849  12.022  0.00  0.00    +0.000 HD
ENDBRANCH  10  11
ENDBRANCH   4  10
ENDBRANCH   2   7
ENDBRANCH   1   2
BRANCH   1  13
ATOM     13  C   UNL     1       5.519   6.153  17.638  0.00  0.00    +0.000 C 
BRANCH  13  14
ATOM     14  C   UNL     1       4.314   6.862  17.014  0.00  0.00    +0.000 C 
BRANCH  14  15
ATOM     15  C   UNL     1       3.416   7.507  18.073  0.00  0.00    +0.000 C 
BRANCH  15  16
ATOM     16  C   UNL     1       2.113   6.737  18.241  0.00  0.00    +0.000 C 
BRANCH  16  17
ATOM     17  C   UNL     1       2.141   5.823  19.472  0.00  0.00    +0.000 C 
BRANCH  17  18
ATOM     18  C   UNL     1       2.532   4.421  19.070  0.00  0.00    +0.000 A 
ATOM     19  C   UNL     1       3.447   3.695  19.842  0.00  0.00    +0.000 A 
ATOM     20  C   UNL     1       3.917   2.457  19.402  0.00  0.00    +0.000 A 
ATOM     21  C   UNL     1       3.464   1.928  18.194  0.00  0.00    +0.000 A 
ATOM     22  C   UNL     1       2.522   2.625  17.440  0.00  0.00    +0.000 A 
ATOM     23  C   UNL     1       2.057   3.867  17.874  0.00  0.00    +0.000 A 
ENDBRANCH  17  18
ENDBRANCH  16  17
ENDBRANCH  15  16
ENDBRANCH  14  15
ENDBRANCH  13  14
ENDBRANCH   1  13
TORSDOF 10
ENDMDL
MODEL 4
REMARK VINA RESULT:      -7.1      1.167      1.705
REMARK  Name = 
REMARK  10 active torsions:
REMARK  status: ('A' for Active; 'I' for Inactive)
REMARK    1  A    between atoms: C_2  and  O_3
REMARK    2  A    between atoms: C_2  and  C_4
REMARK    3  A    between atoms: C_7  and  C_8
REMARK    4  A    between atoms: C_8  and  C_10
REMARK    5  A    between atoms: C_10  and  C_11
REMARK    6  A    between atoms: C_11  and  C_12
REMARK    7  A    between atoms: C_12  and  C_13
REMARK    8  A    between atoms: C_13  and  C_14
REMARK    9  A    between atoms: C_14  and  C_15
REMARK   10  A    between atoms: C_15  and  C_16
REMARK                            x       y       z     vdW  Elec       q    Type
REMARK                         _______ _______ _______ _____ _____    ______ ____
ROOT
ATOM      1  C   UNL     1       5.701   4.683  17.144  0.00  0.00    +0.000 C 
ENDROOT
BRANCH   1   2
ATOM      2  C   UNL     1       7.039   4.517  16.439  0.00  0.00    +0.000 C 
ATOM      3  O   UNL     1       8.083   4.395  17.071  0.00  0.00    +0.000 OA
BRANCH   2   7
ATOM      4  C   UNL     1       6.464   3.814  13.001  0.00  0.00    +0.000 A 
ATOM      5  C   UNL     1       7.307   4.898  12.931  0.00  0.00    +0.000 A 
ATOM      6  N   UNL     1       7.624   5.342  14.187  0.00  0.00    +0.000 NA
ATOM      7  C   UNL     1       6.981   4.513  14.991  0.00  0.00    +0.000 A 
ATOM      8  O   UNL     1       6.230   3.562  14.333  0.00  0.00    +0.000 OA
BRANCH   4  10
ATOM      9  O   UNL     1       6.474   2.119  11.351  0.00  0.00    +0.000 OA
ATOM     10  C   UNL     1       5.888   2.994  11.977  0.00  0.00    +0.000 C 
BRANCH  10  11
ATOM     11  O   UNL     1       4.582   3.292  11.759  0.00  0.00    +0.000 OA
ATOM     12  H   UNL     1       4.353   4.184  12.092  0.00  0.00    +0.000 HD
ENDBRANCH  10  11
ENDBRANCH   4  10
ENDBRANCH   2   7
ENDBRANCH   1   2
BRANCH   1  13
ATOM     13  C   UNL     1       4.732   5.600  16.392  0.00  0.00    +0.000 C 
BRANCH  13  14
ATOM     14  C   UNL     1       4.443   6.898  17.151  0.00  0.00    +0.000 C 
BRANCH  14  15
ATOM     15  C   UNL     1       4.005   6.634  18.594  0.00  0.00    +0.000 C 
BRANCH  15  16
ATOM     16  C   UNL     1       2.488   6.570  18.711  0.00  0.00    +0.000 C 
BRANCH  16  17
ATOM     17  C   UNL     1       2.030   5.431  19.630  0.00  0.00    +0.000 C 
BRANCH  17  18
ATOM     18  C   UNL     1       2.595   4.116  19.149  0.00  0.00    +0.000 A 
ATOM     19  C   UNL     1       2.104   3.524  17.979  0.00  0.00    +0.000 A 
ATOM     20  C   UNL     1       2.521   2.246  17.606  0.00  0.00    +0.000 A 
ATOM     21  C   UNL     1       3.445   1.556  18.390  0.00  0.00    +0.000 A 
ATOM     22  C   UNL     1       3.969   2.155  19.534  0.00  0.00    +0.000 A 
ATOM     23  C   UNL     1       3.547   3.430  19.914  0.00  0.00    +0.000 A 
ENDBRANCH  17  18
ENDBRANCH  16  17
ENDBRANCH  15  16
ENDBRANCH  14  15
ENDBRANCH  13  14
ENDBRANCH   1  13
TORSDOF 10
ENDMDL
MODEL 5
REMARK VINA RESULT:      -7.1      1.169      2.100
REMARK  Name = 
REMARK  10 active torsions:
REMARK  status: ('A' for Active; 'I' for Inactive)
REMARK    1  A    between atoms: C_2  and  O_3
REMARK    2  A    between atoms: C_2  and  C_4
REMARK    3  A    between atoms: C_7  and  C_8
REMARK    4  A    between atoms: C_8  and  C_10
REMARK    5  A    between atoms: C_10  and  C_11
REMARK    6  A    between atoms: C_11  and  C_12
REMARK    7  A    between atoms: C_12  and  C_13
REMARK    8  A    between atoms: C_13  and  C_14
REMARK    9  A    between atoms: C_14  and  C_15
REMARK   10  A    between atoms: C_15  and  C_16
REMARK                            x       y       z     vdW  Elec       q    Type
REMARK                         _______ _______ _______ _____ _____    ______ ____
ROOT
ATOM      1  C   UNL     1       5.896   5.928  17.624  0.00  0.00    +0.000 C 
ENDROOT
BRANCH   1   2
ATOM      2  C   UNL     1       6.864   4.903  17.052  0.00  0.00    +0.000 C 
ATOM      3  O   UNL     1       7.554   4.199  17.782  0.00  0.00    +0.000 OA
BRANCH   2   7
ATOM      4  C   UNL     1       6.414   4.112  13.614  0.00  0.00    +0.000 A 
ATOM      5  C   UNL     1       7.428   5.039  13.560  0.00  0.00    +0.000 A 
ATOM      6  N   UNL     1       7.729   5.495  14.816  0.00  0.00    +0.000 NA
ATOM      7  C   UNL     1       6.904   4.828  15.605  0.00  0.00    +0.000 A 
ATOM      8  O   UNL     1       6.052   3.976  14.935  0.00  0.00    +0.000 OA
BRANCH   4  10
ATOM      9  O   UNL     1       4.648   3.518  12.157  0.00  0.00    +0.000 OA
ATOM     10  C   UNL     1       5.780   3.340  12.587  0.00  0.00    +0.000 C 
BRANCH  10  11
ATOM     11  O   UNL     1       6.589   2.355  12.119  0.00  0.00    +0.000 OA
ATOM     12  H   UNL     1       7.514   2.474  12.414  0.00  0.00    +0.000 HD
ENDBRANCH  10  11
ENDBRANCH   4  10
ENDBRANCH   2   7
ENDBRANCH   1   2
BRANCH   1  13
ATOM     13  C   UNL     1       4.723   5.293  18.378  0.00  0.00    +0.000 C 
BRANCH  13  14
ATOM     14  C   UNL     1       3.374   5.897  17.979  0.00  0.00    +0.000 C 
BRANCH  14  15
ATOM     15  C   UNL     1       2.349   4.819  17.612  0.00  0.00    +0.000 C 
BRANCH  15  16
ATOM     16  C   UNL     1       3.024   3.592  17.013  0.00  0.00    +0.000 C 
BRANCH  16  17
ATOM     17  C   UNL     1       2.454   2.288  17.584  0.00  0.00    +0.000 C 
BRANCH  17  18
ATOM     18  C   UNL     1       2.294   2.402  19.081  0.00  0.00    +0.000 A 
ATOM     19  C   UNL     1       1.046   2.711  19.635  0.00  0.00    +0.000 A 
ATOM     20  C   UNL     1       0.921   2.956  21.003  0.00  0.00    +0.000 A 
ATOM     21  C   UNL     1       2.040   2.876  21.831  0.00  0.00    +0.000 A 
ATOM     22  C   UNL     1       3.278   2.528  21.294  0.00  0.00    +0.000 A 
ATOM     23  C   UNL     1       3.407   2.292  19.925  0.00  0.00    +0.000 A 
ENDBRANCH  17  18
ENDBRANCH  16  17
ENDBRANCH  15  16
ENDBRANCH  14  15
ENDBRANCH  13  14
ENDBRANCH   1  13
TORSDOF 10
ENDMDL
MODEL 6
REMARK VINA RESULT:      -7.0      1.302      1.917
REMARK  Name = 
REMARK  10 active torsions:
REMARK  status: ('A' for Active; 'I' for Inactive)
REMARK    1  A    between atoms: C_2  and  O_3
REMARK    2  A    between atoms: C_2  and  C_4
REMARK    3  A    between atoms: C_7  and  C_8
REMARK    4  A    between atoms: C_8  and  C_10
REMARK    5  A    between atoms: C_10  and  C_11
REMARK    6  A    between atoms: C_11  and  C_12
REMARK    7  A    between atoms: C_12  and  C_13
REMARK    8  A    between atoms: C_13  and  C_14
REMARK    9  A    between atoms: C_14  and  C_15
REMARK   10  A    between atoms: C_15  and  C_16
REMARK                            x       y       z     vdW  Elec       q    Type
REMARK                         _______ _______ _______ _____ _____    ______ ____
ROOT
ATOM      1  C   UNL     1       4.173   5.106  17.134  0.00  0.00    +0.000 C 
ENDROOT
BRANCH   1   2
ATOM      2  C   UNL     1       5.656   4.786  17.013  0.00  0.00    +0.000 C 
ATOM      3  O   UNL     1       6.349   4.586  18.005  0.00  0.00    +0.000 OA
BRANCH   2   7
ATOM      4  C   UNL     1       6.344   4.083  13.596  0.00  0.00    +0.000 A 
ATOM      5  C   UNL     1       7.353   4.961  13.912  0.00  0.00    +0.000 A 
ATOM      6  N   UNL     1       7.236   5.378  15.211  0.00  0.00    +0.000 NA
ATOM      7  C   UNL     1       6.171   4.736  15.660  0.00  0.00    +0.000 A 
ATOM      8  O   UNL     1       5.558   3.939  14.716  0.00  0.00    +0.000 OA
BRANCH   4  10
ATOM      9  O   UNL     1       6.876   2.742  11.720  0.00  0.00    +0.000 OA
ATOM     10  C   UNL     1       6.059   3.361  12.391  0.00  0.00    +0.000 C 
BRANCH  10  11
ATOM     11  O   UNL     1       4.747   3.434  12.052  0.00  0.00    +0.000 OA
ATOM     12  H   UNL     1       4.356   4.297  12.295  0.00  0.00    +0.000 HD
ENDBRANCH  10  11
ENDBRANCH   4  10
ENDBRANCH   2   7
ENDBRANCH   1   2
BRANCH   1  13
ATOM     13  C   UNL     1       3.895   6.393  17.915  0.00  0.00    +0.000 C 
BRANCH  13  14
ATOM     14  C   UNL     1       2.419   6.543  18.293  0.00  0.00    +0.000 C 
BRANCH  14  15
ATOM     15  C   UNL     1       2.241   7.004  19.743  0.00  0.00    +0.000 C 
BRANCH  15  16
ATOM     16  C   UNL     1       2.184   5.819  20.699  0.00  0.00    +0.000 C 
BRANCH  16  17
ATOM     17  C   UNL     1       1.215   4.735  20.213  0.00  0.00    +0.000 C 
BRANCH  17  18
ATOM     18  C   UNL     1       1.982   3.577  19.623  0.00  0.00    +0.000 A 
ATOM     19  C   UNL     1       3.221   3.206  20.160  0.00  0.00    +0.000 A 
ATOM     20  C   UNL     1       3.998   2.230  19.535  0.00  0.00    +0.000 A 
ATOM     21  C   UNL     1       3.536   1.605  18.377  0.00  0.00    +0.000 A 
ATOM     22  C   UNL     1       2.285   1.940  17.860  0.00  0.00    +0.000 A 
ATOM     23  C   UNL     1       1.511   2.922  18.479  0.00  0.00    +0.000 A 
ENDBRANCH  17  18
ENDBRANCH  16  17
ENDBRANCH  15  16
ENDBRANCH  14  15
ENDBRANCH  13  14
ENDBRANCH   1  13
TORSDOF 10
ENDMDL
MODEL 7
REMARK VINA RESULT:      -7.0      1.220      2.882
REMARK  Name = 
REMARK  10 active torsions:
REMARK  status: ('A' for Active; 'I' for Inactive)
REMARK    1  A    between atoms: C_2  and  O_3
REMARK    2  A    between atoms: C_2  and  C_4
REMARK    3  A    between atoms: C_7  and  C_8
REMARK    4  A    between atoms: C_8  and  C_10
REMARK    5  A    between atoms: C_10  and  C_11
REMARK    6  A    between atoms: C_11  and  C_12
REMARK    7  A    between atoms: C_12  and  C_13
REMARK    8  A    between atoms: C_13  and  C_14
REMARK    9  A    between atoms: C_14  and  C_15
REMARK   10  A    between atoms: C_15  and  C_16
REMARK                            x       y       z     vdW  Elec       q    Type
REMARK                         _______ _______ _______ _____ _____    ______ ____
ROOT
ATOM      1  C   UNL     1       5.188   3.909  17.826  0.00  0.00    +0.000 C 
ENDROOT
BRANCH   1   2
ATOM      2  C   UNL     1       6.557   4.364  17.344  0.00  0.00    +0.000 C 
ATOM      3  O   UNL     1       7.470   4.589  18.133  0.00  0.00    +0.000 OA
BRANCH   2   7
ATOM      4  C   UNL     1       6.391   4.059  13.805  0.00  0.00    +0.000 A 
ATOM      5  C   UNL     1       7.328   5.053  13.960  0.00  0.00    +0.000 A 
ATOM      6  N   UNL     1       7.511   5.339  15.287  0.00  0.00    +0.000 NA
ATOM      7  C   UNL     1       6.695   4.506  15.909  0.00  0.00    +0.000 A 
ATOM      8  O   UNL     1       5.958   3.705  15.062  0.00  0.00    +0.000 OA
BRANCH   4  10
ATOM      9  O   UNL     1       4.748   3.498  12.198  0.00  0.00    +0.000 OA
ATOM     10  C   UNL     1       5.889   3.404  12.634  0.00  0.00    +0.000 C 
BRANCH  10  11
ATOM     11  O   UNL     1       6.836   2.642  12.031  0.00  0.00    +0.000 OA
ATOM     12  H   UNL     1       7.141   3.037  11.190  0.00  0.00    +0.000 HD
ENDBRANCH  10  11
ENDBRANCH   4  10
ENDBRANCH   2   7
ENDBRANCH   1   2
BRANCH   1  13
ATOM     13  C   UNL     1       5.176   3.485  19.297  0.00  0.00    +0.000 C 
BRANCH  13  14
ATOM     14  C   UNL     1       4.029   2.524  19.622  0.00  0.00    +0.000 C 
BRANCH  14  15
ATOM     15  C   UNL     1       3.573   1.737  18.391  0.00  0.00    +0.000 C 
BRANCH  15  16
ATOM     16  C   UNL     1       2.307   2.331  17.789  0.00  0.00    +0.000 C 
BRANCH  16  17
ATOM     17  C   UNL     1       1.349   2.853  18.867  0.00  0.00    +0.000 C 
BRANCH  17  18
ATOM     18  C   UNL     1       1.584   4.324  19.104  0.00  0.00    +0.000 A 
ATOM     19  C   UNL     1       2.031   5.145  18.061  0.00  0.00    +0.000 A 
ATOM     20  C   UNL     1       2.384   6.472  18.307  0.00  0.00    +0.000 A 
ATOM     21  C   UNL     1       2.276   6.996  19.595  0.00  0.00    +0.000 A 
ATOM     22  C   UNL     1       1.792   6.198  20.631  0.00  0.00    +0.000 A 
ATOM     23  C   UNL     1       1.447   4.867  20.388  0.00  0.00    +0.000 A 
ENDBRANCH  17  18
ENDBRANCH  16  17
ENDBRANCH  15  16
ENDBRANCH  14  15
ENDBRANCH  13  14
ENDBRANCH   1  13
TORSDOF 10
ENDMDL
MODEL 8
REMARK VINA RESULT:      -6.9      1.600      1.896
REMARK  Name = 
REMARK  10 active torsions:
REMARK  status: ('A' for Active; 'I' for Inactive)
REMARK    1  A    between atoms: C_2  and  O_3
REMARK    2  A    between atoms: C_2  and  C_4
REMARK    3  A    between atoms: C_7  and  C_8
REMARK    4  A    between atoms: C_8  and  C_10
REMARK    5  A    between atoms: C_10  and  C_11
REMARK    6  A    between atoms: C_11  and  C_12
REMARK    7  A    between atoms: C_12  and  C_13
REMARK    8  A    between atoms: C_13  and  C_14
REMARK    9  A    between atoms: C_14  and  C_15
REMARK   10  A    between atoms: C_15  and  C_16
REMARK                            x       y       z     vdW  Elec       q    Type
REMARK                         _______ _______ _______ _____ _____    ______ ____
ROOT
ATOM      1  C   UNL     1       6.634   6.237  17.994  0.00  0.00    +0.000 C 
ENDROOT
BRANCH   1   2
ATOM      2  C   UNL     1       7.317   4.975  17.487  0.00  0.00    +0.000 C 
ATOM      3  O   UNL     1       8.044   4.306  18.214  0.00  0.00    +0.000 OA
BRANCH   2   7
ATOM      4  C   UNL     1       7.195   4.727  13.942  0.00  0.00    +0.000 A 
ATOM      5  C   UNL     1       6.197   3.860  14.320  0.00  0.00    +0.000 A 
ATOM      6  N   UNL     1       6.109   3.796  15.686  0.00  0.00    +0.000 NA
ATOM      7  C   UNL     1       7.042   4.633  16.106  0.00  0.00    +0.000 A 
ATOM      8  O   UNL     1       7.764   5.225  15.092  0.00  0.00    +0.000 OA
BRANCH   4  10
ATOM      9  O   UNL     1       8.310   6.148  12.414  0.00  0.00    +0.000 OA
ATOM     10  C   UNL     1       7.644   5.148  12.648  0.00  0.00    +0.000 C 
BRANCH  10  11
ATOM     11  O   UNL     1       7.243   4.298  11.669  0.00  0.00    +0.000 OA
ATOM     12  H   UNL     1       7.697   4.479  10.821  0.00  0.00    +0.000 HD
ENDBRANCH  10  11
ENDBRANCH   4  10
ENDBRANCH   2   7
ENDBRANCH   1   2
BRANCH   1  13
ATOM     13  C   UNL     1       5.122   6.076  18.169  0.00  0.00    +0.000 C 
BRANCH  13  14
ATOM     14  C   UNL     1       4.322   6.968  17.215  0.00  0.00    +0.000 C 
BRANCH  14  15
ATOM     15  C   UNL     1       3.182   7.697  17.930  0.00  0.00    +0.000 C 
BRANCH  15  16
ATOM     16  C   UNL     1       2.288   6.723  18.686  0.00  0.00    +0.000 C 
BRANCH  16  17
ATOM     17  C   UNL     1       1.609   5.719  17.746  0.00  0.00    +0.000 C 
BRANCH  17  18
ATOM     18  C   UNL     1       1.901   4.307  18.194  0.00  0.00    +0.000 A 
ATOM     19  C   UNL     1       1.606   3.907  19.503  0.00  0.00    +0.000 A 
ATOM     20  C   UNL     1       2.001   2.651  19.964  0.00  0.00    +0.000 A 
ATOM     21  C   UNL     1       2.679   1.777  19.114  0.00  0.00    +0.000 A 
ATOM     22  C   UNL     1       2.940   2.151  17.798  0.00  0.00    +0.000 A 
ATOM     23  C   UNL     1       2.554   3.411  17.337  0.00  0.00    +0.000 A 
ENDBRANCH  17  18
ENDBRANCH  16  17
ENDBRANCH  15  16
ENDBRANCH  14  15
ENDBRANCH  13  14
ENDBRANCH   1  13
TORSDOF 10
ENDMDL
MODEL 9
REMARK VINA RESULT:      -6.9      1.023      1.408
REMARK  Name = 
REMARK  10 active torsions:
REMARK  status: ('A' for Active; 'I' for Inactive)
REMARK    1  A    between atoms: C_2  and  O_3
REMARK    2  A    between atoms: C_2  and  C_4
REMARK    3  A    between atoms: C_7  and  C_8
REMARK    4  A    between atoms: C_8  and  C_10
REMARK    5  A    between atoms: C_10  and  C_11
REMARK    6  A    between atoms: C_11  and  C_12
REMARK    7  A    between atoms: C_12  and  C_13
REMARK    8  A    between atoms: C_13  and  C_14
REMARK    9  A    between atoms: C_14  and  C_15
REMARK   10  A    between atoms: C_15  and  C_16
REMARK                            x       y       z     vdW  Elec       q    Type
REMARK                         _______ _______ _______ _____ _____    ______ ____
ROOT
ATOM      1  C   UNL     1       7.056   6.434  17.027  0.00  0.00    +0.000 C 
ENDROOT
BRANCH   1   2
ATOM      2  C   UNL     1       7.229   5.014  16.507  0.00  0.00    +0.000 C 
ATOM      3  O   UNL     1       7.431   4.075  17.270  0.00  0.00    +0.000 OA
BRANCH   2   7
ATOM      4  C   UNL     1       6.492   4.025  13.172  0.00  0.00    +0.000 A 
ATOM      5  C   UNL     1       7.453   4.988  12.975  0.00  0.00    +0.000 A 
ATOM      6  N   UNL     1       7.851   5.521  14.173  0.00  0.00    +0.000 NA
ATOM      7  C   UNL     1       7.135   4.864  15.069  0.00  0.00    +0.000 A 
ATOM      8  O   UNL     1       6.263   3.944  14.527  0.00  0.00    +0.000 OA
BRANCH   4  10
ATOM      9  O   UNL     1       4.660   3.349  11.837  0.00  0.00    +0.000 OA
ATOM     10  C   UNL     1       5.799   3.175  12.249  0.00  0.00    +0.000 C 
BRANCH  10  11
ATOM     11  O   UNL     1       6.558   2.118  11.863  0.00  0.00    +0.000 OA
ATOM     12  H   UNL     1       7.405   2.405  11.464  0.00  0.00    +0.000 HD
ENDBRANCH  10  11
ENDBRANCH   4  10
ENDBRANCH   2   7
ENDBRANCH   1   2
BRANCH   1  13
ATOM     13  C   UNL     1       5.783   6.621  17.856  0.00  0.00    +0.000 C 
BRANCH  13  14
ATOM     14  C   UNL     1       4.515   6.596  16.998  0.00  0.00    +0.000 C 
BRANCH  14  15
ATOM     15  C   UNL     1       3.427   7.519  17.554  0.00  0.00    +0.000 C 
BRANCH  15  16
ATOM     16  C   UNL     1       2.374   6.734  18.326  0.00  0.00    +0.000 C 
BRANCH  16  17
ATOM     17  C   UNL     1       2.375   5.248  17.949  0.00  0.00    +0.000 C 
BRANCH  17  18
ATOM     18  C   UNL     1       2.447   4.396  19.192  0.00  0.00    +0.000 A 
ATOM     19  C   UNL     1       3.485   3.470  19.354  0.00  0.00    +0.000 A 
ATOM     20  C   UNL     1       3.479   2.583  20.431  0.00  0.00    +0.000 A 
ATOM     21  C   UNL     1       2.445   2.627  21.366  0.00  0.00    +0.000 A 
ATOM     22  C   UNL     1       1.430   3.572  21.235  0.00  0.00    +0.000 A 
ATOM     23  C   UNL     1       1.428   4.454  20.153  0.00  0.00    +0.000 A 
ENDBRANCH  17  18
ENDBRANCH  16  17
ENDBRANCH  15  16
ENDBRANCH  14  15
ENDBRANCH  13  14
ENDBRANCH   1  13
TORSDOF 10
ENDMDL
