MODEL 1
REMARK VINA RESULT:      -8.0      0.000      0.000
REMARK  Name = 
REMARK  5 active torsions:
REMARK  status: ('A' for Active; 'I' for Inactive)
REMARK    1  A    between atoms: C_2  and  C_20
REMARK    2  A    between atoms: N_3  and  C_4
REMARK    3  A    between atoms: C_4  and  C_5
REMARK    4  A    between atoms: N_8  and  C_9
REMARK    5  A    between atoms: C_9  and  C_10
REMARK                            x       y       z     vdW  Elec       q    Type
REMARK                         _______ _______ _______ _____ _____    ______ ____
ROOT
ATOM      1  C   UNL     1       6.197   4.592  17.473  0.00  0.00    +0.000 C 
ATOM      2  C   UNL     1       5.513   5.529  18.465  0.00  0.00    +0.000 C 
ATOM      3  C   UNL     1       5.734   6.897  17.841  0.00  0.00    +0.000 C 
ATOM      4  N   UNL     1       7.126   6.862  17.351  0.00  0.00    +0.000 NA
ATOM      5  C   UNL     1       7.314   5.470  16.875  0.00  0.00    +0.000 C 
ENDROOT
BRANCH   1   6
ATOM      6  C   UNL     1       5.174   4.085  16.441  0.00  0.00    +0.000 C 
BRANCH   6   9
ATOM      7  O   UNL     1       3.835   1.846  17.718  0.00  0.00    +0.000 OA
ATOM      8  C   UNL     1       3.252   2.910  17.556  0.00  0.00    +0.000 C 
ATOM      9  N   UNL     1       3.831   4.027  16.973  0.00  0.00    +0.000 N 
ATOM     10  H   UNL     1       3.266   4.856  16.880  0.00  0.00    +0.000 HD
BRANCH   8  11
ATOM     11  C   UNL     1       1.785   3.171  17.924  0.00  0.00    +0.000 C 
ATOM     12  C   UNL     1       1.229   2.266  19.037  0.00  0.00    +0.000 C 
ATOM     13  C   UNL     1       1.404   2.789  20.465  0.00  0.00    +0.000 C 
ATOM     14  C   UNL     1       1.055   4.265  20.598  0.00  0.00    +0.000 C 
ATOM     15  C   UNL     1       1.845   5.094  19.602  0.00  0.00    +0.000 C 
ATOM     16  C   UNL     1       1.514   4.663  18.179  0.00  0.00    +0.000 C 
ENDBRANCH   8  11
ENDBRANCH   6   9
ENDBRANCH   1   6
BRANCH   4  17
ATOM     17  C   UNL     1       8.037   7.223  18.459  0.00  0.00    +0.000 C 
BRANCH  17  18
ATOM     18  C   UNL     1       8.466   8.651  18.446  0.00  0.00    +0.000 A 
ATOM     19  C   UNL     1       8.185   9.647  17.533  0.00  0.00    +0.000 A 
ATOM     20  C   UNL     1       8.697  10.868  18.045  0.00  0.00    +0.000 A 
ATOM     21  C   UNL     1       8.641  12.206  17.613  0.00  0.00    +0.000 A 
ATOM     22  C   UNL     1       9.186  13.208  18.423  0.00  0.00    +0.000 A 
ATOM     23  C   UNL     1       9.799  12.887  19.633  0.00  0.00    +0.000 A 
ATOM     24  C   UNL     1       9.902  11.558  20.063  0.00  0.00    +0.000 A 
ATOM     25  C   UNL     1       9.335  10.570  19.249  0.00  0.00    +0.000 A 
ATOM     26  N   UNL     1       9.258   9.206  19.421  0.00  0.00    +0.000 N 
ATOM     27  H   UNL     1       9.633   8.690  20.205  0.00  0.00    +0.000 HD
ENDBRANCH  17  18
ENDBRANCH   4  17
TORSDOF 5
ENDMDL
MODEL 2
REMARK VINA RESULT:      -7.9      1.105      1.326
REMARK  Name = 
REMARK  5 active torsions:
REMARK  status: ('A' for Active; 'I' for Inactive)
REMARK    1  A    between atoms: C_2  and  C_20
REMARK    2  A    between atoms: N_3  and  C_4
REMARK    3  A    between atoms: C_4  and  C_5
REMARK    4  A    between atoms: N_8  and  C_9
REMARK    5  A    between atoms: C_9  and  C_10
REMARK                            x       y       z     vdW  Elec       q    Type
REMARK                         _______ _______ _______ _____ _____    ______ ____
ROOT
ATOM      1  C   UNL     1       5.885   4.485  16.706  0.00  0.00    +0.000 C 
ATOM      2  C   UNL     1       5.926   4.414  18.230  0.00  0.00    +0.000 C 
ATOM      3  C   UNL     1       5.628   5.847  18.641  0.00  0.00    +0.000 C 
ATOM      4  N   UNL     1       6.401   6.674  17.694  0.00  0.00    +0.000 NA
ATOM      5  C   UNL     1       6.325   5.933  16.411  0.00  0.00    +0.000 C 
ENDROOT
BRANCH   1   6
ATOM      6  C   UNL     1       4.471   4.143  16.204  0.00  0.00    +0.000 C 
BRANCH   6   9
ATOM      7  O   UNL     1       1.806   4.443  17.318  0.00  0.00    +0.000 OA
ATOM      8  C   UNL     1       2.495   3.472  17.604  0.00  0.00    +0.000 C 
ATOM      9  N   UNL     1       3.766   3.251  17.098  0.00  0.00    +0.000 N 
ATOM     10  H   UNL     1       4.256   2.424  17.399  0.00  0.00    +0.000 HD
BRANCH   8  11
ATOM     11  C   UNL     1       2.091   2.372  18.596  0.00  0.00    +0.000 C 
ATOM     12  C   UNL     1       3.210   1.921  19.550  0.00  0.00    +0.000 C 
ATOM     13  C   UNL     1       3.314   2.699  20.864  0.00  0.00    +0.000 C 
ATOM     14  C   UNL     1       1.960   2.928  21.520  0.00  0.00    +0.000 C 
ATOM     15  C   UNL     1       1.002   3.598  20.553  0.00  0.00    +0.000 C 
ATOM     16  C   UNL     1       0.784   2.714  19.331  0.00  0.00    +0.000 C 
ENDBRANCH   8  11
ENDBRANCH   6   9
ENDBRANCH   1   6
BRANCH   4  17
ATOM     17  C   UNL     1       7.783   6.821  18.197  0.00  0.00    +0.000 C 
BRANCH  17  18
ATOM     18  C   UNL     1       8.245   8.235  18.287  0.00  0.00    +0.000 A 
ATOM     19  C   UNL     1       7.993   9.300  17.446  0.00  0.00    +0.000 A 
ATOM     20  C   UNL     1       8.531  10.469  18.046  0.00  0.00    +0.000 A 
ATOM     21  C   UNL     1       8.509  11.836  17.709  0.00  0.00    +0.000 A 
ATOM     22  C   UNL     1       9.073  12.764  18.590  0.00  0.00    +0.000 A 
ATOM     23  C   UNL     1       9.671  12.344  19.776  0.00  0.00    +0.000 A 
ATOM     24  C   UNL     1       9.740  10.986  20.112  0.00  0.00    +0.000 A 
ATOM     25  C   UNL     1       9.155  10.072  19.228  0.00  0.00    +0.000 A 
ATOM     26  N   UNL     1       9.045   8.701  19.302  0.00  0.00    +0.000 N 
ATOM     27  H   UNL     1       9.403   8.122  20.050  0.00  0.00    +0.000 HD
ENDBRANCH  17  18
ENDBRANCH   4  17
TORSDOF 5
ENDMDL
MODEL 3
REMARK VINA RESULT:      -7.6      4.816      7.350
REMARK  Name = 
REMARK  5 active torsions:
REMARK  status: ('A' for Active; 'I' for Inactive)
REMARK    1  A    between atoms: C_2  and  C_20
REMARK    2  A    between atoms: N_3  and  C_4
REMARK    3  A    between atoms: C_4  and  C_5
REMARK    4  A    between atoms: N_8  and  C_9
REMARK    5  A    between atoms: C_9  and  C_10
REMARK                            x       y       z     vdW  Elec       q    Type
REMARK                         _______ _______ _______ _____ _____    ______ ____
ROOT
ATOM      1  C   UNL     1       1.866   5.494  20.048  0.00  0.00    +0.000 C 
ATOM      2  C   UNL     1       0.959   4.277  20.207  0.00  0.00    +0.000 C 
ATOM      3  C   UNL     1       1.724   3.417  21.200  0.00  0.00    +0.000 C 
ATOM      4  N   UNL     1       3.133   3.519  20.773  0.00  0.00    +0.000 NA
ATOM      5  C   UNL     1       3.273   4.917  20.299  0.00  0.00    +0.000 C 
ENDROOT
BRANCH   1   6
ATOM      6  C   UNL     1       1.449   6.592  21.042  0.00  0.00    +0.000 C 
BRANCH   6   9
ATOM      7  O   UNL     1      -0.327   8.827  21.576  0.00  0.00    +0.000 OA
ATOM      8  C   UNL     1       0.565   8.926  20.744  0.00  0.00    +0.000 C 
ATOM      9  N   UNL     1       1.462   7.911  20.449  0.00  0.00    +0.000 N 
ATOM     10  H   UNL     1       2.159   8.088  19.743  0.00  0.00    +0.000 HD
BRANCH   8  11
ATOM     11  C   UNL     1       0.811  10.159  19.863  0.00  0.00    +0.000 C 
ATOM     12  C   UNL     1       0.445   9.976  18.380  0.00  0.00    +0.000 C 
ATOM     13  C   UNL     1      -0.997  10.325  18.007  0.00  0.00    +0.000 C 
ATOM     14  C   UNL     1      -1.468  11.631  18.631  0.00  0.00    +0.000 C 
ATOM     15  C   UNL     1      -1.275  11.605  20.136  0.00  0.00    +0.000 C 
ATOM     16  C   UNL     1       0.200  11.430  20.474  0.00  0.00    +0.000 C 
ENDBRANCH   8  11
ENDBRANCH   6   9
ENDBRANCH   1   6
BRANCH   4  17
ATOM     17  C   UNL     1       3.390   2.520  19.714  0.00  0.00    +0.000 C 
BRANCH  17  18
ATOM     18  C   UNL     1       4.183   3.047  18.567  0.00  0.00    +0.000 A 
ATOM     19  C   UNL     1       3.801   3.270  17.259  0.00  0.00    +0.000 A 
ATOM     20  C   UNL     1       4.872   3.921  16.594  0.00  0.00    +0.000 A 
ATOM     21  C   UNL     1       5.034   4.464  15.306  0.00  0.00    +0.000 A 
ATOM     22  C   UNL     1       6.220   5.137  14.994  0.00  0.00    +0.000 A 
ATOM     23  C   UNL     1       7.240   5.253  15.936  0.00  0.00    +0.000 A 
ATOM     24  C   UNL     1       7.116   4.685  17.210  0.00  0.00    +0.000 A 
ATOM     25  C   UNL     1       5.917   4.031  17.512  0.00  0.00    +0.000 A 
ATOM     26  N   UNL     1       5.504   3.411  18.670  0.00  0.00    +0.000 N 
ATOM     27  H   UNL     1       6.047   3.327  19.519  0.00  0.00    +0.000 HD
ENDBRANCH  17  18
ENDBRANCH   4  17
TORSDOF 5
ENDMDL
MODEL 4
REMARK VINA RESULT:      -7.5      1.481      1.956
REMARK  Name = 
REMARK  5 active torsions:
REMARK  status: ('A' for Active; 'I' for Inactive)
REMARK    1  A    between atoms: C_2  and  C_20
REMARK    2  A    between atoms: N_3  and  C_4
REMARK    3  A    between atoms: C_4  and  C_5
REMARK    4  A    between atoms: N_8  and  C_9
REMARK    5  A    between atoms: C_9  and  C_10
REMARK                            x       y       z     vdW  Elec       q    Type
REMARK                         _______ _______ _______ _____ _____    ______ ____
ROOT
ATOM      1  C   UNL     1       6.771   5.981  18.530  0.00  0.00    +0.000 C 
ATOM      2  C   UNL     1       5.866   6.735  17.560  0.00  0.00    +0.000 C 
ATOM      3  C   UNL     1       6.859   7.365  16.596  0.00  0.00    +0.000 C 
ATOM      4  N   UNL     1       7.960   7.842  17.455  0.00  0.00    +0.000 NA
ATOM      5  C   UNL     1       8.067   6.815  18.519  0.00  0.00    +0.000 C 
ENDROOT
BRANCH   1   6
ATOM      6  C   UNL     1       6.954   4.529  18.055  0.00  0.00    +0.000 C 
BRANCH   6   9
ATOM      7  O   UNL     1       4.939   3.282  19.735  0.00  0.00    +0.000 OA
ATOM      8  C   UNL     1       4.799   3.321  18.519  0.00  0.00    +0.000 C 
ATOM      9  N   UNL     1       5.707   3.915  17.656  0.00  0.00    +0.000 N 
ATOM     10  H   UNL     1       5.504   3.890  16.670  0.00  0.00    +0.000 HD
BRANCH   8  11
ATOM     11  C   UNL     1       3.632   2.687  17.750  0.00  0.00    +0.000 C 
ATOM     12  C   UNL     1       2.913   1.548  18.494  0.00  0.00    +0.000 C 
ATOM     13  C   UNL     1       1.746   1.973  19.387  0.00  0.00    +0.000 C 
ATOM     14  C   UNL     1       0.829   2.985  18.714  0.00  0.00    +0.000 C 
ATOM     15  C   UNL     1       1.620   4.184  18.226  0.00  0.00    +0.000 C 
ATOM     16  C   UNL     1       2.662   3.746  17.204  0.00  0.00    +0.000 C 
ENDBRANCH   8  11
ENDBRANCH   6   9
ENDBRANCH   1   6
BRANCH   4  17
ATOM     17  C   UNL     1       7.619   9.183  17.976  0.00  0.00    +0.000 C 
BRANCH  17  18
ATOM     18  C   UNL     1       8.806  10.047  18.240  0.00  0.00    +0.000 A 
ATOM     19  C   UNL     1       9.600  10.749  17.356  0.00  0.00    +0.000 A 
ATOM     20  C   UNL     1      10.505  11.538  18.112  0.00  0.00    +0.000 A 
ATOM     21  C   UNL     1      11.475  12.501  17.775  0.00  0.00    +0.000 A 
ATOM     22  C   UNL     1      12.149  13.177  18.798  0.00  0.00    +0.000 A 
ATOM     23  C   UNL     1      11.882  12.888  20.135  0.00  0.00    +0.000 A 
ATOM     24  C   UNL     1      10.951  11.905  20.492  0.00  0.00    +0.000 A 
ATOM     25  C   UNL     1      10.274  11.251  19.457  0.00  0.00    +0.000 A 
ATOM     26  N   UNL     1       9.301  10.277  19.501  0.00  0.00    +0.000 N 
ATOM     27  H   UNL     1       8.921   9.862  20.341  0.00  0.00    +0.000 HD
ENDBRANCH  17  18
ENDBRANCH   4  17
TORSDOF 5
ENDMDL
MODEL 5
REMARK VINA RESULT:      -7.5      1.557      2.217
REMARK  Name = 
REMARK  5 active torsions:
REMARK  status: ('A' for Active; 'I' for Inactive)
REMARK    1  A    between atoms: C_2  and  C_20
REMARK    2  A    between atoms: N_3  and  C_4
REMARK    3  A    between atoms: C_4  and  C_5
REMARK    4  A    between atoms: N_8  and  C_9
REMARK    5  A    between atoms: C_9  and  C_10
REMARK                            x       y       z     vdW  Elec       q    Type
REMARK                         _______ _______ _______ _____ _____    ______ ____
ROOT
ATOM      1  C   UNL     1       6.297   5.934  18.266  0.00  0.00    +0.000 C 
ATOM      2  C   UNL     1       5.999   6.576  16.914  0.00  0.00    +0.000 C 
ATOM      3  C   UNL     1       7.360   7.100  16.485  0.00  0.00    +0.000 C 
ATOM      4  N   UNL     1       7.944   7.671  17.715  0.00  0.00    +0.000 NA
ATOM      5  C   UNL     1       7.482   6.765  18.795  0.00  0.00    +0.000 C 
ENDROOT
BRANCH   1   6
ATOM      6  C   UNL     1       6.611   4.439  18.078  0.00  0.00    +0.000 C 
BRANCH   6   9
ATOM      7  O   UNL     1       4.099   3.699  16.822  0.00  0.00    +0.000 OA
ATOM      8  C   UNL     1       4.380   3.289  17.941  0.00  0.00    +0.000 C 
ATOM      9  N   UNL     1       5.566   3.584  18.595  0.00  0.00    +0.000 N 
ATOM     10  H   UNL     1       5.702   3.203  19.518  0.00  0.00    +0.000 HD
BRANCH   8  11
ATOM     11  C   UNL     1       3.459   2.429  18.816  0.00  0.00    +0.000 C 
ATOM     12  C   UNL     1       3.442   2.813  20.306  0.00  0.00    +0.000 C 
ATOM     13  C   UNL     1       2.403   3.862  20.707  0.00  0.00    +0.000 C 
ATOM     14  C   UNL     1       1.035   3.601  20.092  0.00  0.00    +0.000 C 
ATOM     15  C   UNL     1       1.142   3.474  18.583  0.00  0.00    +0.000 C 
ATOM     16  C   UNL     1       2.049   2.306  18.217  0.00  0.00    +0.000 C 
ENDBRANCH   8  11
ENDBRANCH   6   9
ENDBRANCH   1   6
BRANCH   4  17
ATOM     17  C   UNL     1       7.464   9.059  17.878  0.00  0.00    +0.000 C 
BRANCH  17  18
ATOM     18  C   UNL     1       8.531  10.025  18.264  0.00  0.00    +0.000 A 
ATOM     19  C   UNL     1       9.405   9.993  19.333  0.00  0.00    +0.000 A 
ATOM     20  C   UNL     1      10.329  11.059  19.176  0.00  0.00    +0.000 A 
ATOM     21  C   UNL     1      11.473  11.470  19.886  0.00  0.00    +0.000 A 
ATOM     22  C   UNL     1      12.231  12.538  19.397  0.00  0.00    +0.000 A 
ATOM     23  C   UNL     1      11.850  13.206  18.235  0.00  0.00    +0.000 A 
ATOM     24  C   UNL     1      10.693  12.841  17.536  0.00  0.00    +0.000 A 
ATOM     25  C   UNL     1       9.955  11.758  18.029  0.00  0.00    +0.000 A 
ATOM     26  N   UNL     1       8.810  11.164  17.548  0.00  0.00    +0.000 N 
ATOM     27  H   UNL     1       8.300  11.450  16.723  0.00  0.00    +0.000 HD
ENDBRANCH  17  18
ENDBRANCH   4  17
TORSDOF 5
ENDMDL
MODEL 6
REMARK VINA RESULT:      -7.4      3.981      5.673
REMARK  Name = 
REMARK  5 active torsions:
REMARK  status: ('A' for Active; 'I' for Inactive)
REMARK    1  A    between atoms: C_2  and  C_20
REMARK    2  A    between atoms: N_3  and  C_4
REMARK    3  A    between atoms: C_4  and  C_5
REMARK    4  A    between atoms: N_8  and  C_9
REMARK    5  A    between atoms: C_9  and  C_10
REMARK                            x       y       z     vdW  Elec       q    Type
REMARK                         _______ _______ _______ _____ _____    ______ ____
ROOT
ATOM      1  C   UNL     1       4.547   5.077  16.321  0.00  0.00    +0.000 C 
ATOM      2  C   UNL     1       5.621   6.142  16.520  0.00  0.00    +0.000 C 
ATOM      3  C   UNL     1       5.337   6.645  17.926  0.00  0.00    +0.000 C 
ATOM      4  N   UNL     1       3.866   6.735  17.999  0.00  0.00    +0.000 NA
ATOM      5  C   UNL     1       3.387   5.580  17.202  0.00  0.00    +0.000 C 
ENDROOT
BRANCH   1   6
ATOM      6  C   UNL     1       5.094   3.697  16.728  0.00  0.00    +0.000 C 
BRANCH   6   9
ATOM      7  O   UNL     1       5.393   3.560  19.614  0.00  0.00    +0.000 OA
ATOM      8  C   UNL     1       4.464   2.990  19.056  0.00  0.00    +0.000 C 
ATOM      9  N   UNL     1       4.246   3.026  17.688  0.00  0.00    +0.000 N 
ATOM     10  H   UNL     1       3.456   2.518  17.323  0.00  0.00    +0.000 HD
BRANCH   8  11
ATOM     11  C   UNL     1       3.424   2.110  19.764  0.00  0.00    +0.000 C 
ATOM     12  C   UNL     1       3.115   2.518  21.215  0.00  0.00    +0.000 C 
ATOM     13  C   UNL     1       1.984   3.535  21.390  0.00  0.00    +0.000 C 
ATOM     14  C   UNL     1       0.766   3.214  20.536  0.00  0.00    +0.000 C 
ATOM     15  C   UNL     1       1.158   3.065  19.077  0.00  0.00    +0.000 C 
ATOM     16  C   UNL     1       2.156   1.926  18.914  0.00  0.00    +0.000 C 
ENDBRANCH   8  11
ENDBRANCH   6   9
ENDBRANCH   1   6
BRANCH   4  17
ATOM     17  C   UNL     1       3.434   8.037  17.450  0.00  0.00    +0.000 C 
BRANCH  17  18
ATOM     18  C   UNL     1       2.326   8.677  18.215  0.00  0.00    +0.000 A 
ATOM     19  C   UNL     1       1.850   8.395  19.480  0.00  0.00    +0.000 A 
ATOM     20  C   UNL     1       0.887   9.382  19.816  0.00  0.00    +0.000 A 
ATOM     21  C   UNL     1       0.142   9.661  20.977  0.00  0.00    +0.000 A 
ATOM     22  C   UNL     1      -0.674  10.798  21.006  0.00  0.00    +0.000 A 
ATOM     23  C   UNL     1      -0.768  11.633  19.895  0.00  0.00    +0.000 A 
ATOM     24  C   UNL     1      -0.067  11.351  18.716  0.00  0.00    +0.000 A 
ATOM     25  C   UNL     1       0.758  10.221  18.709  0.00  0.00    +0.000 A 
ATOM     26  N   UNL     1       1.574   9.716  17.721  0.00  0.00    +0.000 N 
ATOM     27  H   UNL     1       1.693  10.110  16.798  0.00  0.00    +0.000 HD
ENDBRANCH  17  18
ENDBRANCH   4  17
TORSDOF 5
ENDMDL
MODEL 7
REMARK VINA RESULT:      -7.4      2.444      9.109
REMARK  Name = 
REMARK  5 active torsions:
REMARK  status: ('A' for Active; 'I' for Inactive)
REMARK    1  A    between atoms: C_2  and  C_20
REMARK    2  A    between atoms: N_3  and  C_4
REMARK    3  A    between atoms: C_4  and  C_5
REMARK    4  A    between atoms: N_8  and  C_9
REMARK    5  A    between atoms: C_9  and  C_10
REMARK                            x       y       z     vdW  Elec       q    Type
REMARK                         _______ _______ _______ _____ _____    ______ ____
ROOT
ATOM      1  C   UNL     1       6.788   6.803  17.685  0.00  0.00    +0.000 C 
ATOM      2  C   UNL     1       7.696   5.819  16.953  0.00  0.00    +0.000 C 
ATOM      3  C   UNL     1       6.913   5.519  15.686  0.00  0.00    +0.000 C 
ATOM      4  N   UNL     1       5.513   5.387  16.135  0.00  0.00    +0.000 NA
ATOM      5  C   UNL     1       5.378   6.393  17.216  0.00  0.00    +0.000 C 
ENDROOT
BRANCH   1   6
ATOM      6  C   UNL     1       7.177   8.247  17.320  0.00  0.00    +0.000 C 
BRANCH   6   9
ATOM      7  O   UNL     1       8.042  11.003  17.620  0.00  0.00    +0.000 OA
ATOM      8  C   UNL     1       8.586  10.107  18.253  0.00  0.00    +0.000 C 
ATOM      9  N   UNL     1       8.216   8.774  18.177  0.00  0.00    +0.000 N 
ATOM     10  H   UNL     1       8.730   8.110  18.734  0.00  0.00    +0.000 HD
BRANCH   8  11
ATOM     11  C   UNL     1       9.786  10.300  19.192  0.00  0.00    +0.000 C 
ATOM     12  C   UNL     1      10.902  11.200  18.634  0.00  0.00    +0.000 C 
ATOM     13  C   UNL     1      10.763  12.693  18.938  0.00  0.00    +0.000 C 
ATOM     14  C   UNL     1      10.376  12.966  20.384  0.00  0.00    +0.000 C 
ATOM     15  C   UNL     1       9.116  12.204  20.755  0.00  0.00    +0.000 C 
ATOM     16  C   UNL     1       9.346  10.705  20.608  0.00  0.00    +0.000 C 
ENDBRANCH   8  11
ENDBRANCH   6   9
ENDBRANCH   1   6
BRANCH   4  17
ATOM     17  C   UNL     1       5.284   4.002  16.601  0.00  0.00    +0.000 C 
BRANCH  17  18
ATOM     18  C   UNL     1       4.311   3.897  17.725  0.00  0.00    +0.000 A 
ATOM     19  C   UNL     1       2.973   4.233  17.767  0.00  0.00    +0.000 A 
ATOM     20  C   UNL     1       2.452   3.802  19.015  0.00  0.00    +0.000 A 
ATOM     21  C   UNL     1       1.164   3.791  19.583  0.00  0.00    +0.000 A 
ATOM     22  C   UNL     1       0.975   3.194  20.833  0.00  0.00    +0.000 A 
ATOM     23  C   UNL     1       2.049   2.636  21.523  0.00  0.00    +0.000 A 
ATOM     24  C   UNL     1       3.346   2.672  20.996  0.00  0.00    +0.000 A 
ATOM     25  C   UNL     1       3.515   3.257  19.736  0.00  0.00    +0.000 A 
ATOM     26  N   UNL     1       4.646   3.411  18.966  0.00  0.00    +0.000 N 
ATOM     27  H   UNL     1       5.577   3.112  19.222  0.00  0.00    +0.000 HD
ENDBRANCH  17  18
ENDBRANCH   4  17
TORSDOF 5
ENDMDL
MODEL 8
REMARK VINA RESULT:      -7.4      1.468      1.879
REMARK  Name = 
REMARK  5 active torsions:
REMARK  status: ('A' for Active; 'I' for Inactive)
REMARK    1  A    between atoms: C_2  and  C_20
REMARK    2  A    between atoms: N_3  and  C_4
REMARK    3  A    between atoms: C_4  and  C_5
REMARK    4  A    between atoms: N_8  and  C_9
REMARK    5  A    between atoms: C_9  and  C_10
REMARK                            x       y       z     vdW  Elec       q    Type
REMARK                         _______ _______ _______ _____ _____    ______ ____
ROOT
ATOM      1  C   UNL     1       6.491   5.919  18.538  0.00  0.00    +0.000 C 
ATOM      2  C   UNL     1       5.671   6.679  17.500  0.00  0.00    +0.000 C 
ATOM      3  C   UNL     1       6.738   7.242  16.576  0.00  0.00    +0.000 C 
ATOM      4  N   UNL     1       7.810   7.701  17.481  0.00  0.00    +0.000 NA
ATOM      5  C   UNL     1       7.818   6.701  18.577  0.00  0.00    +0.000 C 
ENDROOT
BRANCH   1   6
ATOM      6  C   UNL     1       6.640   4.448  18.113  0.00  0.00    +0.000 C 
BRANCH   6   9
ATOM      7  O   UNL     1       4.256   3.583  16.696  0.00  0.00    +0.000 OA
ATOM      8  C   UNL     1       4.438   3.261  17.863  0.00  0.00    +0.000 C 
ATOM      9  N   UNL     1       5.558   3.618  18.597  0.00  0.00    +0.000 N 
ATOM     10  H   UNL     1       5.613   3.308  19.554  0.00  0.00    +0.000 HD
BRANCH   8  11
ATOM     11  C   UNL     1       3.448   2.454  18.715  0.00  0.00    +0.000 C 
ATOM     12  C   UNL     1       3.478   2.778  20.218  0.00  0.00    +0.000 C 
ATOM     13  C   UNL     1       2.543   3.901  20.672  0.00  0.00    +0.000 C 
ATOM     14  C   UNL     1       1.153   3.793  20.063  0.00  0.00    +0.000 C 
ATOM     15  C   UNL     1       1.236   3.717  18.549  0.00  0.00    +0.000 C 
ATOM     16  C   UNL     1       2.028   2.486  18.127  0.00  0.00    +0.000 C 
ENDBRANCH   8  11
ENDBRANCH   6   9
ENDBRANCH   1   6
BRANCH   4  17
ATOM     17  C   UNL     1       7.496   9.068  17.947  0.00  0.00    +0.000 C 
BRANCH  17  18
ATOM     18  C   UNL     1       8.700   9.905  18.215  0.00  0.00    +0.000 A 
ATOM     19  C   UNL     1       9.516  10.585  17.333  0.00  0.00    +0.000 A 
ATOM     20  C   UNL     1      10.435  11.356  18.091  0.00  0.00    +0.000 A 
ATOM     21  C   UNL     1      11.429  12.295  17.756  0.00  0.00    +0.000 A 
ATOM     22  C   UNL     1      12.112  12.960  18.780  0.00  0.00    +0.000 A 
ATOM     23  C   UNL     1      11.831  12.683  20.116  0.00  0.00    +0.000 A 
ATOM     24  C   UNL     1      10.875  11.724  20.472  0.00  0.00    +0.000 A 
ATOM     25  C   UNL     1      10.189  11.081  19.436  0.00  0.00    +0.000 A 
ATOM     26  N   UNL     1       9.194  10.129  19.477  0.00  0.00    +0.000 N 
ATOM     27  H   UNL     1       8.799   9.727  20.317  0.00  0.00    +0.000 HD
ENDBRANCH  17  18
ENDBRANCH   4  17
TORSDOF 5
ENDMDL
MODEL 9
REMARK VINA RESULT:      -7.4      2.407      9.272
REMARK  Name = 
REMARK  5 active torsions:
REMARK  status: ('A' for Active; 'I' for Inactive)
REMARK    1  A    between atoms: C_2  and  C_20
REMARK    2  A    between atoms: N_3  and  C_4
REMARK    3  A    between atoms: C_4  and  C_5
REMARK    4  A    between atoms: N_8  and  C_9
REMARK    5  A    between atoms: C_9  and  C_10
REMARK                            x       y       z     vdW  Elec       q    Type
REMARK                         _______ _______ _______ _____ _____    ______ ____
ROOT
ATOM      1  C   UNL     1       7.016   6.726  17.688  0.00  0.00    +0.000 C 
ATOM      2  C   UNL     1       7.642   5.914  16.558  0.00  0.00    +0.000 C 
ATOM      3  C   UNL     1       6.475   5.708  15.606  0.00  0.00    +0.000 C 
ATOM      4  N   UNL     1       5.327   5.410  16.485  0.00  0.00    +0.000 NA
ATOM      5  C   UNL     1       5.546   6.263  17.678  0.00  0.00    +0.000 C 
ENDROOT
BRANCH   1   6
ATOM      6  C   UNL     1       7.204   8.229  17.420  0.00  0.00    +0.000 C 
BRANCH   6   9
ATOM      7  O   UNL     1       7.970  11.022  17.650  0.00  0.00    +0.000 OA
ATOM      8  C   UNL     1       8.569  10.158  18.277  0.00  0.00    +0.000 C 
ATOM      9  N   UNL     1       8.250   8.810  18.233  0.00  0.00    +0.000 N 
ATOM     10  H   UNL     1       8.808   8.175  18.782  0.00  0.00    +0.000 HD
BRANCH   8  11
ATOM     11  C   UNL     1       9.791  10.413  19.171  0.00  0.00    +0.000 C 
ATOM     12  C   UNL     1      10.816  11.405  18.595  0.00  0.00    +0.000 C 
ATOM     13  C   UNL     1      10.583  12.876  18.949  0.00  0.00    +0.000 C 
ATOM     14  C   UNL     1      10.240  13.081  20.418  0.00  0.00    +0.000 C 
ATOM     15  C   UNL     1       9.056  12.220  20.816  0.00  0.00    +0.000 C 
ATOM     16  C   UNL     1       9.385  10.746  20.616  0.00  0.00    +0.000 C 
ENDBRANCH   8  11
ENDBRANCH   6   9
ENDBRANCH   1   6
BRANCH   4  17
ATOM     17  C   UNL     1       5.322   3.965  16.799  0.00  0.00    +0.000 C 
BRANCH  17  18
ATOM     18  C   UNL     1       4.366   3.586  17.878  0.00  0.00    +0.000 A 
ATOM     19  C   UNL     1       4.615   3.176  19.172  0.00  0.00    +0.000 A 
ATOM     20  C   UNL     1       3.371   3.080  19.848  0.00  0.00    +0.000 A 
ATOM     21  C   UNL     1       3.003   2.800  21.178  0.00  0.00    +0.000 A 
ATOM     22  C   UNL     1       1.655   2.878  21.543  0.00  0.00    +0.000 A 
ATOM     23  C   UNL     1       0.682   3.207  20.601  0.00  0.00    +0.000 A 
ATOM     24  C   UNL     1       1.021   3.450  19.265  0.00  0.00    +0.000 A 
ATOM     25  C   UNL     1       2.376   3.385  18.920  0.00  0.00    +0.000 A 
ATOM     26  N   UNL     1       3.002   3.598  17.712  0.00  0.00    +0.000 N 
ATOM     27  H   UNL     1       2.541   3.837  16.844  0.00  0.00    +0.000 HD
ENDBRANCH  17  18
ENDBRANCH   4  17
TORSDOF 5
ENDMDL
