MODEL 1
REMARK VINA RESULT:      -7.3      0.000      0.000
REMARK  Name = 
REMARK  10 active torsions:
REMARK  status: ('A' for Active; 'I' for Inactive)
REMARK    1  A    between atoms: C_1  and  O_2
REMARK    2  A    between atoms: O_2  and  C_3
REMARK    3  A    between atoms: C_6  and  C_7
REMARK    4  A    between atoms: C_7  and  O_8
REMARK    5  A    between atoms: O_8  and  C_9
REMARK    6  A    between atoms: C_9  and  C_10
REMARK    7  A    between atoms: C_10  and  O_11
REMARK    8  A    between atoms: C_10  and  C_12
REMARK    9  A    between atoms: C_12  and  N_13
REMARK   10  A    between atoms: C_14  and  C_16
REMARK                            x       y       z     vdW  Elec       q    Type
REMARK                         _______ _______ _______ _____ _____    ______ ____
ROOT
ATOM      1  C   UNL     1       7.718   5.612  18.612  0.00  0.00    +0.000 C 
ENDROOT
BRANCH   1   2
ATOM      2  O   UNL     1       7.355   5.582  20.004  0.00  0.00    +0.000 OA
ATOM      3  H   UNL     1       7.764   6.352  20.436  0.00  0.00    +0.000 HD
ENDBRANCH   1   2
BRANCH   1   4
ATOM      4  C   UNL     1       7.444   6.981  17.972  0.00  0.00    +0.000 C 
BRANCH   4   5
ATOM      5  O   UNL     1       8.394   7.922  18.461  0.00  0.00    +0.000 OA
BRANCH   5   6
ATOM      6  C   UNL     1       8.116   9.255  18.029  0.00  0.00    +0.000 C 
BRANCH   6  10
ATOM      7  C   UNL     1      11.064  12.047  19.534  0.00  0.00    +0.000 A 
ATOM      8  C   UNL     1      10.195  11.408  20.416  0.00  0.00    +0.000 A 
ATOM      9  C   UNL     1       9.252  10.493  19.943  0.00  0.00    +0.000 A 
ATOM     10  C   UNL     1       9.146  10.216  18.574  0.00  0.00    +0.000 A 
ATOM     11  C   UNL     1      10.019  10.870  17.691  0.00  0.00    +0.000 A 
ATOM     12  C   UNL     1      10.971  11.780  18.168  0.00  0.00    +0.000 A 
BRANCH   7  14
ATOM     13  C   UNL     1      12.125  14.151  19.395  0.00  0.00    +0.000 C 
ATOM     14  O   UNL     1      11.924  12.939  20.111  0.00  0.00    +0.000 OA
ENDBRANCH   7  14
ENDBRANCH   6  10
ENDBRANCH   5   6
ENDBRANCH   4   5
ENDBRANCH   1   4
BRANCH   1  15
ATOM     15  C   UNL     1       6.920   4.527  17.888  0.00  0.00    +0.000 C 
BRANCH  15  16
ATOM     16  N   UNL     1       5.780   4.096  18.679  0.00  0.00    +0.000 N 
ATOM     17  C   UNL     1       4.498   4.408  18.299  0.00  0.00    +0.000 C 
ATOM     18  O   UNL     1       4.227   5.006  17.263  0.00  0.00    +0.000 OA
ATOM     19  H   UNL     1       5.984   3.593  19.532  0.00  0.00    +0.000 HD
BRANCH  17  20
ATOM     20  C   UNL     1       3.404   3.955  19.185  0.00  0.00    +0.000 A 
ATOM     21  C   UNL     1       2.072   4.347  19.041  0.00  0.00    +0.000 A 
ATOM     22  C   UNL     1       1.118   3.852  19.931  0.00  0.00    +0.000 A 
ATOM     23  C   UNL     1       1.533   2.986  20.933  0.00  0.00    +0.000 A 
ATOM     24  N   UNL     1       2.811   2.582  21.093  0.00  0.00    +0.000 NA
ATOM     25  C   UNL     1       3.717   3.068  20.209  0.00  0.00    +0.000 A 
ENDBRANCH  17  20
ENDBRANCH  15  16
ENDBRANCH   1  15
TORSDOF 9
ENDMDL
MODEL 2
REMARK VINA RESULT:      -7.3      5.389      7.565
REMARK  Name = 
REMARK  10 active torsions:
REMARK  status: ('A' for Active; 'I' for Inactive)
REMARK    1  A    between atoms: C_1  and  O_2
REMARK    2  A    between atoms: O_2  and  C_3
REMARK    3  A    between atoms: C_6  and  C_7
REMARK    4  A    between atoms: C_7  and  O_8
REMARK    5  A    between atoms: O_8  and  C_9
REMARK    6  A    between atoms: C_9  and  C_10
REMARK    7  A    between atoms: C_10  and  O_11
REMARK    8  A    between atoms: C_10  and  C_12
REMARK    9  A    between atoms: C_12  and  N_13
REMARK   10  A    between atoms: C_14  and  C_16
REMARK                            x       y       z     vdW  Elec       q    Type
REMARK                         _______ _______ _______ _____ _____    ______ ____
ROOT
ATOM      1  C   UNL     1       2.341   2.972  20.015  0.00  0.00    +0.000 C 
ENDROOT
BRANCH   1   2
ATOM      2  O   UNL     1       1.715   2.595  18.775  0.00  0.00    +0.000 OA
ATOM      3  H   UNL     1       0.869   2.165  18.986  0.00  0.00    +0.000 HD
ENDBRANCH   1   2
BRANCH   1   4
ATOM      4  C   UNL     1       2.130   4.459  20.340  0.00  0.00    +0.000 C 
BRANCH   4   5
ATOM      5  O   UNL     1       2.167   5.209  19.130  0.00  0.00    +0.000 OA
BRANCH   5   6
ATOM      6  C   UNL     1       2.997   6.367  19.229  0.00  0.00    +0.000 C 
BRANCH   6  10
ATOM      7  C   UNL     1       0.612   9.978  19.394  0.00  0.00    +0.000 A 
ATOM      8  C   UNL     1       1.137   9.543  18.178  0.00  0.00    +0.000 A 
ATOM      9  C   UNL     1       1.892   8.372  18.111  0.00  0.00    +0.000 A 
ATOM     10  C   UNL     1       2.158   7.623  19.265  0.00  0.00    +0.000 A 
ATOM     11  C   UNL     1       1.634   8.071  20.487  0.00  0.00    +0.000 A 
ATOM     12  C   UNL     1       0.867   9.242  20.551  0.00  0.00    +0.000 A 
BRANCH   7  14
ATOM     13  C   UNL     1      -1.061  11.238  18.306  0.00  0.00    +0.000 C 
ATOM     14  O   UNL     1      -0.087  11.151  19.338  0.00  0.00    +0.000 OA
ENDBRANCH   7  14
ENDBRANCH   6  10
ENDBRANCH   5   6
ENDBRANCH   4   5
ENDBRANCH   1   4
BRANCH   1  15
ATOM     15  C   UNL     1       3.835   2.667  19.907  0.00  0.00    +0.000 C 
BRANCH  15  16
ATOM     16  N   UNL     1       4.347   3.001  18.589  0.00  0.00    +0.000 N 
ATOM     17  C   UNL     1       5.369   3.905  18.435  0.00  0.00    +0.000 C 
ATOM     18  O   UNL     1       5.947   4.437  19.377  0.00  0.00    +0.000 OA
ATOM     19  H   UNL     1       3.888   2.564  17.800  0.00  0.00    +0.000 HD
BRANCH  17  20
ATOM     20  C   UNL     1       5.799   4.207  17.053  0.00  0.00    +0.000 A 
ATOM     21  C   UNL     1       4.960   4.128  15.940  0.00  0.00    +0.000 A 
ATOM     22  C   UNL     1       5.470   4.443  14.681  0.00  0.00    +0.000 A 
ATOM     23  C   UNL     1       6.800   4.824  14.581  0.00  0.00    +0.000 A 
ATOM     24  N   UNL     1       7.634   4.919  15.637  0.00  0.00    +0.000 NA
ATOM     25  C   UNL     1       7.113   4.617  16.852  0.00  0.00    +0.000 A 
ENDBRANCH  17  20
ENDBRANCH  15  16
ENDBRANCH   1  15
TORSDOF 9
ENDMDL
MODEL 3
REMARK VINA RESULT:      -7.2      4.408      7.531
REMARK  Name = 
REMARK  10 active torsions:
REMARK  status: ('A' for Active; 'I' for Inactive)
REMARK    1  A    between atoms: C_1  and  O_2
REMARK    2  A    between atoms: O_2  and  C_3
REMARK    3  A    between atoms: C_6  and  C_7
REMARK    4  A    between atoms: C_7  and  O_8
REMARK    5  A    between atoms: O_8  and  C_9
REMARK    6  A    between atoms: C_9  and  C_10
REMARK    7  A    between atoms: C_10  and  O_11
REMARK    8  A    between atoms: C_10  and  C_12
REMARK    9  A    between atoms: C_12  and  N_13
REMARK   10  A    between atoms: C_14  and  C_16
REMARK                            x       y       z     vdW  Elec       q    Type
REMARK                         _______ _______ _______ _____ _____    ______ ____
ROOT
ATOM      1  C   UNL     1       2.310   2.679  18.919  0.00  0.00    +0.000 C 
ENDROOT
BRANCH   1   2
ATOM      2  O   UNL     1       1.663   3.007  17.675  0.00  0.00    +0.000 OA
ATOM      3  H   UNL     1       2.325   3.420  17.094  0.00  0.00    +0.000 HD
ENDBRANCH   1   2
BRANCH   1   4
ATOM      4  C   UNL     1       2.341   3.873  19.885  0.00  0.00    +0.000 C 
BRANCH   4   5
ATOM      5  O   UNL     1       2.139   5.074  19.148  0.00  0.00    +0.000 OA
BRANCH   5   6
ATOM      6  C   UNL     1       2.897   6.168  19.666  0.00  0.00    +0.000 C 
BRANCH   6  10
ATOM      7  C   UNL     1       0.833   9.928  19.071  0.00  0.00    +0.000 A 
ATOM      8  C   UNL     1       1.495   9.320  18.006  0.00  0.00    +0.000 A 
ATOM      9  C   UNL     1       2.148   8.100  18.183  0.00  0.00    +0.000 A 
ATOM     10  C   UNL     1       2.172   7.474  19.436  0.00  0.00    +0.000 A 
ATOM     11  C   UNL     1       1.511   8.097  20.506  0.00  0.00    +0.000 A 
ATOM     12  C   UNL     1       0.847   9.316  20.324  0.00  0.00    +0.000 A 
BRANCH   7  14
ATOM     13  C   UNL     1      -1.125  11.083  18.435  0.00  0.00    +0.000 C 
ATOM     14  O   UNL     1       0.252  11.131  18.783  0.00  0.00    +0.000 OA
ENDBRANCH   7  14
ENDBRANCH   6  10
ENDBRANCH   5   6
ENDBRANCH   4   5
ENDBRANCH   1   4
BRANCH   1  15
ATOM     15  C   UNL     1       3.735   2.220  18.608  0.00  0.00    +0.000 C 
BRANCH  15  16
ATOM     16  N   UNL     1       4.670   3.330  18.665  0.00  0.00    +0.000 N 
ATOM     17  C   UNL     1       4.947   4.078  17.547  0.00  0.00    +0.000 C 
ATOM     18  O   UNL     1       4.396   3.906  16.464  0.00  0.00    +0.000 OA
ATOM     19  H   UNL     1       5.127   3.494  19.552  0.00  0.00    +0.000 HD
BRANCH  17  20
ATOM     20  C   UNL     1       5.938   5.167  17.693  0.00  0.00    +0.000 A 
ATOM     21  C   UNL     1       6.946   5.178  18.658  0.00  0.00    +0.000 A 
ATOM     22  C   UNL     1       7.833   6.254  18.701  0.00  0.00    +0.000 A 
ATOM     23  C   UNL     1       7.679   7.277  17.778  0.00  0.00    +0.000 A 
ATOM     24  N   UNL     1       6.721   7.292  16.827  0.00  0.00    +0.000 NA
ATOM     25  C   UNL     1       5.877   6.231  16.799  0.00  0.00    +0.000 A 
ENDBRANCH  17  20
ENDBRANCH  15  16
ENDBRANCH   1  15
TORSDOF 9
ENDMDL
MODEL 4
REMARK VINA RESULT:      -7.1      4.292      7.313
REMARK  Name = 
REMARK  10 active torsions:
REMARK  status: ('A' for Active; 'I' for Inactive)
REMARK    1  A    between atoms: C_1  and  O_2
REMARK    2  A    between atoms: O_2  and  C_3
REMARK    3  A    between atoms: C_6  and  C_7
REMARK    4  A    between atoms: C_7  and  O_8
REMARK    5  A    between atoms: O_8  and  C_9
REMARK    6  A    between atoms: C_9  and  C_10
REMARK    7  A    between atoms: C_10  and  O_11
REMARK    8  A    between atoms: C_10  and  C_12
REMARK    9  A    between atoms: C_12  and  N_13
REMARK   10  A    between atoms: C_14  and  C_16
REMARK                            x       y       z     vdW  Elec       q    Type
REMARK                         _______ _______ _______ _____ _____    ______ ____
ROOT
ATOM      1  C   UNL     1       2.291   2.358  18.458  0.00  0.00    +0.000 C 
ENDROOT
BRANCH   1   2
ATOM      2  O   UNL     1       1.557   3.361  17.731  0.00  0.00    +0.000 OA
ATOM      3  H   UNL     1       1.050   2.913  17.032  0.00  0.00    +0.000 HD
ENDBRANCH   1   2
BRANCH   1   4
ATOM      4  C   UNL     1       2.500   2.747  19.929  0.00  0.00    +0.000 C 
BRANCH   4   5
ATOM      5  O   UNL     1       3.035   4.065  19.990  0.00  0.00    +0.000 OA
BRANCH   5   6
ATOM      6  C   UNL     1       2.185   4.969  20.697  0.00  0.00    +0.000 C 
BRANCH   6  10
ATOM      7  C   UNL     1       1.965   8.807  18.703  0.00  0.00    +0.000 A 
ATOM      8  C   UNL     1       2.542   7.716  18.055  0.00  0.00    +0.000 A 
ATOM      9  C   UNL     1       2.602   6.471  18.683  0.00  0.00    +0.000 A 
ATOM     10  C   UNL     1       2.107   6.297  19.981  0.00  0.00    +0.000 A 
ATOM     11  C   UNL     1       1.535   7.401  20.631  0.00  0.00    +0.000 A 
ATOM     12  C   UNL     1       1.466   8.648  19.996  0.00  0.00    +0.000 A 
BRANCH   7  14
ATOM     13  C   UNL     1       1.293  11.067  18.596  0.00  0.00    +0.000 C 
ATOM     14  O   UNL     1       1.987   9.978  18.000  0.00  0.00    +0.000 OA
ENDBRANCH   7  14
ENDBRANCH   6  10
ENDBRANCH   5   6
ENDBRANCH   4   5
ENDBRANCH   1   4
BRANCH   1  15
ATOM     15  C   UNL     1       3.643   2.165  17.770  0.00  0.00    +0.000 C 
BRANCH  15  16
ATOM     16  N   UNL     1       4.544   3.265  18.064  0.00  0.00    +0.000 N 
ATOM     17  C   UNL     1       5.057   4.047  17.058  0.00  0.00    +0.000 C 
ATOM     18  O   UNL     1       4.754   3.914  15.877  0.00  0.00    +0.000 OA
ATOM     19  H   UNL     1       4.799   3.397  19.034  0.00  0.00    +0.000 HD
BRANCH  17  20
ATOM     20  C   UNL     1       5.994   5.122  17.451  0.00  0.00    +0.000 A 
ATOM     21  C   UNL     1       6.861   5.040  18.543  0.00  0.00    +0.000 A 
ATOM     22  C   UNL     1       7.709   6.112  18.819  0.00  0.00    +0.000 A 
ATOM     23  C   UNL     1       7.659   7.226  17.993  0.00  0.00    +0.000 A 
ATOM     24  N   UNL     1       6.840   7.332  16.926  0.00  0.00    +0.000 NA
ATOM     25  C   UNL     1       6.032   6.273  16.672  0.00  0.00    +0.000 A 
ENDBRANCH  17  20
ENDBRANCH  15  16
ENDBRANCH   1  15
TORSDOF 9
ENDMDL
MODEL 5
REMARK VINA RESULT:      -7.1      3.030      4.523
REMARK  Name = 
REMARK  10 active torsions:
REMARK  status: ('A' for Active; 'I' for Inactive)
REMARK    1  A    between atoms: C_1  and  O_2
REMARK    2  A    between atoms: O_2  and  C_3
REMARK    3  A    between atoms: C_6  and  C_7
REMARK    4  A    between atoms: C_7  and  O_8
REMARK    5  A    between atoms: O_8  and  C_9
REMARK    6  A    between atoms: C_9  and  C_10
REMARK    7  A    between atoms: C_10  and  O_11
REMARK    8  A    between atoms: C_10  and  C_12
REMARK    9  A    between atoms: C_12  and  N_13
REMARK   10  A    between atoms: C_14  and  C_16
REMARK                            x       y       z     vdW  Elec       q    Type
REMARK                         _______ _______ _______ _____ _____    ______ ____
ROOT
ATOM      1  C   UNL     1       8.009   5.709  18.884  0.00  0.00    +0.000 C 
ENDROOT
BRANCH   1   2
ATOM      2  O   UNL     1       7.658   5.707  20.280  0.00  0.00    +0.000 OA
ATOM      3  H   UNL     1       8.421   6.042  20.781  0.00  0.00    +0.000 HD
ENDBRANCH   1   2
BRANCH   1   4
ATOM      4  C   UNL     1       7.649   7.036  18.200  0.00  0.00    +0.000 C 
BRANCH   4   5
ATOM      5  O   UNL     1       8.587   8.032  18.593  0.00  0.00    +0.000 OA
BRANCH   5   6
ATOM      6  C   UNL     1       8.249   9.328  18.096  0.00  0.00    +0.000 C 
BRANCH   6  10
ATOM      7  C   UNL     1      10.985  12.345  19.567  0.00  0.00    +0.000 A 
ATOM      8  C   UNL     1      10.201  11.619  20.462  0.00  0.00    +0.000 A 
ATOM      9  C   UNL     1       9.329  10.633  19.999  0.00  0.00    +0.000 A 
ATOM     10  C   UNL     1       9.207  10.368  18.629  0.00  0.00    +0.000 A 
ATOM     11  C   UNL     1       9.993  11.110  17.734  0.00  0.00    +0.000 A 
ATOM     12  C   UNL     1      10.875  12.092  18.200  0.00  0.00    +0.000 A 
BRANCH   7  14
ATOM     13  C   UNL     1      11.300  14.636  20.043  0.00  0.00    +0.000 C 
ATOM     14  O   UNL     1      11.781  13.301  20.135  0.00  0.00    +0.000 OA
ENDBRANCH   7  14
ENDBRANCH   6  10
ENDBRANCH   5   6
ENDBRANCH   4   5
ENDBRANCH   1   4
BRANCH   1  15
ATOM     15  C   UNL     1       7.272   4.554  18.206  0.00  0.00    +0.000 C 
BRANCH  15  16
ATOM     16  N   UNL     1       7.436   4.598  16.764  0.00  0.00    +0.000 N 
ATOM     17  C   UNL     1       6.389   4.310  15.924  0.00  0.00    +0.000 C 
ATOM     18  O   UNL     1       5.255   4.059  16.319  0.00  0.00    +0.000 OA
ATOM     19  H   UNL     1       8.362   4.813  16.419  0.00  0.00    +0.000 HD
BRANCH  17  20
ATOM     20  C   UNL     1       6.660   4.347  14.470  0.00  0.00    +0.000 A 
ATOM     21  C   UNL     1       6.045   3.507  13.541  0.00  0.00    +0.000 A 
ATOM     22  C   UNL     1       6.372   3.634  12.191  0.00  0.00    +0.000 A 
ATOM     23  C   UNL     1       7.301   4.595  11.821  0.00  0.00    +0.000 A 
ATOM     24  N   UNL     1       7.907   5.428  12.694  0.00  0.00    +0.000 NA
ATOM     25  C   UNL     1       7.565   5.292  13.999  0.00  0.00    +0.000 A 
ENDBRANCH  17  20
ENDBRANCH  15  16
ENDBRANCH   1  15
TORSDOF 9
ENDMDL
MODEL 6
REMARK VINA RESULT:      -7.0      4.784      6.172
REMARK  Name = 
REMARK  10 active torsions:
REMARK  status: ('A' for Active; 'I' for Inactive)
REMARK    1  A    between atoms: C_1  and  O_2
REMARK    2  A    between atoms: O_2  and  C_3
REMARK    3  A    between atoms: C_6  and  C_7
REMARK    4  A    between atoms: C_7  and  O_8
REMARK    5  A    between atoms: O_8  and  C_9
REMARK    6  A    between atoms: C_9  and  C_10
REMARK    7  A    between atoms: C_10  and  O_11
REMARK    8  A    between atoms: C_10  and  C_12
REMARK    9  A    between atoms: C_12  and  N_13
REMARK   10  A    between atoms: C_14  and  C_16
REMARK                            x       y       z     vdW  Elec       q    Type
REMARK                         _______ _______ _______ _____ _____    ______ ____
ROOT
ATOM      1  C   UNL     1       6.028   5.530  16.545  0.00  0.00    +0.000 C 
ENDROOT
BRANCH   1   2
ATOM      2  O   UNL     1       7.285   5.889  15.941  0.00  0.00    +0.000 OA
ATOM      3  H   UNL     1       7.744   5.067  15.697  0.00  0.00    +0.000 HD
ENDBRANCH   1   2
BRANCH   1   4
ATOM      4  C   UNL     1       5.656   6.468  17.702  0.00  0.00    +0.000 C 
BRANCH   4   5
ATOM      5  O   UNL     1       4.561   7.287  17.305  0.00  0.00    +0.000 OA
BRANCH   5   6
ATOM      6  C   UNL     1       3.298   6.724  17.659  0.00  0.00    +0.000 C 
BRANCH   6  10
ATOM      7  C   UNL     1       0.916   9.576  19.881  0.00  0.00    +0.000 A 
ATOM      8  C   UNL     1       1.339   8.396  20.490  0.00  0.00    +0.000 A 
ATOM      9  C   UNL     1       2.121   7.479  19.788  0.00  0.00    +0.000 A 
ATOM     10  C   UNL     1       2.478   7.712  18.454  0.00  0.00    +0.000 A 
ATOM     11  C   UNL     1       2.040   8.898  17.844  0.00  0.00    +0.000 A 
ATOM     12  C   UNL     1       1.264   9.824  18.553  0.00  0.00    +0.000 A 
BRANCH   7  14
ATOM     13  C   UNL     1      -0.082   9.934  21.990  0.00  0.00    +0.000 C 
ATOM     14  O   UNL     1       0.134  10.384  20.659  0.00  0.00    +0.000 OA
ENDBRANCH   7  14
ENDBRANCH   6  10
ENDBRANCH   5   6
ENDBRANCH   4   5
ENDBRANCH   1   4
BRANCH   1  15
ATOM     15  C   UNL     1       6.136   4.092  17.051  0.00  0.00    +0.000 C 
BRANCH  15  16
ATOM     16  N   UNL     1       5.273   3.870  18.198  0.00  0.00    +0.000 N 
ATOM     17  C   UNL     1       3.977   3.445  18.035  0.00  0.00    +0.000 C 
ATOM     18  O   UNL     1       3.488   3.171  16.944  0.00  0.00    +0.000 OA
ATOM     19  H   UNL     1       5.662   4.082  19.107  0.00  0.00    +0.000 HD
BRANCH  17  20
ATOM     20  C   UNL     1       3.163   3.281  19.259  0.00  0.00    +0.000 A 
ATOM     21  C   UNL     1       1.836   3.697  19.374  0.00  0.00    +0.000 A 
ATOM     22  C   UNL     1       1.159   3.485  20.575  0.00  0.00    +0.000 A 
ATOM     23  C   UNL     1       1.835   2.866  21.616  0.00  0.00    +0.000 A 
ATOM     24  N   UNL     1       3.115   2.445  21.534  0.00  0.00    +0.000 NA
ATOM     25  C   UNL     1       3.748   2.652  20.353  0.00  0.00    +0.000 A 
ENDBRANCH  17  20
ENDBRANCH  15  16
ENDBRANCH   1  15
TORSDOF 9
ENDMDL
MODEL 7
REMARK VINA RESULT:      -7.0      4.320      7.391
REMARK  Name = 
REMARK  10 active torsions:
REMARK  status: ('A' for Active; 'I' for Inactive)
REMARK    1  A    between atoms: C_1  and  O_2
REMARK    2  A    between atoms: O_2  and  C_3
REMARK    3  A    between atoms: C_6  and  C_7
REMARK    4  A    between atoms: C_7  and  O_8
REMARK    5  A    between atoms: O_8  and  C_9
REMARK    6  A    between atoms: C_9  and  C_10
REMARK    7  A    between atoms: C_10  and  O_11
REMARK    8  A    between atoms: C_10  and  C_12
REMARK    9  A    between atoms: C_12  and  N_13
REMARK   10  A    between atoms: C_14  and  C_16
REMARK                            x       y       z     vdW  Elec       q    Type
REMARK                         _______ _______ _______ _____ _____    ______ ____
ROOT
ATOM      1  C   UNL     1       2.830   3.102  20.973  0.00  0.00    +0.000 C 
ENDROOT
BRANCH   1   2
ATOM      2  O   UNL     1       2.627   2.144  22.028  0.00  0.00    +0.000 OA
ATOM      3  H   UNL     1       2.137   2.585  22.743  0.00  0.00    +0.000 HD
ENDBRANCH   1   2
BRANCH   1   4
ATOM      4  C   UNL     1       1.552   3.340  20.155  0.00  0.00    +0.000 C 
BRANCH   4   5
ATOM      5  O   UNL     1       1.589   4.652  19.603  0.00  0.00    +0.000 OA
BRANCH   5   6
ATOM      6  C   UNL     1       2.027   5.630  20.546  0.00  0.00    +0.000 C 
BRANCH   6  10
ATOM      7  C   UNL     1       1.466   9.601  18.910  0.00  0.00    +0.000 A 
ATOM      8  C   UNL     1       0.957   9.286  20.169  0.00  0.00    +0.000 A 
ATOM      9  C   UNL     1       1.147   8.015  20.713  0.00  0.00    +0.000 A 
ATOM     10  C   UNL     1       1.832   7.024  19.997  0.00  0.00    +0.000 A 
ATOM     11  C   UNL     1       2.334   7.345  18.727  0.00  0.00    +0.000 A 
ATOM     12  C   UNL     1       2.152   8.625  18.187  0.00  0.00    +0.000 A 
BRANCH   7  14
ATOM     13  C   UNL     1       0.021  11.464  19.010  0.00  0.00    +0.000 C 
ATOM     14  O   UNL     1       1.194  10.867  18.474  0.00  0.00    +0.000 OA
ENDBRANCH   7  14
ENDBRANCH   6  10
ENDBRANCH   5   6
ENDBRANCH   4   5
ENDBRANCH   1   4
BRANCH   1  15
ATOM     15  C   UNL     1       3.944   2.582  20.064  0.00  0.00    +0.000 C 
BRANCH  15  16
ATOM     16  N   UNL     1       4.872   3.641  19.709  0.00  0.00    +0.000 N 
ATOM     17  C   UNL     1       4.830   4.231  18.470  0.00  0.00    +0.000 C 
ATOM     18  O   UNL     1       3.992   3.955  17.618  0.00  0.00    +0.000 OA
ATOM     19  H   UNL     1       5.565   3.889  20.403  0.00  0.00    +0.000 HD
BRANCH  17  20
ATOM     20  C   UNL     1       5.838   5.277  18.187  0.00  0.00    +0.000 A 
ATOM     21  C   UNL     1       6.983   5.485  18.958  0.00  0.00    +0.000 A 
ATOM     22  C   UNL     1       7.871   6.497  18.596  0.00  0.00    +0.000 A 
ATOM     23  C   UNL     1       7.582   7.263  17.476  0.00  0.00    +0.000 A 
ATOM     24  N   UNL     1       6.489   7.082  16.705  0.00  0.00    +0.000 NA
ATOM     25  C   UNL     1       5.645   6.085  17.072  0.00  0.00    +0.000 A 
ENDBRANCH  17  20
ENDBRANCH  15  16
ENDBRANCH   1  15
TORSDOF 9
ENDMDL
MODEL 8
REMARK VINA RESULT:      -6.9      4.616      6.207
REMARK  Name = 
REMARK  10 active torsions:
REMARK  status: ('A' for Active; 'I' for Inactive)
REMARK    1  A    between atoms: C_1  and  O_2
REMARK    2  A    between atoms: O_2  and  C_3
REMARK    3  A    between atoms: C_6  and  C_7
REMARK    4  A    between atoms: C_7  and  O_8
REMARK    5  A    between atoms: O_8  and  C_9
REMARK    6  A    between atoms: C_9  and  C_10
REMARK    7  A    between atoms: C_10  and  O_11
REMARK    8  A    between atoms: C_10  and  C_12
REMARK    9  A    between atoms: C_12  and  N_13
REMARK   10  A    between atoms: C_14  and  C_16
REMARK                            x       y       z     vdW  Elec       q    Type
REMARK                         _______ _______ _______ _____ _____    ______ ____
ROOT
ATOM      1  C   UNL     1       6.852   5.778  17.368  0.00  0.00    +0.000 C 
ENDROOT
BRANCH   1   2
ATOM      2  O   UNL     1       6.990   6.136  18.755  0.00  0.00    +0.000 OA
ATOM      3  H   UNL     1       6.572   7.005  18.883  0.00  0.00    +0.000 HD
ENDBRANCH   1   2
BRANCH   1   4
ATOM      4  C   UNL     1       5.717   6.552  16.682  0.00  0.00    +0.000 C 
BRANCH   4   5
ATOM      5  O   UNL     1       4.857   7.097  17.677  0.00  0.00    +0.000 OA
BRANCH   5   6
ATOM      6  C   UNL     1       3.476   6.890  17.381  0.00  0.00    +0.000 C 
BRANCH   6  10
ATOM      7  C   UNL     1       0.938   9.145  20.069  0.00  0.00    +0.000 A 
ATOM      8  C   UNL     1       1.543   7.968  20.504  0.00  0.00    +0.000 A 
ATOM      9  C   UNL     1       2.376   7.243  19.652  0.00  0.00    +0.000 A 
ATOM     10  C   UNL     1       2.603   7.669  18.337  0.00  0.00    +0.000 A 
ATOM     11  C   UNL     1       1.983   8.851  17.902  0.00  0.00    +0.000 A 
ATOM     12  C   UNL     1       1.155   9.583  18.762  0.00  0.00    +0.000 A 
BRANCH   7  14
ATOM     13  C   UNL     1      -0.518  10.942  20.542  0.00  0.00    +0.000 C 
ATOM     14  O   UNL     1       0.124   9.753  20.983  0.00  0.00    +0.000 OA
ENDBRANCH   7  14
ENDBRANCH   6  10
ENDBRANCH   5   6
ENDBRANCH   4   5
ENDBRANCH   1   4
BRANCH   1  15
ATOM     15  C   UNL     1       6.583   4.275  17.288  0.00  0.00    +0.000 C 
BRANCH  15  16
ATOM     16  N   UNL     1       5.193   3.973  17.579  0.00  0.00    +0.000 N 
ATOM     17  C   UNL     1       4.786   3.681  18.858  0.00  0.00    +0.000 C 
ATOM     18  O   UNL     1       5.534   3.711  19.829  0.00  0.00    +0.000 OA
ATOM     19  H   UNL     1       4.559   3.952  16.792  0.00  0.00    +0.000 HD
BRANCH  17  20
ATOM     20  C   UNL     1       3.357   3.352  19.051  0.00  0.00    +0.000 A 
ATOM     21  C   UNL     1       2.679   3.502  20.262  0.00  0.00    +0.000 A 
ATOM     22  C   UNL     1       1.327   3.167  20.330  0.00  0.00    +0.000 A 
ATOM     23  C   UNL     1       0.703   2.694  19.185  0.00  0.00    +0.000 A 
ATOM     24  N   UNL     1       1.328   2.545  17.998  0.00  0.00    +0.000 NA
ATOM     25  C   UNL     1       2.639   2.886  17.954  0.00  0.00    +0.000 A 
ENDBRANCH  17  20
ENDBRANCH  15  16
ENDBRANCH   1  15
TORSDOF 9
ENDMDL
MODEL 9
REMARK VINA RESULT:      -6.9      5.436      7.241
REMARK  Name = 
REMARK  10 active torsions:
REMARK  status: ('A' for Active; 'I' for Inactive)
REMARK    1  A    between atoms: C_1  and  O_2
REMARK    2  A    between atoms: O_2  and  C_3
REMARK    3  A    between atoms: C_6  and  C_7
REMARK    4  A    between atoms: C_7  and  O_8
REMARK    5  A    between atoms: O_8  and  C_9
REMARK    6  A    between atoms: C_9  and  C_10
REMARK    7  A    between atoms: C_10  and  O_11
REMARK    8  A    between atoms: C_10  and  C_12
REMARK    9  A    between atoms: C_12  and  N_13
REMARK   10  A    between atoms: C_14  and  C_16
REMARK                            x       y       z     vdW  Elec       q    Type
REMARK                         _______ _______ _______ _____ _____    ______ ____
ROOT
ATOM      1  C   UNL     1       2.295   3.380  21.453  0.00  0.00    +0.000 C 
ENDROOT
BRANCH   1   2
ATOM      2  O   UNL     1       1.455   2.496  22.218  0.00  0.00    +0.000 OA
ATOM      3  H   UNL     1       0.586   2.459  21.784  0.00  0.00    +0.000 HD
ENDBRANCH   1   2
BRANCH   1   4
ATOM      4  C   UNL     1       1.476   4.349  20.588  0.00  0.00    +0.000 C 
BRANCH   4   5
ATOM      5  O   UNL     1       1.941   5.677  20.808  0.00  0.00    +0.000 OA
BRANCH   5   6
ATOM      6  C   UNL     1       2.548   6.245  19.647  0.00  0.00    +0.000 C 
BRANCH   6  10
ATOM      7  C   UNL     1       1.071  10.248  18.906  0.00  0.00    +0.000 A 
ATOM      8  C   UNL     1       0.887   9.657  20.155  0.00  0.00    +0.000 A 
ATOM      9  C   UNL     1       1.374   8.374  20.409  0.00  0.00    +0.000 A 
ATOM     10  C   UNL     1       2.036   7.647  19.411  0.00  0.00    +0.000 A 
ATOM     11  C   UNL     1       2.209   8.245  18.154  0.00  0.00    +0.000 A 
ATOM     12  C   UNL     1       1.729   9.536  17.902  0.00  0.00    +0.000 A 
BRANCH   7  14
ATOM     13  C   UNL     1      -0.042  12.051  19.945  0.00  0.00    +0.000 C 
ATOM     14  O   UNL     1       0.528  11.494  18.768  0.00  0.00    +0.000 OA
ENDBRANCH   7  14
ENDBRANCH   6  10
ENDBRANCH   5   6
ENDBRANCH   4   5
ENDBRANCH   1   4
BRANCH   1  15
ATOM     15  C   UNL     1       3.202   2.526  20.566  0.00  0.00    +0.000 C 
BRANCH  15  16
ATOM     16  N   UNL     1       4.038   3.354  19.715  0.00  0.00    +0.000 N 
ATOM     17  C   UNL     1       4.094   3.144  18.359  0.00  0.00    +0.000 C 
ATOM     18  O   UNL     1       3.416   2.304  17.777  0.00  0.00    +0.000 OA
ATOM     19  H   UNL     1       4.598   4.059  20.176  0.00  0.00    +0.000 HD
BRANCH  17  20
ATOM     20  C   UNL     1       5.000   4.015  17.579  0.00  0.00    +0.000 A 
ATOM     21  C   UNL     1       4.798   4.349  16.239  0.00  0.00    +0.000 A 
ATOM     22  C   UNL     1       5.714   5.186  15.602  0.00  0.00    +0.000 A 
ATOM     23  C   UNL     1       6.798   5.656  16.328  0.00  0.00    +0.000 A 
ATOM     24  N   UNL     1       7.017   5.359  17.626  0.00  0.00    +0.000 NA
ATOM     25  C   UNL     1       6.107   4.552  18.226  0.00  0.00    +0.000 A 
ENDBRANCH  17  20
ENDBRANCH  15  16
ENDBRANCH   1  15
TORSDOF 9
ENDMDL
