MODEL 1
REMARK VINA RESULT:      -8.9      0.000      0.000
REMARK  Name = 
REMARK  7 active torsions:
REMARK  status: ('A' for Active; 'I' for Inactive)
REMARK    1  A    between atoms: C_1  and  O_2
REMARK    2  A    between atoms: O_2  and  C_3
REMARK    3  A    between atoms: C_3  and  C_5
REMARK    4  A    between atoms: C_5  and  C_6
REMARK    5  A    between atoms: C_6  and  C_7
REMARK    6  A    between atoms: C_9  and  C_10
REMARK    7  A    between atoms: C_18  and  N_19
REMARK                            x       y       z     vdW  Elec       q    Type
REMARK                         _______ _______ _______ _____ _____    ______ ____
ROOT
ATOM      1  C   UNL     1       5.332   4.973  16.390  0.00  0.00    +0.000 C 
ATOM      2  N   UNL     1       4.475   6.037  16.911  0.00  0.00    +0.000 NA
ATOM      3  C   UNL     1       3.773   5.875  17.979  0.00  0.00    +0.000 C 
ATOM      4  C   UNL     1       3.744   4.618  18.792  0.00  0.00    +0.000 A 
ATOM      5  C   UNL     1       2.514   4.207  19.342  0.00  0.00    +0.000 A 
ATOM      6  C   UNL     1       2.462   3.116  20.218  0.00  0.00    +0.000 A 
ATOM      7  C   UNL     1       3.629   2.416  20.546  0.00  0.00    +0.000 A 
ATOM      8  C   UNL     1       4.845   2.814  19.991  0.00  0.00    +0.000 A 
ATOM      9  C   UNL     1       4.910   3.890  19.094  0.00  0.00    +0.000 A 
ATOM     10  N   UNL     1       6.179   4.169  18.576  0.00  0.00    +0.000 N 
ATOM     11  C   UNL     1       6.487   4.739  17.371  0.00  0.00    +0.000 C 
ATOM     12  O   UNL     1       7.672   4.925  17.103  0.00  0.00    +0.000 OA
ATOM     13  H   UNL     1       7.000   3.818  19.054  0.00  0.00    +0.000 HD
ENDROOT
BRANCH   3  14
ATOM     14  C   UNL     1       2.931   7.046  18.409  0.00  0.00    +0.000 A 
ATOM     15  C   UNL     1       2.443   7.076  19.723  0.00  0.00    +0.000 A 
ATOM     16  C   UNL     1       1.670   8.151  20.164  0.00  0.00    +0.000 A 
ATOM     17  C   UNL     1       1.380   9.203  19.298  0.00  0.00    +0.000 A 
ATOM     18  C   UNL     1       1.848   9.175  17.985  0.00  0.00    +0.000 A 
ATOM     19  C   UNL     1       2.610   8.092  17.534  0.00  0.00    +0.000 A 
ENDBRANCH   3  14
BRANCH   6  20
ATOM     20  N   UNL     1       1.184   2.720  20.820  0.00  0.00    +0.000 N 
ATOM     21  O   UNL     1       0.190   2.690  20.082  0.00  0.00    +0.000 OA
ATOM     22  O   UNL     1       1.179   2.447  22.027  0.00  0.00    +0.000 OA
ENDBRANCH   6  20
BRANCH   1  23
ATOM     23  C   UNL     1       5.833   5.438  15.014  0.00  0.00    +0.000 C 
BRANCH  23  24
ATOM     24  C   UNL     1       6.294   4.291  14.110  0.00  0.00    +0.000 C 
BRANCH  24  25
ATOM     25  C   UNL     1       7.331   4.756  13.120  0.00  0.00    +0.000 C 
ATOM     26  O   UNL     1       8.165   5.630  13.322  0.00  0.00    +0.000 OA
BRANCH  25  28
ATOM     27  C   UNL     1       6.132   3.114  11.973  0.00  0.00    +0.000 C 
ATOM     28  O   UNL     1       7.190   4.073  11.949  0.00  0.00    +0.000 OA
ENDBRANCH  25  28
ENDBRANCH  24  25
ENDBRANCH  23  24
ENDBRANCH   1  23
TORSDOF 6
ENDMDL
MODEL 2
REMARK VINA RESULT:      -8.9      0.123      1.112
REMARK  Name = 
REMARK  7 active torsions:
REMARK  status: ('A' for Active; 'I' for Inactive)
REMARK    1  A    between atoms: C_1  and  O_2
REMARK    2  A    between atoms: O_2  and  C_3
REMARK    3  A    between atoms: C_3  and  C_5
REMARK    4  A    between atoms: C_5  and  C_6
REMARK    5  A    between atoms: C_6  and  C_7
REMARK    6  A    between atoms: C_9  and  C_10
REMARK    7  A    between atoms: C_18  and  N_19
REMARK                            x       y       z     vdW  Elec       q    Type
REMARK                         _______ _______ _______ _____ _____    ______ ____
ROOT
ATOM      1  C   UNL     1       5.260   5.067  16.380  0.00  0.00    +0.000 C 
ATOM      2  N   UNL     1       4.406   6.120  16.928  0.00  0.00    +0.000 NA
ATOM      3  C   UNL     1       3.727   5.942  18.009  0.00  0.00    +0.000 C 
ATOM      4  C   UNL     1       3.723   4.676  18.809  0.00  0.00    +0.000 A 
ATOM      5  C   UNL     1       2.508   4.251  19.380  0.00  0.00    +0.000 A 
ATOM      6  C   UNL     1       2.481   3.151  20.245  0.00  0.00    +0.000 A 
ATOM      7  C   UNL     1       3.660   2.456  20.542  0.00  0.00    +0.000 A 
ATOM      8  C   UNL     1       4.861   2.868  19.967  0.00  0.00    +0.000 A 
ATOM      9  C   UNL     1       4.900   3.953  19.080  0.00  0.00    +0.000 A 
ATOM     10  N   UNL     1       6.157   4.246  18.539  0.00  0.00    +0.000 N 
ATOM     11  C   UNL     1       6.436   4.831  17.334  0.00  0.00    +0.000 C 
ATOM     12  O   UNL     1       7.615   5.028  17.044  0.00  0.00    +0.000 OA
ATOM     13  H   UNL     1       6.990   3.897  18.997  0.00  0.00    +0.000 HD
ENDROOT
BRANCH   3  14
ATOM     14  C   UNL     1       2.887   7.103  18.468  0.00  0.00    +0.000 A 
ATOM     15  C   UNL     1       2.621   8.138  17.561  0.00  0.00    +0.000 A 
ATOM     16  C   UNL     1       1.835   9.227  17.943  0.00  0.00    +0.000 A 
ATOM     17  C   UNL     1       1.311   9.289  19.232  0.00  0.00    +0.000 A 
ATOM     18  C   UNL     1       1.583   8.271  20.146  0.00  0.00    +0.000 A 
ATOM     19  C   UNL     1       2.381   7.187  19.772  0.00  0.00    +0.000 A 
ENDBRANCH   3  14
BRANCH   6  20
ATOM     20  N   UNL     1       1.219   2.740  20.870  0.00  0.00    +0.000 N 
ATOM     21  O   UNL     1       1.245   2.451  22.074  0.00  0.00    +0.000 OA
ATOM     22  O   UNL     1       0.210   2.702  20.154  0.00  0.00    +0.000 OA
ENDBRANCH   6  20
BRANCH   1  23
ATOM     23  C   UNL     1       5.729   5.550  14.998  0.00  0.00    +0.000 C 
BRANCH  23  24
ATOM     24  C   UNL     1       6.171   4.413  14.070  0.00  0.00    +0.000 C 
BRANCH  24  25
ATOM     25  C   UNL     1       7.343   4.828  13.216  0.00  0.00    +0.000 C 
ATOM     26  O   UNL     1       8.237   5.591  13.559  0.00  0.00    +0.000 OA
BRANCH  25  28
ATOM     27  C   UNL     1       6.372   3.114  11.962  0.00  0.00    +0.000 C 
ATOM     28  O   UNL     1       7.249   4.241  11.990  0.00  0.00    +0.000 OA
ENDBRANCH  25  28
ENDBRANCH  24  25
ENDBRANCH  23  24
ENDBRANCH   1  23
TORSDOF 6
ENDMDL
MODEL 3
REMARK VINA RESULT:      -8.7      3.201      5.482
REMARK  Name = 
REMARK  7 active torsions:
REMARK  status: ('A' for Active; 'I' for Inactive)
REMARK    1  A    between atoms: C_1  and  O_2
REMARK    2  A    between atoms: O_2  and  C_3
REMARK    3  A    between atoms: C_3  and  C_5
REMARK    4  A    between atoms: C_5  and  C_6
REMARK    5  A    between atoms: C_6  and  C_7
REMARK    6  A    between atoms: C_9  and  C_10
REMARK    7  A    between atoms: C_18  and  N_19
REMARK                            x       y       z     vdW  Elec       q    Type
REMARK                         _______ _______ _______ _____ _____    ______ ____
ROOT
ATOM      1  C   UNL     1       5.292   6.416  18.109  0.00  0.00    +0.000 C 
ATOM      2  N   UNL     1       4.442   5.424  18.764  0.00  0.00    +0.000 NA
ATOM      3  C   UNL     1       3.280   5.734  19.229  0.00  0.00    +0.000 C 
ATOM      4  C   UNL     1       2.678   7.103  19.162  0.00  0.00    +0.000 A 
ATOM      5  C   UNL     1       1.935   7.560  20.267  0.00  0.00    +0.000 A 
ATOM      6  C   UNL     1       1.242   8.774  20.199  0.00  0.00    +0.000 A 
ATOM      7  C   UNL     1       1.290   9.551  19.035  0.00  0.00    +0.000 A 
ATOM      8  C   UNL     1       2.036   9.106  17.945  0.00  0.00    +0.000 A 
ATOM      9  C   UNL     1       2.755   7.903  18.007  0.00  0.00    +0.000 A 
ATOM     10  N   UNL     1       3.495   7.582  16.863  0.00  0.00    +0.000 N 
ATOM     11  C   UNL     1       4.640   6.837  16.787  0.00  0.00    +0.000 C 
ATOM     12  O   UNL     1       5.134   6.645  15.678  0.00  0.00    +0.000 OA
ATOM     13  H   UNL     1       3.269   8.028  15.982  0.00  0.00    +0.000 HD
ENDROOT
BRANCH   3  14
ATOM     14  C   UNL     1       2.505   4.621  19.881  0.00  0.00    +0.000 A 
ATOM     15  C   UNL     1       1.492   3.989  19.147  0.00  0.00    +0.000 A 
ATOM     16  C   UNL     1       0.758   2.944  19.712  0.00  0.00    +0.000 A 
ATOM     17  C   UNL     1       1.030   2.525  21.012  0.00  0.00    +0.000 A 
ATOM     18  C   UNL     1       2.026   3.158  21.755  0.00  0.00    +0.000 A 
ATOM     19  C   UNL     1       2.753   4.214  21.199  0.00  0.00    +0.000 A 
ENDBRANCH   3  14
BRANCH   6  20
ATOM     20  N   UNL     1       0.436   9.224  21.339  0.00  0.00    +0.000 N 
ATOM     21  O   UNL     1      -0.536   8.527  21.662  0.00  0.00    +0.000 OA
ATOM     22  O   UNL     1       0.773  10.273  21.902  0.00  0.00    +0.000 OA
ENDBRANCH   6  20
BRANCH   1  23
ATOM     23  C   UNL     1       6.661   5.753  17.887  0.00  0.00    +0.000 C 
BRANCH  23  24
ATOM     24  C   UNL     1       7.810   6.463  18.610  0.00  0.00    +0.000 C 
BRANCH  24  25
ATOM     25  C   UNL     1       8.069   7.826  18.019  0.00  0.00    +0.000 C 
ATOM     26  O   UNL     1       7.792   8.169  16.876  0.00  0.00    +0.000 OA
BRANCH  25  28
ATOM     27  C   UNL     1       8.877   9.963  18.499  0.00  0.00    +0.000 C 
ATOM     28  O   UNL     1       8.683   8.619  18.942  0.00  0.00    +0.000 OA
ENDBRANCH  25  28
ENDBRANCH  24  25
ENDBRANCH  23  24
ENDBRANCH   1  23
TORSDOF 6
ENDMDL
MODEL 4
REMARK VINA RESULT:      -8.7      2.697      4.658
REMARK  Name = 
REMARK  7 active torsions:
REMARK  status: ('A' for Active; 'I' for Inactive)
REMARK    1  A    between atoms: C_1  and  O_2
REMARK    2  A    between atoms: O_2  and  C_3
REMARK    3  A    between atoms: C_3  and  C_5
REMARK    4  A    between atoms: C_5  and  C_6
REMARK    5  A    between atoms: C_6  and  C_7
REMARK    6  A    between atoms: C_9  and  C_10
REMARK    7  A    between atoms: C_18  and  N_19
REMARK                            x       y       z     vdW  Elec       q    Type
REMARK                         _______ _______ _______ _____ _____    ______ ____
ROOT
ATOM      1  C   UNL     1       5.209   6.615  17.969  0.00  0.00    +0.000 C 
ATOM      2  N   UNL     1       4.394   5.569  18.584  0.00  0.00    +0.000 NA
ATOM      3  C   UNL     1       3.241   5.829  19.099  0.00  0.00    +0.000 C 
ATOM      4  C   UNL     1       2.616   7.189  19.137  0.00  0.00    +0.000 A 
ATOM      5  C   UNL     1       1.899   7.562  20.290  0.00  0.00    +0.000 A 
ATOM      6  C   UNL     1       1.186   8.766  20.318  0.00  0.00    +0.000 A 
ATOM      7  C   UNL     1       1.188   9.616  19.206  0.00  0.00    +0.000 A 
ATOM      8  C   UNL     1       1.908   9.253  18.068  0.00  0.00    +0.000 A 
ATOM      9  C   UNL     1       2.647   8.062  18.033  0.00  0.00    +0.000 A 
ATOM     10  N   UNL     1       3.359   7.827  16.852  0.00  0.00    +0.000 N 
ATOM     11  C   UNL     1       4.512   7.108  16.695  0.00  0.00    +0.000 C 
ATOM     12  O   UNL     1       4.977   6.995  15.563  0.00  0.00    +0.000 OA
ATOM     13  H   UNL     1       3.100   8.324  16.008  0.00  0.00    +0.000 HD
ENDROOT
BRANCH   3  14
ATOM     14  C   UNL     1       2.502   4.664  19.701  0.00  0.00    +0.000 A 
ATOM     15  C   UNL     1       2.808   4.282  21.015  0.00  0.00    +0.000 A 
ATOM     16  C   UNL     1       2.136   3.216  21.614  0.00  0.00    +0.000 A 
ATOM     17  C   UNL     1       1.155   2.524  20.906  0.00  0.00    +0.000 A 
ATOM     18  C   UNL     1       0.856   2.887  19.594  0.00  0.00    +0.000 A 
ATOM     19  C   UNL     1       1.537   3.945  18.985  0.00  0.00    +0.000 A 
ENDBRANCH   3  14
BRANCH   6  20
ATOM     20  N   UNL     1       0.407   9.128  21.507  0.00  0.00    +0.000 N 
ATOM     21  O   UNL     1       0.828  10.062  22.203  0.00  0.00    +0.000 OA
ATOM     22  O   UNL     1      -0.617   8.475  21.744  0.00  0.00    +0.000 OA
ENDBRANCH   6  20
BRANCH   1  23
ATOM     23  C   UNL     1       6.581   5.991  17.668  0.00  0.00    +0.000 C 
BRANCH  23  24
ATOM     24  C   UNL     1       6.496   4.566  17.112  0.00  0.00    +0.000 C 
BRANCH  24  25
ATOM     25  C   UNL     1       6.900   4.519  15.660  0.00  0.00    +0.000 C 
ATOM     26  O   UNL     1       7.734   5.243  15.131  0.00  0.00    +0.000 OA
BRANCH  25  28
ATOM     27  C   UNL     1       6.059   3.790  13.608  0.00  0.00    +0.000 C 
ATOM     28  O   UNL     1       6.180   3.560  15.012  0.00  0.00    +0.000 OA
ENDBRANCH  25  28
ENDBRANCH  24  25
ENDBRANCH  23  24
ENDBRANCH   1  23
TORSDOF 6
ENDMDL
MODEL 5
REMARK VINA RESULT:      -8.6      3.145      5.415
REMARK  Name = 
REMARK  7 active torsions:
REMARK  status: ('A' for Active; 'I' for Inactive)
REMARK    1  A    between atoms: C_1  and  O_2
REMARK    2  A    between atoms: O_2  and  C_3
REMARK    3  A    between atoms: C_3  and  C_5
REMARK    4  A    between atoms: C_5  and  C_6
REMARK    5  A    between atoms: C_6  and  C_7
REMARK    6  A    between atoms: C_9  and  C_10
REMARK    7  A    between atoms: C_18  and  N_19
REMARK                            x       y       z     vdW  Elec       q    Type
REMARK                         _______ _______ _______ _____ _____    ______ ____
ROOT
ATOM      1  C   UNL     1       5.323   6.365  18.042  0.00  0.00    +0.000 C 
ATOM      2  N   UNL     1       4.466   5.380  18.699  0.00  0.00    +0.000 NA
ATOM      3  C   UNL     1       3.304   5.698  19.159  0.00  0.00    +0.000 C 
ATOM      4  C   UNL     1       2.710   7.071  19.086  0.00  0.00    +0.000 A 
ATOM      5  C   UNL     1       1.967   7.536  20.188  0.00  0.00    +0.000 A 
ATOM      6  C   UNL     1       1.281   8.754  20.113  0.00  0.00    +0.000 A 
ATOM      7  C   UNL     1       1.337   9.526  18.946  0.00  0.00    +0.000 A 
ATOM      8  C   UNL     1       2.082   9.072  17.859  0.00  0.00    +0.000 A 
ATOM      9  C   UNL     1       2.794   7.866  17.928  0.00  0.00    +0.000 A 
ATOM     10  N   UNL     1       3.536   7.537  16.787  0.00  0.00    +0.000 N 
ATOM     11  C   UNL     1       4.677   6.785  16.716  0.00  0.00    +0.000 C 
ATOM     12  O   UNL     1       5.172   6.586  15.609  0.00  0.00    +0.000 OA
ATOM     13  H   UNL     1       3.314   7.981  15.904  0.00  0.00    +0.000 HD
ENDROOT
BRANCH   3  14
ATOM     14  C   UNL     1       2.521   4.593  19.814  0.00  0.00    +0.000 A 
ATOM     15  C   UNL     1       2.907   4.163  21.092  0.00  0.00    +0.000 A 
ATOM     16  C   UNL     1       2.199   3.149  21.739  0.00  0.00    +0.000 A 
ATOM     17  C   UNL     1       1.101   2.559  21.116  0.00  0.00    +0.000 A 
ATOM     18  C   UNL     1       0.719   2.970  19.839  0.00  0.00    +0.000 A 
ATOM     19  C   UNL     1       1.435   3.974  19.182  0.00  0.00    +0.000 A 
ENDBRANCH   3  14
BRANCH   6  20
ATOM     20  N   UNL     1       0.475   9.213  21.249  0.00  0.00    +0.000 N 
ATOM     21  O   UNL     1       0.768  10.305  21.754  0.00  0.00    +0.000 OA
ATOM     22  O   UNL     1      -0.442   8.477  21.636  0.00  0.00    +0.000 OA
ENDBRANCH   6  20
BRANCH   1  23
ATOM     23  C   UNL     1       6.689   5.693  17.826  0.00  0.00    +0.000 C 
BRANCH  23  24
ATOM     24  C   UNL     1       7.840   6.400  18.549  0.00  0.00    +0.000 C 
BRANCH  24  25
ATOM     25  C   UNL     1       8.061   7.787  18.000  0.00  0.00    +0.000 C 
ATOM     26  O   UNL     1       7.804   8.149  16.859  0.00  0.00    +0.000 OA
BRANCH  25  28
ATOM     27  C   UNL     1       8.907   9.903  18.510  0.00  0.00    +0.000 C 
ATOM     28  O   UNL     1       8.615   8.579  18.961  0.00  0.00    +0.000 OA
ENDBRANCH  25  28
ENDBRANCH  24  25
ENDBRANCH  23  24
ENDBRANCH   1  23
TORSDOF 6
ENDMDL
MODEL 6
REMARK VINA RESULT:      -8.6      2.711      4.829
REMARK  Name = 
REMARK  7 active torsions:
REMARK  status: ('A' for Active; 'I' for Inactive)
REMARK    1  A    between atoms: C_1  and  O_2
REMARK    2  A    between atoms: O_2  and  C_3
REMARK    3  A    between atoms: C_3  and  C_5
REMARK    4  A    between atoms: C_5  and  C_6
REMARK    5  A    between atoms: C_6  and  C_7
REMARK    6  A    between atoms: C_9  and  C_10
REMARK    7  A    between atoms: C_18  and  N_19
REMARK                            x       y       z     vdW  Elec       q    Type
REMARK                         _______ _______ _______ _____ _____    ______ ____
ROOT
ATOM      1  C   UNL     1       5.219   6.652  18.030  0.00  0.00    +0.000 C 
ATOM      2  N   UNL     1       4.412   5.609  18.663  0.00  0.00    +0.000 NA
ATOM      3  C   UNL     1       3.252   5.866  19.164  0.00  0.00    +0.000 C 
ATOM      4  C   UNL     1       2.611   7.219  19.166  0.00  0.00    +0.000 A 
ATOM      5  C   UNL     1       1.880   7.609  20.305  0.00  0.00    +0.000 A 
ATOM      6  C   UNL     1       1.152   8.804  20.302  0.00  0.00    +0.000 A 
ATOM      7  C   UNL     1       1.152   9.629  19.170  0.00  0.00    +0.000 A 
ATOM      8  C   UNL     1       1.885   9.250  18.046  0.00  0.00    +0.000 A 
ATOM      9  C   UNL     1       2.639   8.067  18.044  0.00  0.00    +0.000 A 
ATOM     10  N   UNL     1       3.362   7.814  16.872  0.00  0.00    +0.000 N 
ATOM     11  C   UNL     1       4.525   7.106  16.741  0.00  0.00    +0.000 C 
ATOM     12  O   UNL     1       4.999   6.974  15.614  0.00  0.00    +0.000 OA
ATOM     13  H   UNL     1       3.103   8.289  16.016  0.00  0.00    +0.000 HD
ENDROOT
BRANCH   3  14
ATOM     14  C   UNL     1       2.524   4.706  19.787  0.00  0.00    +0.000 A 
ATOM     15  C   UNL     1       1.595   4.001  19.009  0.00  0.00    +0.000 A 
ATOM     16  C   UNL     1       0.907   2.911  19.545  0.00  0.00    +0.000 A 
ATOM     17  C   UNL     1       1.142   2.519  20.861  0.00  0.00    +0.000 A 
ATOM     18  C   UNL     1       2.053   3.223  21.647  0.00  0.00    +0.000 A 
ATOM     19  C   UNL     1       2.733   4.324  21.118  0.00  0.00    +0.000 A 
ENDBRANCH   3  14
BRANCH   6  20
ATOM     20  N   UNL     1       0.360   9.184  21.476  0.00  0.00    +0.000 N 
ATOM     21  O   UNL     1      -0.620   8.480  21.757  0.00  0.00    +0.000 OA
ATOM     22  O   UNL     1       0.715  10.186  22.110  0.00  0.00    +0.000 OA
ENDBRANCH   6  20
BRANCH   1  23
ATOM     23  C   UNL     1       6.601   6.038  17.752  0.00  0.00    +0.000 C 
BRANCH  23  24
ATOM     24  C   UNL     1       6.571   4.515  17.586  0.00  0.00    +0.000 C 
BRANCH  24  25
ATOM     25  C   UNL     1       6.557   4.124  16.130  0.00  0.00    +0.000 C 
ATOM     26  O   UNL     1       5.811   3.295  15.624  0.00  0.00    +0.000 OA
BRANCH  25  28
ATOM     27  C   UNL     1       7.275   4.917  14.054  0.00  0.00    +0.000 C 
ATOM     28  O   UNL     1       7.520   4.816  15.458  0.00  0.00    +0.000 OA
ENDBRANCH  25  28
ENDBRANCH  24  25
ENDBRANCH  23  24
ENDBRANCH   1  23
TORSDOF 6
ENDMDL
MODEL 7
REMARK VINA RESULT:      -8.5      0.422      1.369
REMARK  Name = 
REMARK  7 active torsions:
REMARK  status: ('A' for Active; 'I' for Inactive)
REMARK    1  A    between atoms: C_1  and  O_2
REMARK    2  A    between atoms: O_2  and  C_3
REMARK    3  A    between atoms: C_3  and  C_5
REMARK    4  A    between atoms: C_5  and  C_6
REMARK    5  A    between atoms: C_6  and  C_7
REMARK    6  A    between atoms: C_9  and  C_10
REMARK    7  A    between atoms: C_18  and  N_19
REMARK                            x       y       z     vdW  Elec       q    Type
REMARK                         _______ _______ _______ _____ _____    ______ ____
ROOT
ATOM      1  C   UNL     1       5.208   4.897  16.344  0.00  0.00    +0.000 C 
ATOM      2  N   UNL     1       4.383   5.979  16.880  0.00  0.00    +0.000 NA
ATOM      3  C   UNL     1       3.722   5.841  17.979  0.00  0.00    +0.000 C 
ATOM      4  C   UNL     1       3.712   4.597  18.812  0.00  0.00    +0.000 A 
ATOM      5  C   UNL     1       2.502   4.209  19.417  0.00  0.00    +0.000 A 
ATOM      6  C   UNL     1       2.473   3.133  20.312  0.00  0.00    +0.000 A 
ATOM      7  C   UNL     1       3.645   2.425  20.605  0.00  0.00    +0.000 A 
ATOM      8  C   UNL     1       4.842   2.801  19.996  0.00  0.00    +0.000 A 
ATOM      9  C   UNL     1       4.882   3.861  19.080  0.00  0.00    +0.000 A 
ATOM     10  N   UNL     1       6.133   4.118  18.507  0.00  0.00    +0.000 N 
ATOM     11  C   UNL     1       6.398   4.665  17.281  0.00  0.00    +0.000 C 
ATOM     12  O   UNL     1       7.574   4.834  16.964  0.00  0.00    +0.000 OA
ATOM     13  H   UNL     1       6.969   3.766  18.959  0.00  0.00    +0.000 HD
ENDROOT
BRANCH   3  14
ATOM     14  C   UNL     1       2.911   7.028  18.422  0.00  0.00    +0.000 A 
ATOM     15  C   UNL     1       2.667   8.056  17.500  0.00  0.00    +0.000 A 
ATOM     16  C   UNL     1       1.908   9.169  17.868  0.00  0.00    +0.000 A 
ATOM     17  C   UNL     1       1.389   9.262  19.157  0.00  0.00    +0.000 A 
ATOM     18  C   UNL     1       1.638   8.252  20.085  0.00  0.00    +0.000 A 
ATOM     19  C   UNL     1       2.410   7.143  19.725  0.00  0.00    +0.000 A 
ENDBRANCH   3  14
BRANCH   6  20
ATOM     20  N   UNL     1       1.216   2.760  20.971  0.00  0.00    +0.000 N 
ATOM     21  O   UNL     1       0.181   2.805  20.293  0.00  0.00    +0.000 OA
ATOM     22  O   UNL     1       1.269   2.431  22.163  0.00  0.00    +0.000 OA
ENDBRANCH   6  20
BRANCH   1  23
ATOM     23  C   UNL     1       5.658   5.334  14.941  0.00  0.00    +0.000 C 
BRANCH  23  24
ATOM     24  C   UNL     1       5.955   4.163  14.000  0.00  0.00    +0.000 C 
BRANCH  24  25
ATOM     25  C   UNL     1       7.057   4.506  13.029  0.00  0.00    +0.000 C 
ATOM     26  O   UNL     1       7.154   4.081  11.885  0.00  0.00    +0.000 OA
BRANCH  25  28
ATOM     27  C   UNL     1       8.772   6.055  12.695  0.00  0.00    +0.000 C 
ATOM     28  O   UNL     1       7.949   5.348  13.624  0.00  0.00    +0.000 OA
ENDBRANCH  25  28
ENDBRANCH  24  25
ENDBRANCH  23  24
ENDBRANCH   1  23
TORSDOF 6
ENDMDL
MODEL 8
REMARK VINA RESULT:      -8.4      0.650      1.018
REMARK  Name = 
REMARK  7 active torsions:
REMARK  status: ('A' for Active; 'I' for Inactive)
REMARK    1  A    between atoms: C_1  and  O_2
REMARK    2  A    between atoms: O_2  and  C_3
REMARK    3  A    between atoms: C_3  and  C_5
REMARK    4  A    between atoms: C_5  and  C_6
REMARK    5  A    between atoms: C_6  and  C_7
REMARK    6  A    between atoms: C_9  and  C_10
REMARK    7  A    between atoms: C_18  and  N_19
REMARK                            x       y       z     vdW  Elec       q    Type
REMARK                         _______ _______ _______ _____ _____    ______ ____
ROOT
ATOM      1  C   UNL     1       5.318   4.828  16.304  0.00  0.00    +0.000 C 
ATOM      2  N   UNL     1       4.484   5.922  16.804  0.00  0.00    +0.000 NA
ATOM      3  C   UNL     1       3.795   5.803  17.886  0.00  0.00    +0.000 C 
ATOM      4  C   UNL     1       3.758   4.571  18.737  0.00  0.00    +0.000 A 
ATOM      5  C   UNL     1       2.531   4.197  19.317  0.00  0.00    +0.000 A 
ATOM      6  C   UNL     1       2.475   3.134  20.226  0.00  0.00    +0.000 A 
ATOM      7  C   UNL     1       3.635   2.427  20.559  0.00  0.00    +0.000 A 
ATOM      8  C   UNL     1       4.849   2.788  19.976  0.00  0.00    +0.000 A 
ATOM      9  C   UNL     1       4.917   3.835  19.046  0.00  0.00    +0.000 A 
ATOM     10  N   UNL     1       6.184   4.078  18.502  0.00  0.00    +0.000 N 
ATOM     11  C   UNL     1       6.483   4.606  17.276  0.00  0.00    +0.000 C 
ATOM     12  O   UNL     1       7.667   4.766  16.986  0.00  0.00    +0.000 OA
ATOM     13  H   UNL     1       7.006   3.730  18.980  0.00  0.00    +0.000 HD
ENDROOT
BRANCH   3  14
ATOM     14  C   UNL     1       2.978   7.000  18.291  0.00  0.00    +0.000 A 
ATOM     15  C   UNL     1       2.437   7.037  19.584  0.00  0.00    +0.000 A 
ATOM     16  C   UNL     1       1.683   8.135  20.003  0.00  0.00    +0.000 A 
ATOM     17  C   UNL     1       1.466   9.202  19.134  0.00  0.00    +0.000 A 
ATOM     18  C   UNL     1       1.988   9.168  17.842  0.00  0.00    +0.000 A 
ATOM     19  C   UNL     1       2.730   8.063  17.413  0.00  0.00    +0.000 A 
ENDBRANCH   3  14
BRANCH   6  20
ATOM     20  N   UNL     1       1.200   2.777  20.858  0.00  0.00    +0.000 N 
ATOM     21  O   UNL     1       1.216   2.511  22.067  0.00  0.00    +0.000 OA
ATOM     22  O   UNL     1       0.190   2.756  20.142  0.00  0.00    +0.000 OA
ENDBRANCH   6  20
BRANCH   1  23
ATOM     23  C   UNL     1       5.806   5.244  14.907  0.00  0.00    +0.000 C 
BRANCH  23  24
ATOM     24  C   UNL     1       6.763   4.232  14.268  0.00  0.00    +0.000 C 
BRANCH  24  25
ATOM     25  C   UNL     1       6.311   3.854  12.880  0.00  0.00    +0.000 C 
ATOM     26  O   UNL     1       7.012   3.867  11.876  0.00  0.00    +0.000 OA
BRANCH  25  28
ATOM     27  C   UNL     1       4.403   3.426  11.604  0.00  0.00    +0.000 C 
ATOM     28  O   UNL     1       4.991   3.513  12.902  0.00  0.00    +0.000 OA
ENDBRANCH  25  28
ENDBRANCH  24  25
ENDBRANCH  23  24
ENDBRANCH   1  23
TORSDOF 6
ENDMDL
MODEL 9
REMARK VINA RESULT:      -8.4      0.420      1.148
REMARK  Name = 
REMARK  7 active torsions:
REMARK  status: ('A' for Active; 'I' for Inactive)
REMARK    1  A    between atoms: C_1  and  O_2
REMARK    2  A    between atoms: O_2  and  C_3
REMARK    3  A    between atoms: C_3  and  C_5
REMARK    4  A    between atoms: C_5  and  C_6
REMARK    5  A    between atoms: C_6  and  C_7
REMARK    6  A    between atoms: C_9  and  C_10
REMARK    7  A    between atoms: C_18  and  N_19
REMARK                            x       y       z     vdW  Elec       q    Type
REMARK                         _______ _______ _______ _____ _____    ______ ____
ROOT
ATOM      1  C   UNL     1       5.186   4.901  16.343  0.00  0.00    +0.000 C 
ATOM      2  N   UNL     1       4.359   5.981  16.881  0.00  0.00    +0.000 NA
ATOM      3  C   UNL     1       3.702   5.841  17.981  0.00  0.00    +0.000 C 
ATOM      4  C   UNL     1       3.700   4.598  18.816  0.00  0.00    +0.000 A 
ATOM      5  C   UNL     1       2.493   4.206  19.425  0.00  0.00    +0.000 A 
ATOM      6  C   UNL     1       2.471   3.131  20.321  0.00  0.00    +0.000 A 
ATOM      7  C   UNL     1       3.647   2.428  20.611  0.00  0.00    +0.000 A 
ATOM      8  C   UNL     1       4.840   2.808  19.998  0.00  0.00    +0.000 A 
ATOM      9  C   UNL     1       4.873   3.867  19.080  0.00  0.00    +0.000 A 
ATOM     10  N   UNL     1       6.121   4.128  18.504  0.00  0.00    +0.000 N 
ATOM     11  C   UNL     1       6.381   4.676  17.277  0.00  0.00    +0.000 C 
ATOM     12  O   UNL     1       7.555   4.849  16.956  0.00  0.00    +0.000 OA
ATOM     13  H   UNL     1       6.960   3.780  18.953  0.00  0.00    +0.000 HD
ENDROOT
BRANCH   3  14
ATOM     14  C   UNL     1       2.888   7.026  18.426  0.00  0.00    +0.000 A 
ATOM     15  C   UNL     1       2.407   7.053  19.742  0.00  0.00    +0.000 A 
ATOM     16  C   UNL     1       1.658   8.140  20.198  0.00  0.00    +0.000 A 
ATOM     17  C   UNL     1       1.386   9.205  19.342  0.00  0.00    +0.000 A 
ATOM     18  C   UNL     1       1.847   9.180  18.027  0.00  0.00    +0.000 A 
ATOM     19  C   UNL     1       2.584   8.087  17.563  0.00  0.00    +0.000 A 
ENDBRANCH   3  14
BRANCH   6  20
ATOM     20  N   UNL     1       1.218   2.754  20.984  0.00  0.00    +0.000 N 
ATOM     21  O   UNL     1       1.281   2.415  22.174  0.00  0.00    +0.000 OA
ATOM     22  O   UNL     1       0.179   2.792  20.313  0.00  0.00    +0.000 OA
ENDBRANCH   6  20
BRANCH   1  23
ATOM     23  C   UNL     1       5.631   5.339  14.938  0.00  0.00    +0.000 C 
BRANCH  23  24
ATOM     24  C   UNL     1       5.747   4.180  13.943  0.00  0.00    +0.000 C 
BRANCH  24  25
ATOM     25  C   UNL     1       6.899   4.388  12.993  0.00  0.00    +0.000 C 
ATOM     26  O   UNL     1       7.083   3.768  11.953  0.00  0.00    +0.000 OA
BRANCH  25  28
ATOM     27  C   UNL     1       8.551   5.954  12.473  0.00  0.00    +0.000 C 
ATOM     28  O   UNL     1       7.724   5.360  13.475  0.00  0.00    +0.000 OA
ENDBRANCH  25  28
ENDBRANCH  24  25
ENDBRANCH  23  24
ENDBRANCH   1  23
TORSDOF 6
ENDMDL
