MODEL 1
REMARK VINA RESULT:      -7.2      0.000      0.000
REMARK  Name = 
REMARK  6 active torsions:
REMARK  status: ('A' for Active; 'I' for Inactive)
REMARK    1  A    between atoms: C_1  and  C_2
REMARK    2  A    between atoms: C_2  and  C_3
REMARK    3  A    between atoms: C_13  and  N_14
REMARK    4  A    between atoms: C_15  and  C_17
REMARK    5  A    between atoms: C_23  and  C_24
REMARK    6  A    between atoms: C_27  and  N_28
REMARK                            x       y       z     vdW  Elec       q    Type
REMARK                         _______ _______ _______ _____ _____    ______ ____
ROOT
ATOM      1  C   UNL     1      -3.179  15.648  25.378  0.00  0.00    +0.000 C 
ATOM      2  C   UNL     1      -3.798  15.444  23.979  0.00  0.00    +0.000 C 
ATOM      3  C   UNL     1      -5.236  15.986  24.003  0.00  0.00    +0.000 C 
ATOM      4  C   UNL     1      -2.983  16.210  22.929  0.00  0.00    +0.000 C 
ATOM      5  C   UNL     1      -1.589  15.635  22.808  0.00  0.00    +0.000 C 
ATOM      6  O   UNL     1      -0.604  16.365  22.749  0.00  0.00    +0.000 OA
ATOM      7  C   UNL     1      -1.452  14.149  22.731  0.00  0.00    +0.000 C 
ATOM      8  C   UNL     1      -2.487  13.405  23.155  0.00  0.00    +0.000 C 
ATOM      9  C   UNL     1      -3.818  13.946  23.610  0.00  0.00    +0.000 C 
ATOM     10  O   UNL     1      -2.379  12.003  23.311  0.00  0.00    +0.000 OA
ATOM     11  C   UNL     1      -1.237  11.334  22.953  0.00  0.00    +0.000 C 
ATOM     12  O   UNL     1      -1.000  10.211  23.385  0.00  0.00    +0.000 OA
ATOM     13  C   UNL     1      -0.413  12.024  21.873  0.00  0.00    +0.000 C 
ATOM     14  C   UNL     1      -0.170  13.512  22.240  0.00  0.00    +0.000 C 
ENDROOT
BRANCH  14  15
ATOM     15  C   UNL     1       0.511  14.216  21.056  0.00  0.00    +0.000 A 
ATOM     16  C   UNL     1      -0.196  14.577  19.892  0.00  0.00    +0.000 A 
ATOM     17  C   UNL     1       0.442  15.219  18.833  0.00  0.00    +0.000 A 
ATOM     18  C   UNL     1       1.809  15.486  18.912  0.00  0.00    +0.000 A 
ATOM     19  C   UNL     1       2.542  15.116  20.050  0.00  0.00    +0.000 A 
ATOM     20  C   UNL     1       1.889  14.484  21.114  0.00  0.00    +0.000 A 
BRANCH  18  21
ATOM     21  N   UNL     1       2.484  16.151  17.792  0.00  0.00    +0.000 N 
ATOM     22  O   UNL     1       3.319  15.493  17.152  0.00  0.00    +0.000 OA
ATOM     23  O   UNL     1       2.186  17.329  17.552  0.00  0.00    +0.000 OA
ENDBRANCH  18  21
ENDBRANCH  14  15
BRANCH  13  24
ATOM     24  N   UNL     1      -1.129  11.858  20.597  0.00  0.00    +0.000 N 
ATOM     25  C   UNL     1      -0.944  10.774  19.768  0.00  0.00    +0.000 C 
ATOM     26  O   UNL     1      -0.172   9.856  19.999  0.00  0.00    +0.000 OA
ATOM     27  H   UNL     1      -1.953  12.421  20.448  0.00  0.00    +0.000 HD
BRANCH  25  28
ATOM     28  C   UNL     1      -1.803  10.782  18.551  0.00  0.00    +0.000 A 
ATOM     29  C   UNL     1      -1.469   9.992  17.442  0.00  0.00    +0.000 A 
ATOM     30  C   UNL     1      -2.235  10.059  16.278  0.00  0.00    +0.000 A 
ATOM     31  C   UNL     1      -3.346  10.898  16.228  0.00  0.00    +0.000 A 
ATOM     32  C   UNL     1      -3.704  11.656  17.344  0.00  0.00    +0.000 A 
ATOM     33  C   UNL     1      -2.937  11.596  18.512  0.00  0.00    +0.000 A 
ENDBRANCH  25  28
ENDBRANCH  13  24
TORSDOF 4
ENDMDL
MODEL 2
REMARK VINA RESULT:      -7.0      0.218      1.230
REMARK  Name = 
REMARK  6 active torsions:
REMARK  status: ('A' for Active; 'I' for Inactive)
REMARK    1  A    between atoms: C_1  and  C_2
REMARK    2  A    between atoms: C_2  and  C_3
REMARK    3  A    between atoms: C_13  and  N_14
REMARK    4  A    between atoms: C_15  and  C_17
REMARK    5  A    between atoms: C_23  and  C_24
REMARK    6  A    between atoms: C_27  and  N_28
REMARK                            x       y       z     vdW  Elec       q    Type
REMARK                         _______ _______ _______ _____ _____    ______ ____
ROOT
ATOM      1  C   UNL     1      -3.344  15.338  25.415  0.00  0.00    +0.000 C 
ATOM      2  C   UNL     1      -3.932  15.183  23.996  0.00  0.00    +0.000 C 
ATOM      3  C   UNL     1      -5.374  15.716  24.010  0.00  0.00    +0.000 C 
ATOM      4  C   UNL     1      -3.100  15.994  22.994  0.00  0.00    +0.000 C 
ATOM      5  C   UNL     1      -1.700  15.431  22.881  0.00  0.00    +0.000 C 
ATOM      6  O   UNL     1      -0.718  16.169  22.872  0.00  0.00    +0.000 OA
ATOM      7  C   UNL     1      -1.551  13.950  22.751  0.00  0.00    +0.000 C 
ATOM      8  C   UNL     1      -2.590  13.185  23.125  0.00  0.00    +0.000 C 
ATOM      9  C   UNL     1      -3.934  13.701  23.571  0.00  0.00    +0.000 C 
ATOM     10  O   UNL     1      -2.476  11.779  23.230  0.00  0.00    +0.000 OA
ATOM     11  C   UNL     1      -1.323  11.130  22.872  0.00  0.00    +0.000 C 
ATOM     12  O   UNL     1      -1.088   9.993  23.266  0.00  0.00    +0.000 OA
ATOM     13  C   UNL     1      -0.480  11.865  21.837  0.00  0.00    +0.000 C 
ATOM     14  C   UNL     1      -0.255  13.339  22.265  0.00  0.00    +0.000 C 
ENDROOT
BRANCH  14  15
ATOM     15  C   UNL     1       0.447  14.091  21.124  0.00  0.00    +0.000 A 
ATOM     16  C   UNL     1       1.816  14.418  21.175  0.00  0.00    +0.000 A 
ATOM     17  C   UNL     1       2.434  15.098  20.126  0.00  0.00    +0.000 A 
ATOM     18  C   UNL     1       1.679  15.485  19.018  0.00  0.00    +0.000 A 
ATOM     19  C   UNL     1       0.309  15.193  18.953  0.00  0.00    +0.000 A 
ATOM     20  C   UNL     1      -0.298  14.499  20.005  0.00  0.00    +0.000 A 
BRANCH  18  21
ATOM     21  N   UNL     1       2.326  16.211  17.920  0.00  0.00    +0.000 N 
ATOM     22  O   UNL     1       3.315  15.685  17.387  0.00  0.00    +0.000 OA
ATOM     23  O   UNL     1       1.853  17.308  17.591  0.00  0.00    +0.000 OA
ENDBRANCH  18  21
ENDBRANCH  14  15
BRANCH  13  24
ATOM     24  N   UNL     1      -1.167  11.743  20.541  0.00  0.00    +0.000 N 
ATOM     25  C   UNL     1      -0.995  10.668  19.697  0.00  0.00    +0.000 C 
ATOM     26  O   UNL     1      -0.259   9.722  19.932  0.00  0.00    +0.000 OA
ATOM     27  H   UNL     1      -1.970  12.335  20.381  0.00  0.00    +0.000 HD
BRANCH  25  28
ATOM     28  C   UNL     1      -1.821  10.724  18.460  0.00  0.00    +0.000 A 
ATOM     29  C   UNL     1      -2.952  11.551  18.398  0.00  0.00    +0.000 A 
ATOM     30  C   UNL     1      -3.764  11.544  17.264  0.00  0.00    +0.000 A 
ATOM     31  C   UNL     1      -3.437  10.729  16.183  0.00  0.00    +0.000 A 
ATOM     32  C   UNL     1      -2.290   9.934  16.225  0.00  0.00    +0.000 A 
ATOM     33  C   UNL     1      -1.475   9.934  17.362  0.00  0.00    +0.000 A 
ENDBRANCH  25  28
ENDBRANCH  13  24
TORSDOF 4
ENDMDL
MODEL 3
REMARK VINA RESULT:      -6.8      2.971      5.513
REMARK  Name = 
REMARK  6 active torsions:
REMARK  status: ('A' for Active; 'I' for Inactive)
REMARK    1  A    between atoms: C_1  and  C_2
REMARK    2  A    between atoms: C_2  and  C_3
REMARK    3  A    between atoms: C_13  and  N_14
REMARK    4  A    between atoms: C_15  and  C_17
REMARK    5  A    between atoms: C_23  and  C_24
REMARK    6  A    between atoms: C_27  and  N_28
REMARK                            x       y       z     vdW  Elec       q    Type
REMARK                         _______ _______ _______ _____ _____    ______ ____
ROOT
ATOM      1  C   UNL     1       2.216  16.560  20.641  0.00  0.00    +0.000 C 
ATOM      2  C   UNL     1       1.939  15.853  19.297  0.00  0.00    +0.000 C 
ATOM      3  C   UNL     1       2.566  16.692  18.172  0.00  0.00    +0.000 C 
ATOM      4  C   UNL     1       2.571  14.454  19.301  0.00  0.00    +0.000 C 
ATOM      5  C   UNL     1       1.906  13.569  20.332  0.00  0.00    +0.000 C 
ATOM      6  O   UNL     1       2.570  12.853  21.077  0.00  0.00    +0.000 OA
ATOM      7  C   UNL     1       0.414  13.571  20.396  0.00  0.00    +0.000 C 
ATOM      8  C   UNL     1      -0.232  14.607  19.835  0.00  0.00    +0.000 C 
ATOM      9  C   UNL     1       0.421  15.721  19.057  0.00  0.00    +0.000 C 
ATOM     10  O   UNL     1      -1.621  14.803  20.017  0.00  0.00    +0.000 OA
ATOM     11  C   UNL     1      -2.383  13.894  20.704  0.00  0.00    +0.000 C 
ATOM     12  O   UNL     1      -3.480  14.201  21.156  0.00  0.00    +0.000 OA
ATOM     13  C   UNL     1      -1.830  12.474  20.697  0.00  0.00    +0.000 C 
ATOM     14  C   UNL     1      -0.335  12.469  21.112  0.00  0.00    +0.000 C 
ENDROOT
BRANCH  14  15
ATOM     15  C   UNL     1       0.232  11.053  20.929  0.00  0.00    +0.000 A 
ATOM     16  C   UNL     1       0.459  10.192  22.021  0.00  0.00    +0.000 A 
ATOM     17  C   UNL     1       0.971   8.909  21.831  0.00  0.00    +0.000 A 
ATOM     18  C   UNL     1       1.289   8.478  20.543  0.00  0.00    +0.000 A 
ATOM     19  C   UNL     1       1.094   9.325  19.441  0.00  0.00    +0.000 A 
ATOM     20  C   UNL     1       0.568  10.605  19.641  0.00  0.00    +0.000 A 
BRANCH  18  21
ATOM     21  N   UNL     1       1.839   7.133  20.345  0.00  0.00    +0.000 N 
ATOM     22  O   UNL     1       2.727   6.995  19.490  0.00  0.00    +0.000 OA
ATOM     23  O   UNL     1       1.382   6.211  21.036  0.00  0.00    +0.000 OA
ENDBRANCH  18  21
ENDBRANCH  14  15
BRANCH  13  24
ATOM     24  N   UNL     1      -2.054  11.919  19.352  0.00  0.00    +0.000 N 
ATOM     25  C   UNL     1      -3.300  11.572  18.880  0.00  0.00    +0.000 C 
ATOM     26  O   UNL     1      -4.333  11.681  19.523  0.00  0.00    +0.000 OA
ATOM     27  H   UNL     1      -1.314  12.029  18.674  0.00  0.00    +0.000 HD
BRANCH  25  28
ATOM     28  C   UNL     1      -3.305  11.074  17.476  0.00  0.00    +0.000 A 
ATOM     29  C   UNL     1      -2.380  10.103  17.064  0.00  0.00    +0.000 A 
ATOM     30  C   UNL     1      -2.340   9.695  15.732  0.00  0.00    +0.000 A 
ATOM     31  C   UNL     1      -3.236  10.239  14.814  0.00  0.00    +0.000 A 
ATOM     32  C   UNL     1      -4.184  11.176  15.229  0.00  0.00    +0.000 A 
ATOM     33  C   UNL     1      -4.225  11.593  16.563  0.00  0.00    +0.000 A 
ENDBRANCH  25  28
ENDBRANCH  13  24
TORSDOF 4
ENDMDL
MODEL 4
REMARK VINA RESULT:      -6.8      2.991      5.522
REMARK  Name = 
REMARK  6 active torsions:
REMARK  status: ('A' for Active; 'I' for Inactive)
REMARK    1  A    between atoms: C_1  and  C_2
REMARK    2  A    between atoms: C_2  and  C_3
REMARK    3  A    between atoms: C_13  and  N_14
REMARK    4  A    between atoms: C_15  and  C_17
REMARK    5  A    between atoms: C_23  and  C_24
REMARK    6  A    between atoms: C_27  and  N_28
REMARK                            x       y       z     vdW  Elec       q    Type
REMARK                         _______ _______ _______ _____ _____    ______ ____
ROOT
ATOM      1  C   UNL     1       2.127  16.536  20.779  0.00  0.00    +0.000 C 
ATOM      2  C   UNL     1       1.877  15.874  19.407  0.00  0.00    +0.000 C 
ATOM      3  C   UNL     1       2.495  16.768  18.320  0.00  0.00    +0.000 C 
ATOM      4  C   UNL     1       2.541  14.491  19.365  0.00  0.00    +0.000 C 
ATOM      5  C   UNL     1       1.887  13.553  20.357  0.00  0.00    +0.000 C 
ATOM      6  O   UNL     1       2.561  12.824  21.080  0.00  0.00    +0.000 OA
ATOM      7  C   UNL     1       0.394  13.520  20.407  0.00  0.00    +0.000 C 
ATOM      8  C   UNL     1      -0.270  14.562  19.879  0.00  0.00    +0.000 C 
ATOM      9  C   UNL     1       0.365  15.718  19.149  0.00  0.00    +0.000 C 
ATOM     10  O   UNL     1      -1.664  14.720  20.056  0.00  0.00    +0.000 OA
ATOM     11  C   UNL     1      -2.412  13.768  20.701  0.00  0.00    +0.000 C 
ATOM     12  O   UNL     1      -3.519  14.034  21.154  0.00  0.00    +0.000 OA
ATOM     13  C   UNL     1      -1.827  12.362  20.646  0.00  0.00    +0.000 C 
ATOM     14  C   UNL     1      -0.335  12.375  21.074  0.00  0.00    +0.000 C 
ENDROOT
BRANCH  14  15
ATOM     15  C   UNL     1       0.265  10.980  20.844  0.00  0.00    +0.000 A 
ATOM     16  C   UNL     1       0.666  10.539  19.568  0.00  0.00    +0.000 A 
ATOM     17  C   UNL     1       1.212   9.270  19.383  0.00  0.00    +0.000 A 
ATOM     18  C   UNL     1       1.341   8.410  20.475  0.00  0.00    +0.000 A 
ATOM     19  C   UNL     1       0.927   8.815  21.753  0.00  0.00    +0.000 A 
ATOM     20  C   UNL     1       0.392  10.096  21.929  0.00  0.00    +0.000 A 
BRANCH  18  21
ATOM     21  N   UNL     1       1.904   7.070  20.278  0.00  0.00    +0.000 N 
ATOM     22  O   UNL     1       2.716   6.918  19.353  0.00  0.00    +0.000 OA
ATOM     23  O   UNL     1       1.533   6.167  21.042  0.00  0.00    +0.000 OA
ENDBRANCH  18  21
ENDBRANCH  14  15
BRANCH  13  24
ATOM     24  N   UNL     1      -2.027  11.853  19.280  0.00  0.00    +0.000 N 
ATOM     25  C   UNL     1      -3.261  11.499  18.783  0.00  0.00    +0.000 C 
ATOM     26  O   UNL     1      -4.302  11.563  19.419  0.00  0.00    +0.000 OA
ATOM     27  H   UNL     1      -1.283  12.004  18.613  0.00  0.00    +0.000 HD
BRANCH  25  28
ATOM     28  C   UNL     1      -3.243  11.054  17.362  0.00  0.00    +0.000 A 
ATOM     29  C   UNL     1      -4.206  11.525  16.458  0.00  0.00    +0.000 A 
ATOM     30  C   UNL     1      -4.230  11.049  15.148  0.00  0.00    +0.000 A 
ATOM     31  C   UNL     1      -3.280  10.119  14.732  0.00  0.00    +0.000 A 
ATOM     32  C   UNL     1      -2.296   9.677  15.618  0.00  0.00    +0.000 A 
ATOM     33  C   UNL     1      -2.270  10.148  16.934  0.00  0.00    +0.000 A 
ENDBRANCH  25  28
ENDBRANCH  13  24
TORSDOF 4
ENDMDL
MODEL 5
REMARK VINA RESULT:      -6.7      2.951      5.533
REMARK  Name = 
REMARK  6 active torsions:
REMARK  status: ('A' for Active; 'I' for Inactive)
REMARK    1  A    between atoms: C_1  and  C_2
REMARK    2  A    between atoms: C_2  and  C_3
REMARK    3  A    between atoms: C_13  and  N_14
REMARK    4  A    between atoms: C_15  and  C_17
REMARK    5  A    between atoms: C_23  and  C_24
REMARK    6  A    between atoms: C_27  and  N_28
REMARK                            x       y       z     vdW  Elec       q    Type
REMARK                         _______ _______ _______ _____ _____    ______ ____
ROOT
ATOM      1  C   UNL     1       2.388  16.534  20.563  0.00  0.00    +0.000 C 
ATOM      2  C   UNL     1       2.053  15.843  19.224  0.00  0.00    +0.000 C 
ATOM      3  C   UNL     1       2.642  16.688  18.083  0.00  0.00    +0.000 C 
ATOM      4  C   UNL     1       2.672  14.440  19.189  0.00  0.00    +0.000 C 
ATOM      5  C   UNL     1       2.041  13.549  20.237  0.00  0.00    +0.000 C 
ATOM      6  O   UNL     1       2.728  12.820  20.947  0.00  0.00    +0.000 OA
ATOM      7  C   UNL     1       0.552  13.563  20.359  0.00  0.00    +0.000 C 
ATOM      8  C   UNL     1      -0.106  14.610  19.835  0.00  0.00    +0.000 C 
ATOM      9  C   UNL     1       0.525  15.726  19.043  0.00  0.00    +0.000 C 
ATOM     10  O   UNL     1      -1.485  14.815  20.074  0.00  0.00    +0.000 OA
ATOM     11  C   UNL     1      -2.227  13.905  20.781  0.00  0.00    +0.000 C 
ATOM     12  O   UNL     1      -3.303  14.216  21.279  0.00  0.00    +0.000 OA
ATOM     13  C   UNL     1      -1.687  12.480  20.738  0.00  0.00    +0.000 C 
ATOM     14  C   UNL     1      -0.177  12.459  21.094  0.00  0.00    +0.000 C 
ENDROOT
BRANCH  14  15
ATOM     15  C   UNL     1       0.370  11.041  20.875  0.00  0.00    +0.000 A 
ATOM     16  C   UNL     1       0.722  10.563  19.597  0.00  0.00    +0.000 A 
ATOM     17  C   UNL     1       1.221   9.274  19.422  0.00  0.00    +0.000 A 
ATOM     18  C   UNL     1       1.350   8.430  20.526  0.00  0.00    +0.000 A 
ATOM     19  C   UNL     1       0.985   8.873  21.807  0.00  0.00    +0.000 A 
ATOM     20  C   UNL     1       0.498  10.173  21.973  0.00  0.00    +0.000 A 
BRANCH  18  21
ATOM     21  N   UNL     1       1.864   7.069  20.341  0.00  0.00    +0.000 N 
ATOM     22  O   UNL     1       1.433   6.184  21.097  0.00  0.00    +0.000 OA
ATOM     23  O   UNL     1       2.700   6.881  19.446  0.00  0.00    +0.000 OA
ENDBRANCH  18  21
ENDBRANCH  14  15
BRANCH  13  24
ATOM     24  N   UNL     1      -1.968  11.941  19.398  0.00  0.00    +0.000 N 
ATOM     25  C   UNL     1      -3.241  11.667  18.950  0.00  0.00    +0.000 C 
ATOM     26  O   UNL     1      -4.253  11.834  19.613  0.00  0.00    +0.000 OA
ATOM     27  H   UNL     1      -1.237  12.010  18.705  0.00  0.00    +0.000 HD
BRANCH  25  28
ATOM     28  C   UNL     1      -3.302  11.173  17.547  0.00  0.00    +0.000 A 
ATOM     29  C   UNL     1      -2.334  10.278  17.067  0.00  0.00    +0.000 A 
ATOM     30  C   UNL     1      -2.353   9.875  15.732  0.00  0.00    +0.000 A 
ATOM     31  C   UNL     1      -3.348  10.348  14.880  0.00  0.00    +0.000 A 
ATOM     32  C   UNL     1      -4.336  11.208  15.364  0.00  0.00    +0.000 A 
ATOM     33  C   UNL     1      -4.320  11.618  16.701  0.00  0.00    +0.000 A 
ENDBRANCH  25  28
ENDBRANCH  13  24
TORSDOF 4
ENDMDL
MODEL 6
REMARK VINA RESULT:      -6.6      2.611      5.434
REMARK  Name = 
REMARK  6 active torsions:
REMARK  status: ('A' for Active; 'I' for Inactive)
REMARK    1  A    between atoms: C_1  and  C_2
REMARK    2  A    between atoms: C_2  and  C_3
REMARK    3  A    between atoms: C_13  and  N_14
REMARK    4  A    between atoms: C_15  and  C_17
REMARK    5  A    between atoms: C_23  and  C_24
REMARK    6  A    between atoms: C_27  and  N_28
REMARK                            x       y       z     vdW  Elec       q    Type
REMARK                         _______ _______ _______ _____ _____    ______ ____
ROOT
ATOM      1  C   UNL     1       0.845  18.284  19.631  0.00  0.00    +0.000 C 
ATOM      2  C   UNL     1      -0.021  17.443  18.670  0.00  0.00    +0.000 C 
ATOM      3  C   UNL     1       0.087  18.053  17.263  0.00  0.00    +0.000 C 
ATOM      4  C   UNL     1       0.487  15.996  18.637  0.00  0.00    +0.000 C 
ATOM      5  C   UNL     1       0.302  15.332  19.985  0.00  0.00    +0.000 C 
ATOM      6  O   UNL     1       1.192  14.650  20.484  0.00  0.00    +0.000 OA
ATOM      7  C   UNL     1      -1.011  15.509  20.675  0.00  0.00    +0.000 C 
ATOM      8  C   UNL     1      -1.791  16.529  20.278  0.00  0.00    +0.000 C 
ATOM      9  C   UNL     1      -1.495  17.451  19.124  0.00  0.00    +0.000 C 
ATOM     10  O   UNL     1      -2.951  16.900  20.998  0.00  0.00    +0.000 OA
ATOM     11  C   UNL     1      -3.375  16.178  22.084  0.00  0.00    +0.000 C 
ATOM     12  O   UNL     1      -4.149  16.662  22.901  0.00  0.00    +0.000 OA
ATOM     13  C   UNL     1      -2.943  14.717  22.079  0.00  0.00    +0.000 C 
ATOM     14  C   UNL     1      -1.419  14.600  21.813  0.00  0.00    +0.000 C 
ENDROOT
BRANCH  14  15
ATOM     15  C   UNL     1      -1.051  13.118  21.645  0.00  0.00    +0.000 A 
ATOM     16  C   UNL     1      -0.893  12.526  20.377  0.00  0.00    +0.000 A 
ATOM     17  C   UNL     1      -0.555  11.180  20.248  0.00  0.00    +0.000 A 
ATOM     18  C   UNL     1      -0.395  10.397  21.392  0.00  0.00    +0.000 A 
ATOM     19  C   UNL     1      -0.569  10.957  22.667  0.00  0.00    +0.000 A 
ATOM     20  C   UNL     1      -0.895  12.312  22.786  0.00  0.00    +0.000 A 
BRANCH  18  21
ATOM     21  N   UNL     1      -0.051   8.978  21.257  0.00  0.00    +0.000 N 
ATOM     22  O   UNL     1       0.984   8.695  20.634  0.00  0.00    +0.000 OA
ATOM     23  O   UNL     1      -0.814   8.145  21.765  0.00  0.00    +0.000 OA
ENDBRANCH  18  21
ENDBRANCH  14  15
BRANCH  13  24
ATOM     24  N   UNL     1      -3.756  14.020  21.069  0.00  0.00    +0.000 N 
ATOM     25  C   UNL     1      -4.503  12.898  21.350  0.00  0.00    +0.000 C 
ATOM     26  O   UNL     1      -4.562  12.370  22.450  0.00  0.00    +0.000 OA
ATOM     27  H   UNL     1      -3.968  14.517  20.217  0.00  0.00    +0.000 HD
BRANCH  25  28
ATOM     28  C   UNL     1      -5.287  12.380  20.195  0.00  0.00    +0.000 A 
ATOM     29  C   UNL     1      -4.647  12.062  18.988  0.00  0.00    +0.000 A 
ATOM     30  C   UNL     1      -5.394  11.649  17.886  0.00  0.00    +0.000 A 
ATOM     31  C   UNL     1      -6.778  11.531  17.992  0.00  0.00    +0.000 A 
ATOM     32  C   UNL     1      -7.415  11.809  19.203  0.00  0.00    +0.000 A 
ATOM     33  C   UNL     1      -6.670  12.229  20.310  0.00  0.00    +0.000 A 
ENDBRANCH  25  28
ENDBRANCH  13  24
TORSDOF 4
ENDMDL
MODEL 7
REMARK VINA RESULT:      -6.5      3.018      4.282
REMARK  Name = 
REMARK  6 active torsions:
REMARK  status: ('A' for Active; 'I' for Inactive)
REMARK    1  A    between atoms: C_1  and  C_2
REMARK    2  A    between atoms: C_2  and  C_3
REMARK    3  A    between atoms: C_13  and  N_14
REMARK    4  A    between atoms: C_15  and  C_17
REMARK    5  A    between atoms: C_23  and  C_24
REMARK    6  A    between atoms: C_27  and  N_28
REMARK                            x       y       z     vdW  Elec       q    Type
REMARK                         _______ _______ _______ _____ _____    ______ ____
ROOT
ATOM      1  C   UNL     1      -1.854  16.741  25.817  0.00  0.00    +0.000 C 
ATOM      2  C   UNL     1      -2.327  17.098  24.392  0.00  0.00    +0.000 C 
ATOM      3  C   UNL     1      -2.345  18.630  24.259  0.00  0.00    +0.000 C 
ATOM      4  C   UNL     1      -1.361  16.509  23.356  0.00  0.00    +0.000 C 
ATOM      5  C   UNL     1      -1.394  14.996  23.392  0.00  0.00    +0.000 C 
ATOM      6  O   UNL     1      -0.358  14.338  23.359  0.00  0.00    +0.000 OA
ATOM      7  C   UNL     1      -2.729  14.328  23.440  0.00  0.00    +0.000 C 
ATOM      8  C   UNL     1      -3.781  15.066  23.834  0.00  0.00    +0.000 C 
ATOM      9  C   UNL     1      -3.743  16.542  24.138  0.00  0.00    +0.000 C 
ATOM     10  O   UNL     1      -5.039  14.479  24.105  0.00  0.00    +0.000 OA
ATOM     11  C   UNL     1      -5.262  13.143  23.892  0.00  0.00    +0.000 C 
ATOM     12  O   UNL     1      -6.202  12.565  24.426  0.00  0.00    +0.000 OA
ATOM     13  C   UNL     1      -4.364  12.515  22.833  0.00  0.00    +0.000 C 
ATOM     14  C   UNL     1      -2.876  12.861  23.104  0.00  0.00    +0.000 C 
ENDROOT
BRANCH  14  15
ATOM     15  C   UNL     1      -2.022  12.359  21.930  0.00  0.00    +0.000 A 
ATOM     16  C   UNL     1      -2.092  12.944  20.650  0.00  0.00    +0.000 A 
ATOM     17  C   UNL     1      -1.304  12.475  19.600  0.00  0.00    +0.000 A 
ATOM     18  C   UNL     1      -0.451  11.391  19.810  0.00  0.00    +0.000 A 
ATOM     19  C   UNL     1      -0.380  10.775  21.069  0.00  0.00    +0.000 A 
ATOM     20  C   UNL     1      -1.165  11.262  22.120  0.00  0.00    +0.000 A 
BRANCH  18  21
ATOM     21  N   UNL     1       0.369  10.889  18.702  0.00  0.00    +0.000 N 
ATOM     22  O   UNL     1       1.472  11.426  18.515  0.00  0.00    +0.000 OA
ATOM     23  O   UNL     1      -0.088   9.965  18.015  0.00  0.00    +0.000 OA
ENDBRANCH  18  21
ENDBRANCH  14  15
BRANCH  13  24
ATOM     24  N   UNL     1      -4.832  12.988  21.520  0.00  0.00    +0.000 N 
ATOM     25  C   UNL     1      -5.824  12.356  20.803  0.00  0.00    +0.000 C 
ATOM     26  O   UNL     1      -6.403  11.346  21.176  0.00  0.00    +0.000 OA
ATOM     27  H   UNL     1      -4.599  13.934  21.255  0.00  0.00    +0.000 HD
BRANCH  25  28
ATOM     28  C   UNL     1      -6.176  13.028  19.522  0.00  0.00    +0.000 A 
ATOM     29  C   UNL     1      -6.216  12.298  18.325  0.00  0.00    +0.000 A 
ATOM     30  C   UNL     1      -6.473  12.947  17.118  0.00  0.00    +0.000 A 
ATOM     31  C   UNL     1      -6.711  14.319  17.106  0.00  0.00    +0.000 A 
ATOM     32  C   UNL     1      -6.711  15.042  18.300  0.00  0.00    +0.000 A 
ATOM     33  C   UNL     1      -6.449  14.397  19.514  0.00  0.00    +0.000 A 
ENDBRANCH  25  28
ENDBRANCH  13  24
TORSDOF 4
ENDMDL
MODEL 8
REMARK VINA RESULT:      -6.5      5.957     10.438
REMARK  Name = 
REMARK  6 active torsions:
REMARK  status: ('A' for Active; 'I' for Inactive)
REMARK    1  A    between atoms: C_1  and  C_2
REMARK    2  A    between atoms: C_2  and  C_3
REMARK    3  A    between atoms: C_13  and  N_14
REMARK    4  A    between atoms: C_15  and  C_17
REMARK    5  A    between atoms: C_23  and  C_24
REMARK    6  A    between atoms: C_27  and  N_28
REMARK                            x       y       z     vdW  Elec       q    Type
REMARK                         _______ _______ _______ _____ _____    ______ ____
ROOT
ATOM      1  C   UNL     1      11.937  13.197  18.809  0.00  0.00    +0.000 C 
ATOM      2  C   UNL     1      10.536  12.610  18.537  0.00  0.00    +0.000 C 
ATOM      3  C   UNL     1      10.697  11.367  17.646  0.00  0.00    +0.000 C 
ATOM      4  C   UNL     1       9.873  12.203  19.860  0.00  0.00    +0.000 C 
ATOM      5  C   UNL     1       9.608  13.419  20.722  0.00  0.00    +0.000 C 
ATOM      6  O   UNL     1       9.861  13.413  21.923  0.00  0.00    +0.000 OA
ATOM      7  C   UNL     1       9.000  14.618  20.069  0.00  0.00    +0.000 C 
ATOM      8  C   UNL     1       9.080  14.706  18.731  0.00  0.00    +0.000 C 
ATOM      9  C   UNL     1       9.645  13.645  17.822  0.00  0.00    +0.000 C 
ATOM     10  O   UNL     1       8.718  15.887  18.042  0.00  0.00    +0.000 OA
ATOM     11  C   UNL     1       8.187  16.963  18.706  0.00  0.00    +0.000 C 
ATOM     12  O   UNL     1       8.189  18.081  18.202  0.00  0.00    +0.000 OA
ATOM     13  C   UNL     1       7.469  16.613  20.004  0.00  0.00    +0.000 C 
ATOM     14  C   UNL     1       8.363  15.713  20.896  0.00  0.00    +0.000 C 
ENDROOT
BRANCH  14  15
ATOM     15  C   UNL     1       7.548  15.241  22.110  0.00  0.00    +0.000 A 
ATOM     16  C   UNL     1       6.618  14.186  22.023  0.00  0.00    +0.000 A 
ATOM     17  C   UNL     1       5.893  13.772  23.138  0.00  0.00    +0.000 A 
ATOM     18  C   UNL     1       6.069  14.429  24.357  0.00  0.00    +0.000 A 
ATOM     19  C   UNL     1       6.971  15.498  24.465  0.00  0.00    +0.000 A 
ATOM     20  C   UNL     1       7.704  15.897  23.343  0.00  0.00    +0.000 A 
BRANCH  18  21
ATOM     21  N   UNL     1       5.296  14.001  25.528  0.00  0.00    +0.000 N 
ATOM     22  O   UNL     1       5.147  12.782  25.704  0.00  0.00    +0.000 OA
ATOM     23  O   UNL     1       4.833  14.879  26.270  0.00  0.00    +0.000 OA
ENDBRANCH  18  21
ENDBRANCH  14  15
BRANCH  13  24
ATOM     24  N   UNL     1       6.192  15.975  19.643  0.00  0.00    +0.000 N 
ATOM     25  C   UNL     1       5.012  16.673  19.519  0.00  0.00    +0.000 C 
ATOM     26  O   UNL     1       4.904  17.877  19.699  0.00  0.00    +0.000 OA
ATOM     27  H   UNL     1       6.231  15.052  19.235  0.00  0.00    +0.000 HD
BRANCH  25  28
ATOM     28  C   UNL     1       3.850  15.841  19.101  0.00  0.00    +0.000 A 
ATOM     29  C   UNL     1       2.560  16.389  19.067  0.00  0.00    +0.000 A 
ATOM     30  C   UNL     1       1.466  15.586  18.747  0.00  0.00    +0.000 A 
ATOM     31  C   UNL     1       1.660  14.241  18.439  0.00  0.00    +0.000 A 
ATOM     32  C   UNL     1       2.948  13.701  18.433  0.00  0.00    +0.000 A 
ATOM     33  C   UNL     1       4.048  14.501  18.758  0.00  0.00    +0.000 A 
ENDBRANCH  25  28
ENDBRANCH  13  24
TORSDOF 4
ENDMDL
MODEL 9
REMARK VINA RESULT:      -6.4      3.218      4.579
REMARK  Name = 
REMARK  6 active torsions:
REMARK  status: ('A' for Active; 'I' for Inactive)
REMARK    1  A    between atoms: C_1  and  C_2
REMARK    2  A    between atoms: C_2  and  C_3
REMARK    3  A    between atoms: C_13  and  N_14
REMARK    4  A    between atoms: C_15  and  C_17
REMARK    5  A    between atoms: C_23  and  C_24
REMARK    6  A    between atoms: C_27  and  N_28
REMARK                            x       y       z     vdW  Elec       q    Type
REMARK                         _______ _______ _______ _____ _____    ______ ____
ROOT
ATOM      1  C   UNL     1      -1.785  16.608  25.885  0.00  0.00    +0.000 C 
ATOM      2  C   UNL     1      -2.167  16.951  24.430  0.00  0.00    +0.000 C 
ATOM      3  C   UNL     1      -2.048  18.473  24.245  0.00  0.00    +0.000 C 
ATOM      4  C   UNL     1      -1.212  16.245  23.458  0.00  0.00    +0.000 C 
ATOM      5  C   UNL     1      -1.375  14.743  23.543  0.00  0.00    +0.000 C 
ATOM      6  O   UNL     1      -0.399  13.999  23.577  0.00  0.00    +0.000 OA
ATOM      7  C   UNL     1      -2.764  14.192  23.553  0.00  0.00    +0.000 C 
ATOM      8  C   UNL     1      -3.764  15.029  23.876  0.00  0.00    +0.000 C 
ATOM      9  C   UNL     1      -3.613  16.506  24.131  0.00  0.00    +0.000 C 
ATOM     10  O   UNL     1      -5.078  14.560  24.109  0.00  0.00    +0.000 OA
ATOM     11  C   UNL     1      -5.405  13.241  23.932  0.00  0.00    +0.000 C 
ATOM     12  O   UNL     1      -6.412  12.764  24.442  0.00  0.00    +0.000 OA
ATOM     13  C   UNL     1      -4.521  12.500  22.935  0.00  0.00    +0.000 C 
ATOM     14  C   UNL     1      -3.022  12.730  23.260  0.00  0.00    +0.000 C 
ENDROOT
BRANCH  14  15
ATOM     15  C   UNL     1      -2.166  12.115  22.143  0.00  0.00    +0.000 A 
ATOM     16  C   UNL     1      -1.240  11.082  22.391  0.00  0.00    +0.000 A 
ATOM     17  C   UNL     1      -0.477  10.537  21.360  0.00  0.00    +0.000 A 
ATOM     18  C   UNL     1      -0.610  11.037  20.065  0.00  0.00    +0.000 A 
ATOM     19  C   UNL     1      -1.507  12.082  19.795  0.00  0.00    +0.000 A 
ATOM     20  C   UNL     1      -2.279  12.613  20.834  0.00  0.00    +0.000 A 
BRANCH  18  21
ATOM     21  N   UNL     1       0.202  10.471  18.983  0.00  0.00    +0.000 N 
ATOM     22  O   UNL     1       1.431  10.435  19.146  0.00  0.00    +0.000 OA
ATOM     23  O   UNL     1      -0.384  10.068  17.968  0.00  0.00    +0.000 OA
ENDBRANCH  18  21
ENDBRANCH  14  15
BRANCH  13  24
ATOM     24  N   UNL     1      -4.893  12.962  21.587  0.00  0.00    +0.000 N 
ATOM     25  C   UNL     1      -5.895  12.381  20.844  0.00  0.00    +0.000 C 
ATOM     26  O   UNL     1      -6.565  11.430  21.218  0.00  0.00    +0.000 OA
ATOM     27  H   UNL     1      -4.577  13.879  21.306  0.00  0.00    +0.000 HD
BRANCH  25  28
ATOM     28  C   UNL     1      -6.137  13.034  19.528  0.00  0.00    +0.000 A 
ATOM     29  C   UNL     1      -6.525  14.380  19.464  0.00  0.00    +0.000 A 
ATOM     30  C   UNL     1      -6.822  14.967  18.234  0.00  0.00    +0.000 A 
ATOM     31  C   UNL     1      -6.711  14.217  17.065  0.00  0.00    +0.000 A 
ATOM     32  C   UNL     1      -6.287  12.888  17.121  0.00  0.00    +0.000 A 
ATOM     33  C   UNL     1      -5.992  12.294  18.352  0.00  0.00    +0.000 A 
ENDBRANCH  25  28
ENDBRANCH  13  24
TORSDOF 4
ENDMDL
