MODEL 1
REMARK VINA RESULT:      -6.3      0.000      0.000
REMARK  Name = 
REMARK  1 active torsions:
REMARK  status: ('A' for Active; 'I' for Inactive)
REMARK    1  A    between atoms: C_6  and  C_7
REMARK                            x       y       z     vdW  Elec       q    Type
REMARK                         _______ _______ _______ _____ _____    ______ ____
ROOT
ATOM      1  F   UNL     1       1.839   1.746  18.344  0.00  0.00    +0.000 F 
ATOM      2  C   UNL     1       2.404   2.940  18.114  0.00  0.00    +0.000 A 
ATOM      3  C   UNL     1       1.608   4.076  18.073  0.00  0.00    +0.000 A 
ATOM      4  C   UNL     1       2.198   5.314  17.834  0.00  0.00    +0.000 A 
ATOM      5  C   UNL     1       3.580   5.400  17.636  0.00  0.00    +0.000 A 
ATOM      6  C   UNL     1       4.389   4.250  17.675  0.00  0.00    +0.000 A 
ATOM      7  C   UNL     1       3.779   3.013  17.918  0.00  0.00    +0.000 A 
ENDROOT
BRANCH   6   8
ATOM      8  C   UNL     1       5.821   4.366  17.462  0.00  0.00    +0.000 A 
ATOM      9  C   UNL     1       6.482   4.455  16.258  0.00  0.00    +0.000 A 
ATOM     10  N   UNL     1       7.796   4.545  16.606  0.00  0.00    +0.000 N 
ATOM     11  N   UNL     1       7.954   4.515  17.936  0.00  0.00    +0.000 NA
ATOM     12  N   UNL     1       6.747   4.404  18.475  0.00  0.00    +0.000 NA
ATOM     13  H   UNL     1       8.617   4.628  16.018  0.00  0.00    +0.000 HD
ENDBRANCH   6   8
TORSDOF 1
ENDMDL
MODEL 2
REMARK VINA RESULT:      -6.2      1.397      1.397
REMARK  Name = 
REMARK  1 active torsions:
REMARK  status: ('A' for Active; 'I' for Inactive)
REMARK    1  A    between atoms: C_6  and  C_7
REMARK                            x       y       z     vdW  Elec       q    Type
REMARK                         _______ _______ _______ _____ _____    ______ ____
ROOT
ATOM      1  F   UNL     1       2.303   2.041  17.301  0.00  0.00    +0.000 F 
ATOM      2  C   UNL     1       2.693   3.317  17.432  0.00  0.00    +0.000 A 
ATOM      3  C   UNL     1       1.838   4.235  18.025  0.00  0.00    +0.000 A 
ATOM      4  C   UNL     1       2.247   5.559  18.162  0.00  0.00    +0.000 A 
ATOM      5  C   UNL     1       3.509   5.949  17.698  0.00  0.00    +0.000 A 
ATOM      6  C   UNL     1       4.376   5.021  17.096  0.00  0.00    +0.000 A 
ATOM      7  C   UNL     1       3.950   3.693  16.968  0.00  0.00    +0.000 A 
ENDROOT
BRANCH   6   8
ATOM      8  C   UNL     1       5.679   5.452  16.620  0.00  0.00    +0.000 A 
ATOM      9  C   UNL     1       6.448   4.864  15.641  0.00  0.00    +0.000 A 
ATOM     10  N   UNL     1       7.560   5.648  15.577  0.00  0.00    +0.000 N 
ATOM     11  N   UNL     1       7.499   6.659  16.453  0.00  0.00    +0.000 NA
ATOM     12  N   UNL     1       6.347   6.551  17.102  0.00  0.00    +0.000 NA
ATOM     13  H   UNL     1       8.378   5.564  14.983  0.00  0.00    +0.000 HD
ENDBRANCH   6   8
TORSDOF 1
ENDMDL
MODEL 3
REMARK VINA RESULT:      -6.1      1.351      1.554
REMARK  Name = 
REMARK  1 active torsions:
REMARK  status: ('A' for Active; 'I' for Inactive)
REMARK    1  A    between atoms: C_6  and  C_7
REMARK                            x       y       z     vdW  Elec       q    Type
REMARK                         _______ _______ _______ _____ _____    ______ ____
ROOT
ATOM      1  F   UNL     1       2.267   2.011  17.198  0.00  0.00    +0.000 F 
ATOM      2  C   UNL     1       2.642   3.275  17.436  0.00  0.00    +0.000 A 
ATOM      3  C   UNL     1       1.776   4.132  18.102  0.00  0.00    +0.000 A 
ATOM      4  C   UNL     1       2.169   5.444  18.349  0.00  0.00    +0.000 A 
ATOM      5  C   UNL     1       3.427   5.886  17.922  0.00  0.00    +0.000 A 
ATOM      6  C   UNL     1       4.306   5.021  17.246  0.00  0.00    +0.000 A 
ATOM      7  C   UNL     1       3.895   3.704  17.007  0.00  0.00    +0.000 A 
ENDROOT
BRANCH   6   8
ATOM      8  C   UNL     1       5.604   5.505  16.811  0.00  0.00    +0.000 A 
ATOM      9  C   UNL     1       6.158   6.743  17.053  0.00  0.00    +0.000 A 
ATOM     10  N   UNL     1       7.372   6.688  16.437  0.00  0.00    +0.000 N 
ATOM     11  N   UNL     1       7.571   5.502  15.848  0.00  0.00    +0.000 NA
ATOM     12  N   UNL     1       6.491   4.765  16.070  0.00  0.00    +0.000 NA
ATOM     13  H   UNL     1       8.099   7.393  16.375  0.00  0.00    +0.000 HD
ENDBRANCH   6   8
TORSDOF 1
ENDMDL
MODEL 4
REMARK VINA RESULT:      -6.1      0.804      1.239
REMARK  Name = 
REMARK  1 active torsions:
REMARK  status: ('A' for Active; 'I' for Inactive)
REMARK    1  A    between atoms: C_6  and  C_7
REMARK                            x       y       z     vdW  Elec       q    Type
REMARK                         _______ _______ _______ _____ _____    ______ ____
ROOT
ATOM      1  F   UNL     1       1.752   1.900  17.861  0.00  0.00    +0.000 F 
ATOM      2  C   UNL     1       2.351   3.097  17.792  0.00  0.00    +0.000 A 
ATOM      3  C   UNL     1       1.635   4.240  18.119  0.00  0.00    +0.000 A 
ATOM      4  C   UNL     1       2.260   5.482  18.046  0.00  0.00    +0.000 A 
ATOM      5  C   UNL     1       3.598   5.565  17.643  0.00  0.00    +0.000 A 
ATOM      6  C   UNL     1       4.326   4.409  17.310  0.00  0.00    +0.000 A 
ATOM      7  C   UNL     1       3.682   3.168  17.390  0.00  0.00    +0.000 A 
ENDROOT
BRANCH   6   8
ATOM      8  C   UNL     1       5.711   4.523  16.891  0.00  0.00    +0.000 A 
ATOM      9  C   UNL     1       6.832   4.483  17.691  0.00  0.00    +0.000 A 
ATOM     10  N   UNL     1       7.868   4.632  16.818  0.00  0.00    +0.000 N 
ATOM     11  N   UNL     1       7.433   4.758  15.557  0.00  0.00    +0.000 NA
ATOM     12  N   UNL     1       6.109   4.694  15.588  0.00  0.00    +0.000 NA
ATOM     13  H   UNL     1       8.865   4.657  16.996  0.00  0.00    +0.000 HD
ENDBRANCH   6   8
TORSDOF 1
ENDMDL
MODEL 5
REMARK VINA RESULT:      -6.1      1.586      1.902
REMARK  Name = 
REMARK  1 active torsions:
REMARK  status: ('A' for Active; 'I' for Inactive)
REMARK    1  A    between atoms: C_6  and  C_7
REMARK                            x       y       z     vdW  Elec       q    Type
REMARK                         _______ _______ _______ _____ _____    ______ ____
ROOT
ATOM      1  F   UNL     1       1.196   4.792  20.427  0.00  0.00    +0.000 F 
ATOM      2  C   UNL     1       2.030   4.431  19.442  0.00  0.00    +0.000 A 
ATOM      3  C   UNL     1       1.527   3.775  18.327  0.00  0.00    +0.000 A 
ATOM      4  C   UNL     1       2.395   3.402  17.304  0.00  0.00    +0.000 A 
ATOM      5  C   UNL     1       3.761   3.689  17.412  0.00  0.00    +0.000 A 
ATOM      6  C   UNL     1       4.274   4.351  18.541  0.00  0.00    +0.000 A 
ATOM      7  C   UNL     1       3.386   4.721  19.559  0.00  0.00    +0.000 A 
ENDROOT
BRANCH   6   8
ATOM      8  C   UNL     1       5.695   4.633  18.630  0.00  0.00    +0.000 A 
ATOM      9  C   UNL     1       6.642   4.473  17.642  0.00  0.00    +0.000 A 
ATOM     10  N   UNL     1       7.804   4.876  18.229  0.00  0.00    +0.000 N 
ATOM     11  N   UNL     1       7.606   5.263  19.496  0.00  0.00    +0.000 NA
ATOM     12  N   UNL     1       6.314   5.118  19.756  0.00  0.00    +0.000 NA
ATOM     13  H   UNL     1       8.742   4.918  17.846  0.00  0.00    +0.000 HD
ENDBRANCH   6   8
TORSDOF 1
ENDMDL
MODEL 6
REMARK VINA RESULT:      -6.0      3.755      4.666
REMARK  Name = 
REMARK  1 active torsions:
REMARK  status: ('A' for Active; 'I' for Inactive)
REMARK    1  A    between atoms: C_6  and  C_7
REMARK                            x       y       z     vdW  Elec       q    Type
REMARK                         _______ _______ _______ _____ _____    ______ ____
ROOT
ATOM      1  F   UNL     1       6.544   4.619  15.060  0.00  0.00    +0.000 F 
ATOM      2  C   UNL     1       5.571   4.971  15.912  0.00  0.00    +0.000 A 
ATOM      3  C   UNL     1       5.464   6.294  16.318  0.00  0.00    +0.000 A 
ATOM      4  C   UNL     1       4.452   6.658  17.202  0.00  0.00    +0.000 A 
ATOM      5  C   UNL     1       3.559   5.689  17.673  0.00  0.00    +0.000 A 
ATOM      6  C   UNL     1       3.665   4.348  17.265  0.00  0.00    +0.000 A 
ATOM      7  C   UNL     1       4.688   4.000  16.374  0.00  0.00    +0.000 A 
ENDROOT
BRANCH   6   8
ATOM      8  C   UNL     1       2.728   3.361  17.772  0.00  0.00    +0.000 A 
ATOM      9  C   UNL     1       3.013   2.092  18.224  0.00  0.00    +0.000 A 
ATOM     10  N   UNL     1       1.799   1.588  18.583  0.00  0.00    +0.000 N 
ATOM     11  N   UNL     1       0.817   2.474  18.373  0.00  0.00    +0.000 NA
ATOM     12  N   UNL     1       1.374   3.569  17.873  0.00  0.00    +0.000 NA
ATOM     13  H   UNL     1       1.564   0.679  18.967  0.00  0.00    +0.000 HD
ENDBRANCH   6   8
TORSDOF 1
ENDMDL
MODEL 7
REMARK VINA RESULT:      -6.0      1.810      2.055
REMARK  Name = 
REMARK  1 active torsions:
REMARK  status: ('A' for Active; 'I' for Inactive)
REMARK    1  A    between atoms: C_6  and  C_7
REMARK                            x       y       z     vdW  Elec       q    Type
REMARK                         _______ _______ _______ _____ _____    ______ ____
ROOT
ATOM      1  F   UNL     1       1.833   3.584  21.950  0.00  0.00    +0.000 F 
ATOM      2  C   UNL     1       2.040   3.611  20.626  0.00  0.00    +0.000 A 
ATOM      3  C   UNL     1       0.967   3.435  19.763  0.00  0.00    +0.000 A 
ATOM      4  C   UNL     1       1.184   3.465  18.388  0.00  0.00    +0.000 A 
ATOM      5  C   UNL     1       2.477   3.668  17.893  0.00  0.00    +0.000 A 
ATOM      6  C   UNL     1       3.566   3.845  18.764  0.00  0.00    +0.000 A 
ATOM      7  C   UNL     1       3.330   3.814  20.144  0.00  0.00    +0.000 A 
ENDROOT
BRANCH   6   8
ATOM      8  C   UNL     1       4.898   4.050  18.224  0.00  0.00    +0.000 A 
ATOM      9  C   UNL     1       5.279   4.006  16.901  0.00  0.00    +0.000 A 
ATOM     10  N   UNL     1       6.617   4.264  16.933  0.00  0.00    +0.000 N 
ATOM     11  N   UNL     1       7.051   4.456  18.185  0.00  0.00    +0.000 NA
ATOM     12  N   UNL     1       6.004   4.327  18.990  0.00  0.00    +0.000 NA
ATOM     13  H   UNL     1       7.283   4.325  16.170  0.00  0.00    +0.000 HD
ENDBRANCH   6   8
TORSDOF 1
ENDMDL
MODEL 8
REMARK VINA RESULT:      -5.9      1.291      1.675
REMARK  Name = 
REMARK  1 active torsions:
REMARK  status: ('A' for Active; 'I' for Inactive)
REMARK    1  A    between atoms: C_6  and  C_7
REMARK                            x       y       z     vdW  Elec       q    Type
REMARK                         _______ _______ _______ _____ _____    ______ ____
ROOT
ATOM      1  F   UNL     1       0.824   4.372  17.351  0.00  0.00    +0.000 F 
ATOM      2  C   UNL     1       1.920   4.045  18.051  0.00  0.00    +0.000 A 
ATOM      3  C   UNL     1       1.783   3.442  19.294  0.00  0.00    +0.000 A 
ATOM      4  C   UNL     1       2.923   3.103  20.018  0.00  0.00    +0.000 A 
ATOM      5  C   UNL     1       4.189   3.374  19.488  0.00  0.00    +0.000 A 
ATOM      6  C   UNL     1       4.332   3.986  18.231  0.00  0.00    +0.000 A 
ATOM      7  C   UNL     1       3.175   4.319  17.515  0.00  0.00    +0.000 A 
ENDROOT
BRANCH   6   8
ATOM      8  C   UNL     1       5.657   4.260  17.706  0.00  0.00    +0.000 A 
ATOM      9  C   UNL     1       6.026   4.370  16.384  0.00  0.00    +0.000 A 
ATOM     10  N   UNL     1       7.363   4.632  16.433  0.00  0.00    +0.000 N 
ATOM     11  N   UNL     1       7.807   4.683  17.696  0.00  0.00    +0.000 NA
ATOM     12  N   UNL     1       6.768   4.456  18.489  0.00  0.00    +0.000 NA
ATOM     13  H   UNL     1       8.021   4.783  15.677  0.00  0.00    +0.000 HD
ENDBRANCH   6   8
TORSDOF 1
ENDMDL
MODEL 9
REMARK VINA RESULT:      -5.9      1.362      1.435
REMARK  Name = 
REMARK  1 active torsions:
REMARK  status: ('A' for Active; 'I' for Inactive)
REMARK    1  A    between atoms: C_6  and  C_7
REMARK                            x       y       z     vdW  Elec       q    Type
REMARK                         _______ _______ _______ _____ _____    ______ ____
ROOT
ATOM      1  F   UNL     1       2.912   2.635  21.266  0.00  0.00    +0.000 F 
ATOM      2  C   UNL     1       3.002   3.130  20.023  0.00  0.00    +0.000 A 
ATOM      3  C   UNL     1       1.844   3.357  19.292  0.00  0.00    +0.000 A 
ATOM      4  C   UNL     1       1.942   3.872  18.003  0.00  0.00    +0.000 A 
ATOM      5  C   UNL     1       3.200   4.151  17.458  0.00  0.00    +0.000 A 
ATOM      6  C   UNL     1       4.375   3.920  18.195  0.00  0.00    +0.000 A 
ATOM      7  C   UNL     1       4.259   3.403  19.492  0.00  0.00    +0.000 A 
ENDROOT
BRANCH   6   8
ATOM      8  C   UNL     1       5.669   4.215  17.605  0.00  0.00    +0.000 A 
ATOM      9  C   UNL     1       5.960   4.375  16.269  0.00  0.00    +0.000 A 
ATOM     10  N   UNL     1       7.298   4.635  16.250  0.00  0.00    +0.000 N 
ATOM     11  N   UNL     1       7.814   4.639  17.486  0.00  0.00    +0.000 NA
ATOM     12  N   UNL     1       6.823   4.381  18.329  0.00  0.00    +0.000 NA
ATOM     13  H   UNL     1       7.911   4.815  15.463  0.00  0.00    +0.000 HD
ENDBRANCH   6   8
TORSDOF 1
ENDMDL
