MODEL 1
REMARK VINA RESULT:      -8.5      0.000      0.000
REMARK  Name = 
REMARK  3 active torsions:
REMARK  status: ('A' for Active; 'I' for Inactive)
REMARK    1  A    between atoms: C_7  and  C_8
REMARK    2  A    between atoms: N_10  and  C_11
REMARK    3  A    between atoms: C_11  and  C_12
REMARK                            x       y       z     vdW  Elec       q    Type
REMARK                         _______ _______ _______ _____ _____    ______ ____
ROOT
ATOM      1  N   UNL     1       7.286   5.568  15.942  0.00  0.00    +0.000 N 
ATOM      2  C   UNL     1       6.138   5.241  16.556  0.00  0.00    +0.000 A 
ATOM      3  N   UNL     1       5.776   4.006  16.793  0.00  0.00    +0.000 NA
ATOM      4  C   UNL     1       4.538   3.972  17.421  0.00  0.00    +0.000 A 
ATOM      5  C   UNL     1       3.980   5.223  17.638  0.00  0.00    +0.000 A 
ATOM      6  S   UNL     1       5.046   6.445  17.087  0.00  0.00    +0.000 S 
ATOM      7  C   UNL     1       2.622   5.574  18.174  0.00  0.00    +0.000 C 
ATOM      8  C   UNL     1       1.595   4.574  17.605  0.00  0.00    +0.000 C 
ATOM      9  C   UNL     1       1.506   3.229  18.328  0.00  0.00    +0.000 C 
ATOM     10  C   UNL     1       2.833   2.595  18.752  0.00  0.00    +0.000 C 
ATOM     11  C   UNL     1       3.929   2.628  17.689  0.00  0.00    +0.000 C 
ATOM     12  H   UNL     1       7.989   4.839  15.935  0.00  0.00    +0.000 HD
ATOM     13  H   UNL     1       7.652   6.497  16.113  0.00  0.00    +0.000 HD
ENDROOT
BRANCH   7  14
ATOM     14  C   UNL     1       2.654   5.697  19.715  0.00  0.00    +0.000 C 
ATOM     15  O   UNL     1       2.984   4.782  20.472  0.00  0.00    +0.000 OA
ATOM     16  N   UNL     1       2.335   6.902  20.275  0.00  0.00    +0.000 N 
ATOM     17  H   UNL     1       2.293   6.879  21.291  0.00  0.00    +0.000 HD
BRANCH  16  18
ATOM     18  C   UNL     1       1.860   8.070  19.580  0.00  0.00    +0.000 C 
BRANCH  18  19
ATOM     19  C   UNL     1       0.985   8.935  20.430  0.00  0.00    +0.000 A 
ATOM     20  C   UNL     1       0.622   8.457  21.701  0.00  0.00    +0.000 A 
ATOM     21  C   UNL     1      -0.126   9.251  22.566  0.00  0.00    +0.000 A 
ATOM     22  C   UNL     1      -0.526  10.520  22.160  0.00  0.00    +0.000 A 
ATOM     23 CL   UNL     1      -1.427  11.510  23.237  0.00  0.00    +0.000 Cl
ATOM     24  C   UNL     1      -0.199  10.997  20.893  0.00  0.00    +0.000 A 
ATOM     25  C   UNL     1       0.550  10.205  20.026  0.00  0.00    +0.000 A 
ATOM     26 CL   UNL     1       0.930  10.848  18.469  0.00  0.00    +0.000 Cl
ENDBRANCH  18  19
ENDBRANCH  16  18
ENDBRANCH   7  14
TORSDOF 3
ENDMDL
MODEL 2
REMARK VINA RESULT:      -8.3      1.128      1.147
REMARK  Name = 
REMARK  3 active torsions:
REMARK  status: ('A' for Active; 'I' for Inactive)
REMARK    1  A    between atoms: C_7  and  C_8
REMARK    2  A    between atoms: N_10  and  C_11
REMARK    3  A    between atoms: C_11  and  C_12
REMARK                            x       y       z     vdW  Elec       q    Type
REMARK                         _______ _______ _______ _____ _____    ______ ____
ROOT
ATOM      1  N   UNL     1       7.456   4.530  18.022  0.00  0.00    +0.000 N 
ATOM      2  C   UNL     1       6.152   4.388  18.305  0.00  0.00    +0.000 A 
ATOM      3  N   UNL     1       5.560   3.225  18.404  0.00  0.00    +0.000 NA
ATOM      4  C   UNL     1       4.209   3.388  18.686  0.00  0.00    +0.000 A 
ATOM      5  C   UNL     1       3.808   4.710  18.785  0.00  0.00    +0.000 A 
ATOM      6  S   UNL     1       5.151   5.751  18.565  0.00  0.00    +0.000 S 
ATOM      7  C   UNL     1       2.425   5.270  18.957  0.00  0.00    +0.000 C 
ATOM      8  C   UNL     1       1.446   4.430  18.111  0.00  0.00    +0.000 C 
ATOM      9  C   UNL     1       0.970   3.123  18.749  0.00  0.00    +0.000 C 
ATOM     10  C   UNL     1       2.029   2.301  19.487  0.00  0.00    +0.000 C 
ATOM     11  C   UNL     1       3.358   2.154  18.748  0.00  0.00    +0.000 C 
ATOM     12  H   UNL     1       8.019   3.702  18.179  0.00  0.00    +0.000 HD
ATOM     13  H   UNL     1       7.899   5.395  18.308  0.00  0.00    +0.000 HD
ENDROOT
BRANCH   7  14
ATOM     14  C   UNL     1       2.070   5.407  20.455  0.00  0.00    +0.000 C 
ATOM     15  O   UNL     1       2.051   4.462  21.246  0.00  0.00    +0.000 OA
ATOM     16  N   UNL     1       1.797   6.652  20.945  0.00  0.00    +0.000 N 
ATOM     17  H   UNL     1       1.486   6.648  21.914  0.00  0.00    +0.000 HD
BRANCH  16  18
ATOM     18  C   UNL     1       1.698   7.869  20.183  0.00  0.00    +0.000 C 
BRANCH  18  19
ATOM     19  C   UNL     1       0.825   8.893  20.834  0.00  0.00    +0.000 A 
ATOM     20  C   UNL     1       0.697   8.855  22.234  0.00  0.00    +0.000 A 
ATOM     21  C   UNL     1      -0.040   9.830  22.901  0.00  0.00    +0.000 A 
ATOM     22  C   UNL     1      -0.664  10.838  22.173  0.00  0.00    +0.000 A 
ATOM     23 CL   UNL     1      -1.553  12.054  22.999  0.00  0.00    +0.000 Cl
ATOM     24  C   UNL     1      -0.573  10.872  20.783  0.00  0.00    +0.000 A 
ATOM     25  C   UNL     1       0.165   9.899  20.114  0.00  0.00    +0.000 A 
ATOM     26 CL   UNL     1       0.249   9.992  18.391  0.00  0.00    +0.000 Cl
ENDBRANCH  18  19
ENDBRANCH  16  18
ENDBRANCH   7  14
TORSDOF 3
ENDMDL
MODEL 3
REMARK VINA RESULT:      -8.1      1.255      1.357
REMARK  Name = 
REMARK  3 active torsions:
REMARK  status: ('A' for Active; 'I' for Inactive)
REMARK    1  A    between atoms: C_7  and  C_8
REMARK    2  A    between atoms: N_10  and  C_11
REMARK    3  A    between atoms: C_11  and  C_12
REMARK                            x       y       z     vdW  Elec       q    Type
REMARK                         _______ _______ _______ _____ _____    ______ ____
ROOT
ATOM      1  N   UNL     1       6.885   5.176  14.412  0.00  0.00    +0.000 N 
ATOM      2  C   UNL     1       5.973   4.961  15.372  0.00  0.00    +0.000 A 
ATOM      3  N   UNL     1       5.649   3.767  15.802  0.00  0.00    +0.000 NA
ATOM      4  C   UNL     1       4.668   3.851  16.782  0.00  0.00    +0.000 A 
ATOM      5  C   UNL     1       4.260   5.146  17.063  0.00  0.00    +0.000 A 
ATOM      6  S   UNL     1       5.152   6.262  16.119  0.00  0.00    +0.000 S 
ATOM      7  C   UNL     1       3.152   5.615  17.963  0.00  0.00    +0.000 C 
ATOM      8  C   UNL     1       1.957   4.652  17.814  0.00  0.00    +0.000 C 
ATOM      9  C   UNL     1       2.040   3.360  18.631  0.00  0.00    +0.000 C 
ATOM     10  C   UNL     1       3.405   2.669  18.674  0.00  0.00    +0.000 C 
ATOM     11  C   UNL     1       4.115   2.567  17.325  0.00  0.00    +0.000 C 
ATOM     12  H   UNL     1       7.519   4.404  14.245  0.00  0.00    +0.000 HD
ATOM     13  H   UNL     1       7.326   6.088  14.390  0.00  0.00    +0.000 HD
ENDROOT
BRANCH   7  14
ATOM     14  C   UNL     1       3.667   5.828  19.404  0.00  0.00    +0.000 C 
ATOM     15  O   UNL     1       4.803   5.531  19.780  0.00  0.00    +0.000 OA
ATOM     16  N   UNL     1       2.831   6.413  20.311  0.00  0.00    +0.000 N 
ATOM     17  H   UNL     1       3.208   6.437  21.256  0.00  0.00    +0.000 HD
BRANCH  16  18
ATOM     18  C   UNL     1       1.452   6.770  20.099  0.00  0.00    +0.000 C 
BRANCH  18  19
ATOM     19  C   UNL     1       1.184   8.221  20.335  0.00  0.00    +0.000 A 
ATOM     20  C   UNL     1       0.853   8.626  21.640  0.00  0.00    +0.000 A 
ATOM     21  C   UNL     1       0.670   9.974  21.935  0.00  0.00    +0.000 A 
ATOM     22  C   UNL     1       0.802  10.922  20.926  0.00  0.00    +0.000 A 
ATOM     23 CL   UNL     1       0.600  12.588  21.295  0.00  0.00    +0.000 Cl
ATOM     24  C   UNL     1       1.100  10.535  19.621  0.00  0.00    +0.000 A 
ATOM     25  C   UNL     1       1.286   9.187  19.324  0.00  0.00    +0.000 A 
ATOM     26 CL   UNL     1       1.658   8.764  17.691  0.00  0.00    +0.000 Cl
ENDBRANCH  18  19
ENDBRANCH  16  18
ENDBRANCH   7  14
TORSDOF 3
ENDMDL
MODEL 4
REMARK VINA RESULT:      -8.0      1.373      2.262
REMARK  Name = 
REMARK  3 active torsions:
REMARK  status: ('A' for Active; 'I' for Inactive)
REMARK    1  A    between atoms: C_7  and  C_8
REMARK    2  A    between atoms: N_10  and  C_11
REMARK    3  A    between atoms: C_11  and  C_12
REMARK                            x       y       z     vdW  Elec       q    Type
REMARK                         _______ _______ _______ _____ _____    ______ ____
ROOT
ATOM      1  N   UNL     1       7.214   5.222  14.681  0.00  0.00    +0.000 N 
ATOM      2  C   UNL     1       6.225   5.010  15.562  0.00  0.00    +0.000 A 
ATOM      3  N   UNL     1       5.829   3.816  15.926  0.00  0.00    +0.000 NA
ATOM      4  C   UNL     1       4.780   3.905  16.832  0.00  0.00    +0.000 A 
ATOM      5  C   UNL     1       4.397   5.204  17.128  0.00  0.00    +0.000 A 
ATOM      6  S   UNL     1       5.396   6.316  16.292  0.00  0.00    +0.000 S 
ATOM      7  C   UNL     1       3.242   5.686  17.959  0.00  0.00    +0.000 C 
ATOM      8  C   UNL     1       2.029   4.772  17.689  0.00  0.00    +0.000 C 
ATOM      9  C   UNL     1       2.005   3.453  18.464  0.00  0.00    +0.000 C 
ATOM     10  C   UNL     1       3.338   2.710  18.583  0.00  0.00    +0.000 C 
ATOM     11  C   UNL     1       4.144   2.626  17.288  0.00  0.00    +0.000 C 
ATOM     12  H   UNL     1       7.832   4.432  14.534  0.00  0.00    +0.000 HD
ATOM     13  H   UNL     1       7.687   6.117  14.724  0.00  0.00    +0.000 HD
ENDROOT
BRANCH   7  14
ATOM     14  C   UNL     1       3.655   5.832  19.441  0.00  0.00    +0.000 C 
ATOM     15  O   UNL     1       4.726   5.430  19.900  0.00  0.00    +0.000 OA
ATOM     16  N   UNL     1       2.802   6.479  20.290  0.00  0.00    +0.000 N 
ATOM     17  H   UNL     1       3.101   6.456  21.262  0.00  0.00    +0.000 HD
BRANCH  16  18
ATOM     18  C   UNL     1       1.482   6.960  19.974  0.00  0.00    +0.000 C 
BRANCH  18  19
ATOM     19  C   UNL     1       1.454   8.425  19.676  0.00  0.00    +0.000 A 
ATOM     20  C   UNL     1       1.846   8.843  18.392  0.00  0.00    +0.000 A 
ATOM     21  C   UNL     1       1.766  10.185  18.032  0.00  0.00    +0.000 A 
ATOM     22  C   UNL     1       1.309  11.118  18.958  0.00  0.00    +0.000 A 
ATOM     23 CL   UNL     1       1.187  12.771  18.506  0.00  0.00    +0.000 Cl
ATOM     24  C   UNL     1       0.945  10.725  20.244  0.00  0.00    +0.000 A 
ATOM     25  C   UNL     1       1.023   9.382  20.605  0.00  0.00    +0.000 A 
ATOM     26 CL   UNL     1       0.556   8.949  22.211  0.00  0.00    +0.000 Cl
ENDBRANCH  18  19
ENDBRANCH  16  18
ENDBRANCH   7  14
TORSDOF 3
ENDMDL
MODEL 5
REMARK VINA RESULT:      -7.8      3.785      6.412
REMARK  Name = 
REMARK  3 active torsions:
REMARK  status: ('A' for Active; 'I' for Inactive)
REMARK    1  A    between atoms: C_7  and  C_8
REMARK    2  A    between atoms: N_10  and  C_11
REMARK    3  A    between atoms: C_11  and  C_12
REMARK                            x       y       z     vdW  Elec       q    Type
REMARK                         _______ _______ _______ _____ _____    ______ ____
ROOT
ATOM      1  N   UNL     1       1.553   7.726  21.163  0.00  0.00    +0.000 N 
ATOM      2  C   UNL     1       1.869   6.562  20.576  0.00  0.00    +0.000 A 
ATOM      3  N   UNL     1       1.141   5.479  20.686  0.00  0.00    +0.000 NA
ATOM      4  C   UNL     1       1.722   4.427  19.990  0.00  0.00    +0.000 A 
ATOM      5  C   UNL     1       2.914   4.754  19.363  0.00  0.00    +0.000 A 
ATOM      6  S   UNL     1       3.278   6.409  19.617  0.00  0.00    +0.000 S 
ATOM      7  C   UNL     1       3.875   3.863  18.629  0.00  0.00    +0.000 C 
ATOM      8  C   UNL     1       3.965   2.517  19.378  0.00  0.00    +0.000 C 
ATOM      9  C   UNL     1       2.847   1.515  19.082  0.00  0.00    +0.000 C 
ATOM     10  C   UNL     1       1.431   2.087  18.984  0.00  0.00    +0.000 C 
ATOM     11  C   UNL     1       1.063   3.083  20.081  0.00  0.00    +0.000 C 
ATOM     12  H   UNL     1       0.584   7.811  21.448  0.00  0.00    +0.000 HD
ATOM     13  H   UNL     1       1.942   8.568  20.756  0.00  0.00    +0.000 HD
ENDROOT
BRANCH   7  14
ATOM     14  C   UNL     1       3.507   3.772  17.131  0.00  0.00    +0.000 C 
ATOM     15  O   UNL     1       2.350   3.780  16.705  0.00  0.00    +0.000 OA
ATOM     16  N   UNL     1       4.521   3.719  16.217  0.00  0.00    +0.000 N 
ATOM     17  H   UNL     1       4.200   3.571  15.263  0.00  0.00    +0.000 HD
BRANCH  16  18
ATOM     18  C   UNL     1       5.928   3.630  16.504  0.00  0.00    +0.000 C 
BRANCH  18  19
ATOM     19  C   UNL     1       6.492   4.905  17.045  0.00  0.00    +0.000 A 
ATOM     20  C   UNL     1       7.339   4.828  18.165  0.00  0.00    +0.000 A 
ATOM     21  C   UNL     1       7.955   5.972  18.664  0.00  0.00    +0.000 A 
ATOM     22  C   UNL     1       7.717   7.201  18.056  0.00  0.00    +0.000 A 
ATOM     23 CL   UNL     1       8.496   8.609  18.657  0.00  0.00    +0.000 Cl
ATOM     24  C   UNL     1       6.857   7.299  16.964  0.00  0.00    +0.000 A 
ATOM     25  C   UNL     1       6.241   6.155  16.463  0.00  0.00    +0.000 A 
ATOM     26 CL   UNL     1       5.188   6.334  15.105  0.00  0.00    +0.000 Cl
ENDBRANCH  18  19
ENDBRANCH  16  18
ENDBRANCH   7  14
TORSDOF 3
ENDMDL
MODEL 6
REMARK VINA RESULT:      -7.4      1.571      1.992
REMARK  Name = 
REMARK  3 active torsions:
REMARK  status: ('A' for Active; 'I' for Inactive)
REMARK    1  A    between atoms: C_7  and  C_8
REMARK    2  A    between atoms: N_10  and  C_11
REMARK    3  A    between atoms: C_11  and  C_12
REMARK                            x       y       z     vdW  Elec       q    Type
REMARK                         _______ _______ _______ _____ _____    ______ ____
ROOT
ATOM      1  N   UNL     1       7.454   5.496  17.386  0.00  0.00    +0.000 N 
ATOM      2  C   UNL     1       6.232   5.155  17.823  0.00  0.00    +0.000 A 
ATOM      3  N   UNL     1       5.940   3.967  18.288  0.00  0.00    +0.000 NA
ATOM      4  C   UNL     1       4.599   3.899  18.647  0.00  0.00    +0.000 A 
ATOM      5  C   UNL     1       3.895   5.073  18.427  0.00  0.00    +0.000 A 
ATOM      6  S   UNL     1       4.942   6.279  17.807  0.00  0.00    +0.000 S 
ATOM      7  C   UNL     1       2.425   5.338  18.578  0.00  0.00    +0.000 C 
ATOM      8  C   UNL     1       1.649   4.098  18.089  0.00  0.00    +0.000 C 
ATOM      9  C   UNL     1       1.522   2.953  19.096  0.00  0.00    +0.000 C 
ATOM     10  C   UNL     1       2.771   2.630  19.920  0.00  0.00    +0.000 C 
ATOM     11  C   UNL     1       4.071   2.577  19.120  0.00  0.00    +0.000 C 
ATOM     12  H   UNL     1       8.204   4.893  17.703  0.00  0.00    +0.000 HD
ATOM     13  H   UNL     1       7.685   6.482  17.385  0.00  0.00    +0.000 HD
ENDROOT
BRANCH   7  14
ATOM     14  C   UNL     1       2.096   5.811  20.013  0.00  0.00    +0.000 C 
ATOM     15  O   UNL     1       1.913   5.048  20.964  0.00  0.00    +0.000 OA
ATOM     16  N   UNL     1       2.041   7.154  20.255  0.00  0.00    +0.000 N 
ATOM     17  H   UNL     1       1.733   7.384  21.196  0.00  0.00    +0.000 HD
BRANCH  16  18
ATOM     18  C   UNL     1       2.155   8.205  19.278  0.00  0.00    +0.000 C 
BRANCH  18  19
ATOM     19  C   UNL     1       1.052   9.210  19.375  0.00  0.00    +0.000 A 
ATOM     20  C   UNL     1       0.419   9.609  18.185  0.00  0.00    +0.000 A 
ATOM     21  C   UNL     1      -0.665  10.481  18.220  0.00  0.00    +0.000 A 
ATOM     22  C   UNL     1      -1.113  10.970  19.444  0.00  0.00    +0.000 A 
ATOM     23 CL   UNL     1      -2.467  12.027  19.490  0.00  0.00    +0.000 Cl
ATOM     24  C   UNL     1      -0.478  10.608  20.630  0.00  0.00    +0.000 A 
ATOM     25  C   UNL     1       0.606   9.734  20.596  0.00  0.00    +0.000 A 
ATOM     26 CL   UNL     1       1.352   9.315  22.096  0.00  0.00    +0.000 Cl
ENDBRANCH  18  19
ENDBRANCH  16  18
ENDBRANCH   7  14
TORSDOF 3
ENDMDL
MODEL 7
REMARK VINA RESULT:      -7.2      3.920      7.679
REMARK  Name = 
REMARK  3 active torsions:
REMARK  status: ('A' for Active; 'I' for Inactive)
REMARK    1  A    between atoms: C_7  and  C_8
REMARK    2  A    between atoms: N_10  and  C_11
REMARK    3  A    between atoms: C_11  and  C_12
REMARK                            x       y       z     vdW  Elec       q    Type
REMARK                         _______ _______ _______ _____ _____    ______ ____
ROOT
ATOM      1  N   UNL     1       1.116   8.691  20.998  0.00  0.00    +0.000 N 
ATOM      2  C   UNL     1       1.531   7.472  20.621  0.00  0.00    +0.000 A 
ATOM      3  N   UNL     1       1.131   6.366  21.198  0.00  0.00    +0.000 NA
ATOM      4  C   UNL     1       1.739   5.263  20.612  0.00  0.00    +0.000 A 
ATOM      5  C   UNL     1       2.615   5.580  19.585  0.00  0.00    +0.000 A 
ATOM      6  S   UNL     1       2.635   7.273  19.330  0.00  0.00    +0.000 S 
ATOM      7  C   UNL     1       3.532   4.677  18.810  0.00  0.00    +0.000 C 
ATOM      8  C   UNL     1       4.127   3.633  19.777  0.00  0.00    +0.000 C 
ATOM      9  C   UNL     1       3.236   2.426  20.083  0.00  0.00    +0.000 C 
ATOM     10  C   UNL     1       1.751   2.717  20.307  0.00  0.00    +0.000 C 
ATOM     11  C   UNL     1       1.460   3.916  21.209  0.00  0.00    +0.000 C 
ATOM     12  H   UNL     1       0.264   8.701  21.545  0.00  0.00    +0.000 HD
ATOM     13  H   UNL     1       1.178   9.432  20.310  0.00  0.00    +0.000 HD
ENDROOT
BRANCH   7  14
ATOM     14  C   UNL     1       2.816   4.105  17.565  0.00  0.00    +0.000 C 
ATOM     15  O   UNL     1       1.618   4.267  17.325  0.00  0.00    +0.000 OA
ATOM     16  N   UNL     1       3.559   3.411  16.653  0.00  0.00    +0.000 N 
ATOM     17  H   UNL     1       3.004   2.993  15.910  0.00  0.00    +0.000 HD
BRANCH  16  18
ATOM     18  C   UNL     1       4.948   3.054  16.774  0.00  0.00    +0.000 C 
BRANCH  18  19
ATOM     19  C   UNL     1       5.808   3.700  15.736  0.00  0.00    +0.000 A 
ATOM     20  C   UNL     1       5.487   3.479  14.385  0.00  0.00    +0.000 A 
ATOM     21  C   UNL     1       6.203   4.117  13.376  0.00  0.00    +0.000 A 
ATOM     22  C   UNL     1       7.253   4.967  13.711  0.00  0.00    +0.000 A 
ATOM     23 CL   UNL     1       8.121   5.774  12.468  0.00  0.00    +0.000 Cl
ATOM     24  C   UNL     1       7.602   5.174  15.044  0.00  0.00    +0.000 A 
ATOM     25  C   UNL     1       6.885   4.538  16.055  0.00  0.00    +0.000 A 
ATOM     26 CL   UNL     1       7.359   4.833  17.690  0.00  0.00    +0.000 Cl
ENDBRANCH  18  19
ENDBRANCH  16  18
ENDBRANCH   7  14
TORSDOF 3
ENDMDL
MODEL 8
REMARK VINA RESULT:      -7.2      2.492      3.639
REMARK  Name = 
REMARK  3 active torsions:
REMARK  status: ('A' for Active; 'I' for Inactive)
REMARK    1  A    between atoms: C_7  and  C_8
REMARK    2  A    between atoms: N_10  and  C_11
REMARK    3  A    between atoms: C_11  and  C_12
REMARK                            x       y       z     vdW  Elec       q    Type
REMARK                         _______ _______ _______ _____ _____    ______ ____
ROOT
ATOM      1  N   UNL     1       0.900   1.721  18.593  0.00  0.00    +0.000 N 
ATOM      2  C   UNL     1       1.868   2.626  18.386  0.00  0.00    +0.000 A 
ATOM      3  N   UNL     1       2.884   2.422  17.586  0.00  0.00    +0.000 NA
ATOM      4  C   UNL     1       3.732   3.522  17.584  0.00  0.00    +0.000 A 
ATOM      5  C   UNL     1       3.324   4.552  18.416  0.00  0.00    +0.000 A 
ATOM      6  S   UNL     1       1.839   4.147  19.168  0.00  0.00    +0.000 S 
ATOM      7  C   UNL     1       4.034   5.830  18.761  0.00  0.00    +0.000 C 
ATOM      8  C   UNL     1       5.540   5.530  18.910  0.00  0.00    +0.000 C 
ATOM      9  C   UNL     1       6.336   5.468  17.604  0.00  0.00    +0.000 C 
ATOM     10  C   UNL     1       5.665   4.751  16.431  0.00  0.00    +0.000 C 
ATOM     11  C   UNL     1       4.999   3.423  16.786  0.00  0.00    +0.000 C 
ATOM     12  H   UNL     1       0.833   0.998  17.887  0.00  0.00    +0.000 HD
ATOM     13  H   UNL     1       0.005   2.068  18.919  0.00  0.00    +0.000 HD
ENDROOT
BRANCH   7  14
ATOM     14  C   UNL     1       3.669   6.950  17.760  0.00  0.00    +0.000 C 
ATOM     15  O   UNL     1       4.130   7.030  16.620  0.00  0.00    +0.000 OA
ATOM     16  N   UNL     1       2.753   7.887  18.144  0.00  0.00    +0.000 N 
ATOM     17  H   UNL     1       2.633   8.638  17.468  0.00  0.00    +0.000 HD
BRANCH  16  18
ATOM     18  C   UNL     1       2.150   8.014  19.445  0.00  0.00    +0.000 C 
BRANCH  18  19
ATOM     19  C   UNL     1       1.104   9.080  19.499  0.00  0.00    +0.000 A 
ATOM     20  C   UNL     1       0.648   9.618  18.283  0.00  0.00    +0.000 A 
ATOM     21  C   UNL     1      -0.379  10.557  18.268  0.00  0.00    +0.000 A 
ATOM     22  C   UNL     1      -0.946  10.975  19.469  0.00  0.00    +0.000 A 
ATOM     23 CL   UNL     1      -2.230  12.115  19.449  0.00  0.00    +0.000 Cl
ATOM     24  C   UNL     1      -0.485  10.474  20.684  0.00  0.00    +0.000 A 
ATOM     25  C   UNL     1       0.542   9.533  20.701  0.00  0.00    +0.000 A 
ATOM     26 CL   UNL     1       1.071   8.943  22.236  0.00  0.00    +0.000 Cl
ENDBRANCH  18  19
ENDBRANCH  16  18
ENDBRANCH   7  14
TORSDOF 3
ENDMDL
MODEL 9
REMARK VINA RESULT:      -7.2      1.287      1.698
REMARK  Name = 
REMARK  3 active torsions:
REMARK  status: ('A' for Active; 'I' for Inactive)
REMARK    1  A    between atoms: C_7  and  C_8
REMARK    2  A    between atoms: N_10  and  C_11
REMARK    3  A    between atoms: C_11  and  C_12
REMARK                            x       y       z     vdW  Elec       q    Type
REMARK                         _______ _______ _______ _____ _____    ______ ____
ROOT
ATOM      1  N   UNL     1       7.313   5.525  15.792  0.00  0.00    +0.000 N 
ATOM      2  C   UNL     1       6.161   5.323  16.450  0.00  0.00    +0.000 A 
ATOM      3  N   UNL     1       5.767   4.145  16.863  0.00  0.00    +0.000 NA
ATOM      4  C   UNL     1       4.532   4.237  17.494  0.00  0.00    +0.000 A 
ATOM      5  C   UNL     1       4.012   5.521  17.531  0.00  0.00    +0.000 A 
ATOM      6  S   UNL     1       5.107   6.621  16.807  0.00  0.00    +0.000 S 
ATOM      7  C   UNL     1       2.668   5.985  18.017  0.00  0.00    +0.000 C 
ATOM      8  C   UNL     1       1.609   4.943  17.600  0.00  0.00    +0.000 C 
ATOM      9  C   UNL     1       1.488   3.718  18.509  0.00  0.00    +0.000 C 
ATOM     10  C   UNL     1       2.800   3.114  19.015  0.00  0.00    +0.000 C 
ATOM     11  C   UNL     1       3.888   2.963  17.953  0.00  0.00    +0.000 C 
ATOM     12  H   UNL     1       7.995   4.783  15.887  0.00  0.00    +0.000 HD
ATOM     13  H   UNL     1       7.706   6.458  15.826  0.00  0.00    +0.000 HD
ENDROOT
BRANCH   7  14
ATOM     14  C   UNL     1       2.715   6.326  19.524  0.00  0.00    +0.000 C 
ATOM     15  O   UNL     1       3.283   5.631  20.369  0.00  0.00    +0.000 OA
ATOM     16  N   UNL     1       2.128   7.485  19.943  0.00  0.00    +0.000 N 
ATOM     17  H   UNL     1       2.123   7.595  20.955  0.00  0.00    +0.000 HD
BRANCH  16  18
ATOM     18  C   UNL     1       1.359   8.397  19.136  0.00  0.00    +0.000 C 
BRANCH  18  19
ATOM     19  C   UNL     1       0.989   9.648  19.866  0.00  0.00    +0.000 A 
ATOM     20  C   UNL     1       1.429  10.874  19.337  0.00  0.00    +0.000 A 
ATOM     21  C   UNL     1       1.049  12.075  19.929  0.00  0.00    +0.000 A 
ATOM     22  C   UNL     1       0.241  12.057  21.062  0.00  0.00    +0.000 A 
ATOM     23 CL   UNL     1      -0.248  13.540  21.779  0.00  0.00    +0.000 Cl
ATOM     24  C   UNL     1      -0.179  10.849  21.616  0.00  0.00    +0.000 A 
ATOM     25  C   UNL     1       0.198   9.647  21.024  0.00  0.00    +0.000 A 
ATOM     26 CL   UNL     1      -0.354   8.180  21.751  0.00  0.00    +0.000 Cl
ENDBRANCH  18  19
ENDBRANCH  16  18
ENDBRANCH   7  14
TORSDOF 3
ENDMDL
