MODEL 1
REMARK VINA RESULT:      -8.1      0.000      0.000
REMARK  Name = 
REMARK  6 active torsions:
REMARK  status: ('A' for Active; 'I' for Inactive)
REMARK    1  A    between atoms: O_1  and  C_2
REMARK    2  A    between atoms: C_2  and  C_3
REMARK    3  A    between atoms: C_2  and  C_21
REMARK    4  A    between atoms: C_3  and  N_4
REMARK    5  A    between atoms: C_7  and  C_8
REMARK    6  A    between atoms: C_11  and  C_12
REMARK                            x       y       z     vdW  Elec       q    Type
REMARK                         _______ _______ _______ _____ _____    ______ ____
ROOT
ATOM      1  N   UNL     1       3.198   5.735  20.024  0.00  0.00    +0.000 N 
ATOM      2  C   UNL     1       2.574   6.890  19.500  0.00  0.00    +0.000 A 
ATOM      3  C   UNL     1       1.840   7.680  20.365  0.00  0.00    +0.000 A 
ATOM      4  C   UNL     1       1.275   8.835  19.850  0.00  0.00    +0.000 A 
ATOM      5  N   UNL     1       1.476   9.201  18.565  0.00  0.00    +0.000 NA
ATOM      6  C   UNL     1       2.234   8.389  17.823  0.00  0.00    +0.000 A 
ATOM      7  N   UNL     1       2.788   7.241  18.227  0.00  0.00    +0.000 NA
ATOM      8  H   UNL     1       4.065   6.071  20.443  0.00  0.00    +0.000 HD
ENDROOT
BRANCH   4   9
ATOM      9  C   UNL     1       0.416   9.742  20.639  0.00  0.00    +0.000 A 
ATOM     10  C   UNL     1      -0.267  10.825  20.057  0.00  0.00    +0.000 A 
ATOM     11  C   UNL     1      -1.095  11.659  20.818  0.00  0.00    +0.000 A 
ATOM     12  C   UNL     1      -1.267  11.437  22.189  0.00  0.00    +0.000 A 
ATOM     13  C   UNL     1      -0.588  10.370  22.785  0.00  0.00    +0.000 A 
ATOM     14  C   UNL     1       0.238   9.538  22.019  0.00  0.00    +0.000 A 
BRANCH  12  15
ATOM     15  C   UNL     1      -2.180  12.311  23.016  0.00  0.00    +0.000 C 
ATOM     16  F   UNL     1      -1.515  13.215  23.791  0.00  0.00    +0.000 F 
ATOM     17  F   UNL     1      -3.040  13.041  22.252  0.00  0.00    +0.000 F 
ATOM     18  F   UNL     1      -2.960  11.592  23.871  0.00  0.00    +0.000 F 
ENDBRANCH  12  15
ENDBRANCH   4   9
BRANCH   1  19
ATOM     19  C   UNL     1       3.494   4.734  18.975  0.00  0.00    +0.000 C 
BRANCH  19  20
ATOM     20  C   UNL     1       5.008   4.430  18.937  0.00  0.00    +0.000 C 
BRANCH  20  21
ATOM     21  C   UNL     1       5.558   4.465  17.526  0.00  0.00    +0.000 A 
ATOM     22  C   UNL     1       6.930   4.674  17.316  0.00  0.00    +0.000 A 
ATOM     23  C   UNL     1       7.456   4.719  16.022  0.00  0.00    +0.000 A 
ATOM     24  C   UNL     1       6.618   4.548  14.923  0.00  0.00    +0.000 A 
ATOM     25  C   UNL     1       5.257   4.321  15.116  0.00  0.00    +0.000 A 
ATOM     26  C   UNL     1       4.731   4.274  16.408  0.00  0.00    +0.000 A 
ENDBRANCH  20  21
BRANCH  20  27
ATOM     27  O   UNL     1       5.708   5.377  19.758  0.00  0.00    +0.000 OA
ATOM     28  H   UNL     1       5.486   5.148  20.675  0.00  0.00    +0.000 HD
ENDBRANCH  20  27
ENDBRANCH  19  20
ENDBRANCH   1  19
TORSDOF 6
ENDMDL
MODEL 2
REMARK VINA RESULT:      -8.1      0.112      1.210
REMARK  Name = 
REMARK  6 active torsions:
REMARK  status: ('A' for Active; 'I' for Inactive)
REMARK    1  A    between atoms: O_1  and  C_2
REMARK    2  A    between atoms: C_2  and  C_3
REMARK    3  A    between atoms: C_2  and  C_21
REMARK    4  A    between atoms: C_3  and  N_4
REMARK    5  A    between atoms: C_7  and  C_8
REMARK    6  A    between atoms: C_11  and  C_12
REMARK                            x       y       z     vdW  Elec       q    Type
REMARK                         _______ _______ _______ _____ _____    ______ ____
ROOT
ATOM      1  N   UNL     1       3.226   5.631  20.045  0.00  0.00    +0.000 N 
ATOM      2  C   UNL     1       2.625   6.808  19.546  0.00  0.00    +0.000 A 
ATOM      3  C   UNL     1       1.860   7.566  20.414  0.00  0.00    +0.000 A 
ATOM      4  C   UNL     1       1.317   8.742  19.925  0.00  0.00    +0.000 A 
ATOM      5  N   UNL     1       1.568   9.160  18.665  0.00  0.00    +0.000 NA
ATOM      6  C   UNL     1       2.352   8.375  17.920  0.00  0.00    +0.000 A 
ATOM      7  N   UNL     1       2.887   7.210  18.297  0.00  0.00    +0.000 NA
ATOM      8  H   UNL     1       4.077   5.945  20.510  0.00  0.00    +0.000 HD
ENDROOT
BRANCH   4   9
ATOM      9  C   UNL     1       0.432   9.620  20.718  0.00  0.00    +0.000 A 
ATOM     10  C   UNL     1       0.279   9.475  22.108  0.00  0.00    +0.000 A 
ATOM     11  C   UNL     1      -0.546  10.334  22.845  0.00  0.00    +0.000 A 
ATOM     12  C   UNL     1      -1.248  11.366  22.213  0.00  0.00    +0.000 A 
ATOM     13  C   UNL     1      -1.114  11.520  20.830  0.00  0.00    +0.000 A 
ATOM     14  C   UNL     1      -0.286  10.659  20.098  0.00  0.00    +0.000 A 
BRANCH  12  15
ATOM     15  C   UNL     1      -2.120  12.317  23.000  0.00  0.00    +0.000 C 
ATOM     16  F   UNL     1      -3.001  11.689  23.830  0.00  0.00    +0.000 F 
ATOM     17  F   UNL     1      -1.396  13.155  23.793  0.00  0.00    +0.000 F 
ATOM     18  F   UNL     1      -2.873  13.121  22.198  0.00  0.00    +0.000 F 
ENDBRANCH  12  15
ENDBRANCH   4   9
BRANCH   1  19
ATOM     19  C   UNL     1       3.559   4.672  18.969  0.00  0.00    +0.000 C 
BRANCH  19  20
ATOM     20  C   UNL     1       5.083   4.427  18.922  0.00  0.00    +0.000 C 
BRANCH  20  21
ATOM     21  C   UNL     1       5.622   4.474  17.507  0.00  0.00    +0.000 A 
ATOM     22  C   UNL     1       6.988   4.714  17.288  0.00  0.00    +0.000 A 
ATOM     23  C   UNL     1       7.503   4.770  15.990  0.00  0.00    +0.000 A 
ATOM     24  C   UNL     1       6.661   4.582  14.896  0.00  0.00    +0.000 A 
ATOM     25  C   UNL     1       5.307   4.324  15.099  0.00  0.00    +0.000 A 
ATOM     26  C   UNL     1       4.792   4.266  16.395  0.00  0.00    +0.000 A 
ENDBRANCH  20  21
BRANCH  20  27
ATOM     27  O   UNL     1       5.750   5.406  19.732  0.00  0.00    +0.000 OA
ATOM     28  H   UNL     1       6.391   5.842  19.147  0.00  0.00    +0.000 HD
ENDBRANCH  20  27
ENDBRANCH  19  20
ENDBRANCH   1  19
TORSDOF 6
ENDMDL
MODEL 3
REMARK VINA RESULT:      -8.1      0.188      1.208
REMARK  Name = 
REMARK  6 active torsions:
REMARK  status: ('A' for Active; 'I' for Inactive)
REMARK    1  A    between atoms: O_1  and  C_2
REMARK    2  A    between atoms: C_2  and  C_3
REMARK    3  A    between atoms: C_2  and  C_21
REMARK    4  A    between atoms: C_3  and  N_4
REMARK    5  A    between atoms: C_7  and  C_8
REMARK    6  A    between atoms: C_11  and  C_12
REMARK                            x       y       z     vdW  Elec       q    Type
REMARK                         _______ _______ _______ _____ _____    ______ ____
ROOT
ATOM      1  N   UNL     1       3.267   5.538  20.051  0.00  0.00    +0.000 N 
ATOM      2  C   UNL     1       2.676   6.708  19.522  0.00  0.00    +0.000 A 
ATOM      3  C   UNL     1       1.929   7.500  20.375  0.00  0.00    +0.000 A 
ATOM      4  C   UNL     1       1.397   8.669  19.856  0.00  0.00    +0.000 A 
ATOM      5  N   UNL     1       1.641   9.047  18.582  0.00  0.00    +0.000 NA
ATOM      6  C   UNL     1       2.409   8.231  17.854  0.00  0.00    +0.000 A 
ATOM      7  N   UNL     1       2.933   7.070  18.260  0.00  0.00    +0.000 NA
ATOM      8  H   UNL     1       4.126   5.856  20.500  0.00  0.00    +0.000 HD
ENDROOT
BRANCH   4   9
ATOM      9  C   UNL     1       0.529   9.581  20.630  0.00  0.00    +0.000 A 
ATOM     10  C   UNL     1      -0.072  10.714  20.054  0.00  0.00    +0.000 A 
ATOM     11  C   UNL     1      -0.912  11.552  20.799  0.00  0.00    +0.000 A 
ATOM     12  C   UNL     1      -1.176  11.284  22.147  0.00  0.00    +0.000 A 
ATOM     13  C   UNL     1      -0.579  10.166  22.737  0.00  0.00    +0.000 A 
ATOM     14  C   UNL     1       0.258   9.330  21.987  0.00  0.00    +0.000 A 
BRANCH  12  15
ATOM     15  C   UNL     1      -2.102  12.163  22.954  0.00  0.00    +0.000 C 
ATOM     16  F   UNL     1      -2.861  11.475  23.854  0.00  0.00    +0.000 F 
ATOM     17  F   UNL     1      -1.432  13.104  23.677  0.00  0.00    +0.000 F 
ATOM     18  F   UNL     1      -2.983  12.850  22.174  0.00  0.00    +0.000 F 
ENDBRANCH  12  15
ENDBRANCH   4   9
BRANCH   1  19
ATOM     19  C   UNL     1       3.579   4.544  19.000  0.00  0.00    +0.000 C 
BRANCH  19  20
ATOM     20  C   UNL     1       5.106   4.328  18.904  0.00  0.00    +0.000 C 
BRANCH  20  21
ATOM     21  C   UNL     1       5.602   4.422  17.475  0.00  0.00    +0.000 A 
ATOM     22  C   UNL     1       4.709   4.212  16.412  0.00  0.00    +0.000 A 
ATOM     23  C   UNL     1       5.149   4.284  15.087  0.00  0.00    +0.000 A 
ATOM     24  C   UNL     1       6.482   4.572  14.809  0.00  0.00    +0.000 A 
ATOM     25  C   UNL     1       7.376   4.801  15.854  0.00  0.00    +0.000 A 
ATOM     26  C   UNL     1       6.937   4.731  17.177  0.00  0.00    +0.000 A 
ENDBRANCH  20  21
BRANCH  20  27
ATOM     27  O   UNL     1       5.779   5.297  19.720  0.00  0.00    +0.000 OA
ATOM     28  H   UNL     1       6.065   6.001  19.115  0.00  0.00    +0.000 HD
ENDBRANCH  20  27
ENDBRANCH  19  20
ENDBRANCH   1  19
TORSDOF 6
ENDMDL
MODEL 4
REMARK VINA RESULT:      -8.0      5.957     10.213
REMARK  Name = 
REMARK  6 active torsions:
REMARK  status: ('A' for Active; 'I' for Inactive)
REMARK    1  A    between atoms: O_1  and  C_2
REMARK    2  A    between atoms: C_2  and  C_3
REMARK    3  A    between atoms: C_2  and  C_21
REMARK    4  A    between atoms: C_3  and  N_4
REMARK    5  A    between atoms: C_7  and  C_8
REMARK    6  A    between atoms: C_11  and  C_12
REMARK                            x       y       z     vdW  Elec       q    Type
REMARK                         _______ _______ _______ _____ _____    ______ ____
ROOT
ATOM      1  N   UNL     1       0.378  10.669  18.098  0.00  0.00    +0.000 N 
ATOM      2  C   UNL     1       0.975   9.532  18.687  0.00  0.00    +0.000 A 
ATOM      3  C   UNL     1       1.894   8.820  17.937  0.00  0.00    +0.000 A 
ATOM      4  C   UNL     1       2.509   7.737  18.543  0.00  0.00    +0.000 A 
ATOM      5  N   UNL     1       2.259   7.419  19.832  0.00  0.00    +0.000 NA
ATOM      6  C   UNL     1       1.385   8.195  20.481  0.00  0.00    +0.000 A 
ATOM      7  N   UNL     1       0.721   9.234  19.966  0.00  0.00    +0.000 NA
ATOM      8  H   UNL     1       1.056  11.420  18.227  0.00  0.00    +0.000 HD
ENDROOT
BRANCH   4   9
ATOM      9  C   UNL     1       3.464   6.849  17.847  0.00  0.00    +0.000 A 
ATOM     10  C   UNL     1       3.533   5.470  18.108  0.00  0.00    +0.000 A 
ATOM     11  C   UNL     1       4.429   4.641  17.419  0.00  0.00    +0.000 A 
ATOM     12  C   UNL     1       5.285   5.168  16.446  0.00  0.00    +0.000 A 
ATOM     13  C   UNL     1       5.235   6.540  16.180  0.00  0.00    +0.000 A 
ATOM     14  C   UNL     1       4.336   7.363  16.871  0.00  0.00    +0.000 A 
BRANCH  12  15
ATOM     15  C   UNL     1       6.236   4.281  15.676  0.00  0.00    +0.000 C 
ATOM     16  F   UNL     1       7.494   4.245  16.201  0.00  0.00    +0.000 F 
ATOM     17  F   UNL     1       5.818   2.986  15.625  0.00  0.00    +0.000 F 
ATOM     18  F   UNL     1       6.385   4.676  14.380  0.00  0.00    +0.000 F 
ENDBRANCH  12  15
ENDBRANCH   4   9
BRANCH   1  19
ATOM     19  C   UNL     1      -0.905  11.025  18.744  0.00  0.00    +0.000 C 
BRANCH  19  20
ATOM     20  C   UNL     1      -2.005  11.220  17.677  0.00  0.00    +0.000 C 
BRANCH  20  21
ATOM     21  C   UNL     1      -3.357  11.499  18.302  0.00  0.00    +0.000 A 
ATOM     22  C   UNL     1      -4.517  10.962  17.721  0.00  0.00    +0.000 A 
ATOM     23  C   UNL     1      -5.775  11.215  18.276  0.00  0.00    +0.000 A 
ATOM     24  C   UNL     1      -5.888  12.000  19.421  0.00  0.00    +0.000 A 
ATOM     25  C   UNL     1      -4.743  12.524  20.018  0.00  0.00    +0.000 A 
ATOM     26  C   UNL     1      -3.486  12.271  19.466  0.00  0.00    +0.000 A 
ENDBRANCH  20  21
BRANCH  20  27
ATOM     27  O   UNL     1      -1.639  12.297  16.803  0.00  0.00    +0.000 OA
ATOM     28  H   UNL     1      -2.451  12.810  16.661  0.00  0.00    +0.000 HD
ENDBRANCH  20  27
ENDBRANCH  19  20
ENDBRANCH   1  19
TORSDOF 6
ENDMDL
MODEL 5
REMARK VINA RESULT:      -8.0      5.900     10.180
REMARK  Name = 
REMARK  6 active torsions:
REMARK  status: ('A' for Active; 'I' for Inactive)
REMARK    1  A    between atoms: O_1  and  C_2
REMARK    2  A    between atoms: C_2  and  C_3
REMARK    3  A    between atoms: C_2  and  C_21
REMARK    4  A    between atoms: C_3  and  N_4
REMARK    5  A    between atoms: C_7  and  C_8
REMARK    6  A    between atoms: C_11  and  C_12
REMARK                            x       y       z     vdW  Elec       q    Type
REMARK                         _______ _______ _______ _____ _____    ______ ____
ROOT
ATOM      1  N   UNL     1       0.415  10.768  18.168  0.00  0.00    +0.000 N 
ATOM      2  C   UNL     1       1.007   9.608  18.716  0.00  0.00    +0.000 A 
ATOM      3  C   UNL     1       1.872   8.882  17.918  0.00  0.00    +0.000 A 
ATOM      4  C   UNL     1       2.483   7.775  18.483  0.00  0.00    +0.000 A 
ATOM      5  N   UNL     1       2.284   7.448  19.779  0.00  0.00    +0.000 NA
ATOM      6  C   UNL     1       1.461   8.239  20.475  0.00  0.00    +0.000 A 
ATOM      7  N   UNL     1       0.803   9.302  20.002  0.00  0.00    +0.000 NA
ATOM      8  H   UNL     1       1.117  11.499  18.274  0.00  0.00    +0.000 HD
ENDROOT
BRANCH   4   9
ATOM      9  C   UNL     1       3.382   6.871  17.735  0.00  0.00    +0.000 A 
ATOM     10  C   UNL     1       4.440   7.351  16.943  0.00  0.00    +0.000 A 
ATOM     11  C   UNL     1       5.296   6.477  16.261  0.00  0.00    +0.000 A 
ATOM     12  C   UNL     1       5.119   5.092  16.349  0.00  0.00    +0.000 A 
ATOM     13  C   UNL     1       4.066   4.598  17.125  0.00  0.00    +0.000 A 
ATOM     14  C   UNL     1       3.214   5.477  17.806  0.00  0.00    +0.000 A 
BRANCH  12  15
ATOM     15  C   UNL     1       6.052   4.136  15.642  0.00  0.00    +0.000 C 
ATOM     16  F   UNL     1       6.054   4.279  14.285  0.00  0.00    +0.000 F 
ATOM     17  F   UNL     1       7.349   4.287  16.031  0.00  0.00    +0.000 F 
ATOM     18  F   UNL     1       5.741   2.831  15.877  0.00  0.00    +0.000 F 
ENDBRANCH  12  15
ENDBRANCH   4   9
BRANCH   1  19
ATOM     19  C   UNL     1      -0.828  11.150  18.875  0.00  0.00    +0.000 C 
BRANCH  19  20
ATOM     20  C   UNL     1      -2.021  11.155  17.894  0.00  0.00    +0.000 C 
BRANCH  20  21
ATOM     21  C   UNL     1      -3.302  11.613  18.562  0.00  0.00    +0.000 A 
ATOM     22  C   UNL     1      -3.240  12.398  19.724  0.00  0.00    +0.000 A 
ATOM     23  C   UNL     1      -4.409  12.823  20.362  0.00  0.00    +0.000 A 
ATOM     24  C   UNL     1      -5.653  12.474  19.843  0.00  0.00    +0.000 A 
ATOM     25  C   UNL     1      -5.730  11.710  18.680  0.00  0.00    +0.000 A 
ATOM     26  C   UNL     1      -4.563  11.286  18.041  0.00  0.00    +0.000 A 
ENDBRANCH  20  21
BRANCH  20  27
ATOM     27  O   UNL     1      -1.721  12.005  16.777  0.00  0.00    +0.000 OA
ATOM     28  H   UNL     1      -1.669  11.418  16.005  0.00  0.00    +0.000 HD
ENDBRANCH  20  27
ENDBRANCH  19  20
ENDBRANCH   1  19
TORSDOF 6
ENDMDL
MODEL 6
REMARK VINA RESULT:      -7.9      1.734      2.972
REMARK  Name = 
REMARK  6 active torsions:
REMARK  status: ('A' for Active; 'I' for Inactive)
REMARK    1  A    between atoms: O_1  and  C_2
REMARK    2  A    between atoms: C_2  and  C_3
REMARK    3  A    between atoms: C_2  and  C_21
REMARK    4  A    between atoms: C_3  and  N_4
REMARK    5  A    between atoms: C_7  and  C_8
REMARK    6  A    between atoms: C_11  and  C_12
REMARK                            x       y       z     vdW  Elec       q    Type
REMARK                         _______ _______ _______ _____ _____    ______ ____
ROOT
ATOM      1  N   UNL     1       4.459   6.713  16.651  0.00  0.00    +0.000 N 
ATOM      2  C   UNL     1       3.784   6.512  17.876  0.00  0.00    +0.000 A 
ATOM      3  C   UNL     1       2.981   7.534  18.350  0.00  0.00    +0.000 A 
ATOM      4  C   UNL     1       2.287   7.305  19.526  0.00  0.00    +0.000 A 
ATOM      5  N   UNL     1       2.350   6.112  20.158  0.00  0.00    +0.000 NA
ATOM      6  C   UNL     1       3.123   5.178  19.596  0.00  0.00    +0.000 A 
ATOM      7  N   UNL     1       3.854   5.324  18.486  0.00  0.00    +0.000 NA
ATOM      8  H   UNL     1       3.769   6.498  15.931  0.00  0.00    +0.000 HD
ENDROOT
BRANCH   4   9
ATOM      9  C   UNL     1       1.440   8.323  20.183  0.00  0.00    +0.000 A 
ATOM     10  C   UNL     1       1.127   8.269  21.552  0.00  0.00    +0.000 A 
ATOM     11  C   UNL     1       0.343   9.258  22.161  0.00  0.00    +0.000 A 
ATOM     12  C   UNL     1      -0.154  10.334  21.416  0.00  0.00    +0.000 A 
ATOM     13  C   UNL     1       0.142  10.398  20.051  0.00  0.00    +0.000 A 
ATOM     14  C   UNL     1       0.927   9.407  19.449  0.00  0.00    +0.000 A 
BRANCH  12  15
ATOM     15  C   UNL     1      -0.976  11.422  22.065  0.00  0.00    +0.000 C 
ATOM     16  F   UNL     1      -0.243  12.510  22.440  0.00  0.00    +0.000 F 
ATOM     17  F   UNL     1      -1.954  11.899  21.245  0.00  0.00    +0.000 F 
ATOM     18  F   UNL     1      -1.611  10.996  23.193  0.00  0.00    +0.000 F 
ENDBRANCH  12  15
ENDBRANCH   4   9
BRANCH   1  19
ATOM     19  C   UNL     1       5.637   5.829  16.508  0.00  0.00    +0.000 C 
BRANCH  19  20
ATOM     20  C   UNL     1       5.252   4.545  15.741  0.00  0.00    +0.000 C 
BRANCH  20  21
ATOM     21  C   UNL     1       5.978   4.438  14.416  0.00  0.00    +0.000 A 
ATOM     22  C   UNL     1       5.481   3.589  13.415  0.00  0.00    +0.000 A 
ATOM     23  C   UNL     1       6.140   3.468  12.188  0.00  0.00    +0.000 A 
ATOM     24  C   UNL     1       7.301   4.199  11.946  0.00  0.00    +0.000 A 
ATOM     25  C   UNL     1       7.797   5.059  12.923  0.00  0.00    +0.000 A 
ATOM     26  C   UNL     1       7.137   5.182  14.148  0.00  0.00    +0.000 A 
ENDBRANCH  20  21
BRANCH  20  27
ATOM     27  O   UNL     1       5.543   3.397  16.553  0.00  0.00    +0.000 OA
ATOM     28  H   UNL     1       6.496   3.435  16.733  0.00  0.00    +0.000 HD
ENDBRANCH  20  27
ENDBRANCH  19  20
ENDBRANCH   1  19
TORSDOF 6
ENDMDL
MODEL 7
REMARK VINA RESULT:      -7.9      6.027     10.232
REMARK  Name = 
REMARK  6 active torsions:
REMARK  status: ('A' for Active; 'I' for Inactive)
REMARK    1  A    between atoms: O_1  and  C_2
REMARK    2  A    between atoms: C_2  and  C_3
REMARK    3  A    between atoms: C_2  and  C_21
REMARK    4  A    between atoms: C_3  and  N_4
REMARK    5  A    between atoms: C_7  and  C_8
REMARK    6  A    between atoms: C_11  and  C_12
REMARK                            x       y       z     vdW  Elec       q    Type
REMARK                         _______ _______ _______ _____ _____    ______ ____
ROOT
ATOM      1  N   UNL     1       0.228  10.298  17.866  0.00  0.00    +0.000 N 
ATOM      2  C   UNL     1       0.942   9.273  18.527  0.00  0.00    +0.000 A 
ATOM      3  C   UNL     1       1.922   8.603  17.817  0.00  0.00    +0.000 A 
ATOM      4  C   UNL     1       2.648   7.635  18.491  0.00  0.00    +0.000 A 
ATOM      5  N   UNL     1       2.442   7.391  19.804  0.00  0.00    +0.000 NA
ATOM      6  C   UNL     1       1.499   8.121  20.407  0.00  0.00    +0.000 A 
ATOM      7  N   UNL     1       0.729   9.048  19.828  0.00  0.00    +0.000 NA
ATOM      8  H   UNL     1       0.828  11.121  17.929  0.00  0.00    +0.000 HD
ENDROOT
BRANCH   4   9
ATOM      9  C   UNL     1       3.682   6.798  17.847  0.00  0.00    +0.000 A 
ATOM     10  C   UNL     1       4.041   5.534  18.345  0.00  0.00    +0.000 A 
ATOM     11  C   UNL     1       5.006   4.745  17.706  0.00  0.00    +0.000 A 
ATOM     12  C   UNL     1       5.645   5.199  16.547  0.00  0.00    +0.000 A 
ATOM     13  C   UNL     1       5.306   6.459  16.043  0.00  0.00    +0.000 A 
ATOM     14  C   UNL     1       4.339   7.242  16.686  0.00  0.00    +0.000 A 
BRANCH  12  15
ATOM     15  C   UNL     1       6.668   4.347  15.831  0.00  0.00    +0.000 C 
ATOM     16  F   UNL     1       7.215   4.954  14.739  0.00  0.00    +0.000 F 
ATOM     17  F   UNL     1       7.717   4.007  16.630  0.00  0.00    +0.000 F 
ATOM     18  F   UNL     1       6.146   3.172  15.380  0.00  0.00    +0.000 F 
ENDBRANCH  12  15
ENDBRANCH   4   9
BRANCH   1  19
ATOM     19  C   UNL     1      -1.079  10.571  18.503  0.00  0.00    +0.000 C 
BRANCH  19  20
ATOM     20  C   UNL     1      -1.991  11.360  17.538  0.00  0.00    +0.000 C 
BRANCH  20  21
ATOM     21  C   UNL     1      -3.383  11.553  18.104  0.00  0.00    +0.000 A 
ATOM     22  C   UNL     1      -3.551  12.211  19.333  0.00  0.00    +0.000 A 
ATOM     23  C   UNL     1      -4.825  12.391  19.878  0.00  0.00    +0.000 A 
ATOM     24  C   UNL     1      -5.947  11.922  19.199  0.00  0.00    +0.000 A 
ATOM     25  C   UNL     1      -5.797  11.283  17.969  0.00  0.00    +0.000 A 
ATOM     26  C   UNL     1      -4.524  11.105  17.424  0.00  0.00    +0.000 A 
ENDBRANCH  20  21
BRANCH  20  27
ATOM     27  O   UNL     1      -1.397  12.635  17.252  0.00  0.00    +0.000 OA
ATOM     28  H   UNL     1      -2.128  13.211  16.974  0.00  0.00    +0.000 HD
ENDBRANCH  20  27
ENDBRANCH  19  20
ENDBRANCH   1  19
TORSDOF 6
ENDMDL
MODEL 8
REMARK VINA RESULT:      -7.9      5.908      9.611
REMARK  Name = 
REMARK  6 active torsions:
REMARK  status: ('A' for Active; 'I' for Inactive)
REMARK    1  A    between atoms: O_1  and  C_2
REMARK    2  A    between atoms: C_2  and  C_3
REMARK    3  A    between atoms: C_2  and  C_21
REMARK    4  A    between atoms: C_3  and  N_4
REMARK    5  A    between atoms: C_7  and  C_8
REMARK    6  A    between atoms: C_11  and  C_12
REMARK                            x       y       z     vdW  Elec       q    Type
REMARK                         _______ _______ _______ _____ _____    ______ ____
ROOT
ATOM      1  N   UNL     1       0.868  10.153  19.512  0.00  0.00    +0.000 N 
ATOM      2  C   UNL     1       1.316   8.822  19.664  0.00  0.00    +0.000 A 
ATOM      3  C   UNL     1       2.159   8.305  18.697  0.00  0.00    +0.000 A 
ATOM      4  C   UNL     1       2.630   7.017  18.884  0.00  0.00    +0.000 A 
ATOM      5  N   UNL     1       2.320   6.310  19.993  0.00  0.00    +0.000 NA
ATOM      6  C   UNL     1       1.531   6.915  20.886  0.00  0.00    +0.000 A 
ATOM      7  N   UNL     1       1.004   8.138  20.771  0.00  0.00    +0.000 NA
ATOM      8  H   UNL     1       1.627  10.731  19.874  0.00  0.00    +0.000 HD
ENDROOT
BRANCH   4   9
ATOM      9  C   UNL     1       3.487   6.314  17.906  0.00  0.00    +0.000 A 
ATOM     10  C   UNL     1       3.482   4.914  17.774  0.00  0.00    +0.000 A 
ATOM     11  C   UNL     1       4.284   4.269  16.823  0.00  0.00    +0.000 A 
ATOM     12  C   UNL     1       5.118   5.005  15.975  0.00  0.00    +0.000 A 
ATOM     13  C   UNL     1       5.141   6.397  16.099  0.00  0.00    +0.000 A 
ATOM     14  C   UNL     1       4.336   7.037  17.050  0.00  0.00    +0.000 A 
BRANCH  12  15
ATOM     15  C   UNL     1       5.967   4.324  14.926  0.00  0.00    +0.000 C 
ATOM     16  F   UNL     1       5.363   4.241  13.706  0.00  0.00    +0.000 F 
ATOM     17  F   UNL     1       7.149   4.965  14.713  0.00  0.00    +0.000 F 
ATOM     18  F   UNL     1       6.292   3.045  15.267  0.00  0.00    +0.000 F 
ENDBRANCH  12  15
ENDBRANCH   4   9
BRANCH   1  19
ATOM     19  C   UNL     1      -0.376  10.416  20.269  0.00  0.00    +0.000 C 
BRANCH  19  20
ATOM     20  C   UNL     1      -1.134  11.613  19.654  0.00  0.00    +0.000 C 
BRANCH  20  21
ATOM     21  C   UNL     1      -2.037  11.188  18.514  0.00  0.00    +0.000 A 
ATOM     22  C   UNL     1      -3.332  11.720  18.414  0.00  0.00    +0.000 A 
ATOM     23  C   UNL     1      -4.184  11.334  17.376  0.00  0.00    +0.000 A 
ATOM     24  C   UNL     1      -3.751  10.415  16.423  0.00  0.00    +0.000 A 
ATOM     25  C   UNL     1      -2.462   9.892  16.499  0.00  0.00    +0.000 A 
ATOM     26  C   UNL     1      -1.609  10.279  17.534  0.00  0.00    +0.000 A 
ENDBRANCH  20  21
BRANCH  20  27
ATOM     27  O   UNL     1      -1.906  12.266  20.672  0.00  0.00    +0.000 OA
ATOM     28  H   UNL     1      -2.524  11.596  21.006  0.00  0.00    +0.000 HD
ENDBRANCH  20  27
ENDBRANCH  19  20
ENDBRANCH   1  19
TORSDOF 6
ENDMDL
MODEL 9
REMARK VINA RESULT:      -7.8      1.919      3.421
REMARK  Name = 
REMARK  6 active torsions:
REMARK  status: ('A' for Active; 'I' for Inactive)
REMARK    1  A    between atoms: O_1  and  C_2
REMARK    2  A    between atoms: C_2  and  C_3
REMARK    3  A    between atoms: C_2  and  C_21
REMARK    4  A    between atoms: C_3  and  N_4
REMARK    5  A    between atoms: C_7  and  C_8
REMARK    6  A    between atoms: C_11  and  C_12
REMARK                            x       y       z     vdW  Elec       q    Type
REMARK                         _______ _______ _______ _____ _____    ______ ____
ROOT
ATOM      1  N   UNL     1       4.789   5.558  16.755  0.00  0.00    +0.000 N 
ATOM      2  C   UNL     1       3.981   5.564  17.914  0.00  0.00    +0.000 A 
ATOM      3  C   UNL     1       3.330   6.739  18.246  0.00  0.00    +0.000 A 
ATOM      4  C   UNL     1       2.502   6.717  19.356  0.00  0.00    +0.000 A 
ATOM      5  N   UNL     1       2.297   5.580  20.057  0.00  0.00    +0.000 NA
ATOM      6  C   UNL     1       2.942   4.490  19.630  0.00  0.00    +0.000 A 
ATOM      7  N   UNL     1       3.784   4.428  18.594  0.00  0.00    +0.000 NA
ATOM      8  H   UNL     1       4.141   5.410  15.982  0.00  0.00    +0.000 HD
ENDROOT
BRANCH   4   9
ATOM      9  C   UNL     1       1.792   7.910  19.864  0.00  0.00    +0.000 A 
ATOM     10  C   UNL     1       1.351   8.010  21.195  0.00  0.00    +0.000 A 
ATOM     11  C   UNL     1       0.701   9.159  21.664  0.00  0.00    +0.000 A 
ATOM     12  C   UNL     1       0.470  10.246  20.813  0.00  0.00    +0.000 A 
ATOM     13  C   UNL     1       0.895  10.159  19.484  0.00  0.00    +0.000 A 
ATOM     14  C   UNL     1       1.545   9.008  19.021  0.00  0.00    +0.000 A 
BRANCH  12  15
ATOM     15  C   UNL     1      -0.204  11.503  21.312  0.00  0.00    +0.000 C 
ATOM     16  F   UNL     1      -1.386  11.773  20.688  0.00  0.00    +0.000 F 
ATOM     17  F   UNL     1      -0.491  11.449  22.643  0.00  0.00    +0.000 F 
ATOM     18  F   UNL     1       0.568  12.613  21.142  0.00  0.00    +0.000 F 
ENDBRANCH  12  15
ENDBRANCH   4   9
BRANCH   1  19
ATOM     19  C   UNL     1       5.801   4.479  16.784  0.00  0.00    +0.000 C 
BRANCH  19  20
ATOM     20  C   UNL     1       7.084   4.928  16.050  0.00  0.00    +0.000 C 
BRANCH  20  21
ATOM     21  C   UNL     1       7.005   4.663  14.560  0.00  0.00    +0.000 A 
ATOM     22  C   UNL     1       6.110   3.699  14.069  0.00  0.00    +0.000 A 
ATOM     23  C   UNL     1       6.029   3.433  12.700  0.00  0.00    +0.000 A 
ATOM     24  C   UNL     1       6.836   4.130  11.804  0.00  0.00    +0.000 A 
ATOM     25  C   UNL     1       7.716   5.103  12.275  0.00  0.00    +0.000 A 
ATOM     26  C   UNL     1       7.796   5.371  13.643  0.00  0.00    +0.000 A 
ENDBRANCH  20  21
BRANCH  20  27
ATOM     27  O   UNL     1       7.307   6.326  16.287  0.00  0.00    +0.000 OA
ATOM     28  H   UNL     1       8.084   6.374  16.868  0.00  0.00    +0.000 HD
ENDBRANCH  20  27
ENDBRANCH  19  20
ENDBRANCH   1  19
TORSDOF 6
ENDMDL
