MODEL 1
REMARK VINA RESULT:      -7.3      0.000      0.000
REMARK  Name = 
REMARK  5 active torsions:
REMARK  status: ('A' for Active; 'I' for Inactive)
REMARK    1  A    between atoms: C_2  and  O_3
REMARK    2  A    between atoms: C_2  and  C_4
REMARK    3  A    between atoms: C_5  and  C_6
REMARK    4  A    between atoms: C_12  and  C_13
REMARK    5  A    between atoms: C_19  and  C_20
REMARK                            x       y       z     vdW  Elec       q    Type
REMARK                         _______ _______ _______ _____ _____    ______ ____
ROOT
ATOM      1  C   UNL     1       5.084   4.405  17.141  0.00  0.00    +0.000 A 
ATOM      2  C   UNL     1       3.823   3.986  17.676  0.00  0.00    +0.000 A 
ATOM      3  N   UNL     1       3.024   3.590  16.672  0.00  0.00    +0.000 NA
ATOM      4  O   UNL     1       3.788   3.610  15.522  0.00  0.00    +0.000 OA
ATOM      5  C   UNL     1       5.027   4.100  15.798  0.00  0.00    +0.000 A 
ENDROOT
BRANCH   2   6
ATOM      6  C   UNL     1       3.350   4.000  19.073  0.00  0.00    +0.000 A 
ATOM      7  C   UNL     1       3.506   2.849  19.889  0.00  0.00    +0.000 A 
ATOM      8 CL   UNL     1       4.558   1.528  19.477  0.00  0.00    +0.000 Cl
ATOM      9  C   UNL     1       2.902   2.753  21.150  0.00  0.00    +0.000 A 
ATOM     10  C   UNL     1       2.216   3.833  21.680  0.00  0.00    +0.000 A 
ATOM     11  C   UNL     1       2.153   5.014  20.953  0.00  0.00    +0.000 A 
ATOM     12  C   UNL     1       2.693   5.122  19.643  0.00  0.00    +0.000 A 
BRANCH  12  13
ATOM     13  C   UNL     1       2.522   6.496  19.019  0.00  0.00    +0.000 C 
ATOM     14  F   UNL     1       3.627   7.139  18.579  0.00  0.00    +0.000 F 
ATOM     15  F   UNL     1       1.703   6.437  17.924  0.00  0.00    +0.000 F 
ATOM     16  F   UNL     1       1.895   7.354  19.877  0.00  0.00    +0.000 F 
ENDBRANCH  12  13
ENDBRANCH   2   6
BRANCH   5  17
ATOM     17  C   UNL     1       5.956   4.225  14.672  0.00  0.00    +0.000 A 
ATOM     18  C   UNL     1       5.726   3.542  13.473  0.00  0.00    +0.000 A 
ATOM     19  C   UNL     1       6.521   3.782  12.348  0.00  0.00    +0.000 A 
ATOM     20  C   UNL     1       7.555   4.713  12.404  0.00  0.00    +0.000 A 
ATOM     21  C   UNL     1       7.830   5.368  13.598  0.00  0.00    +0.000 A 
ATOM     22  C   UNL     1       7.053   5.105  14.730  0.00  0.00    +0.000 A 
ENDBRANCH   5  17
BRANCH   1  24
ATOM     23  O   UNL     1       6.346   6.227  17.897  0.00  0.00    +0.000 OA
ATOM     24  C   UNL     1       6.192   5.015  17.815  0.00  0.00    +0.000 C 
BRANCH  24  25
ATOM     25  O   UNL     1       7.092   4.147  18.353  0.00  0.00    +0.000 OA
ATOM     26  H   UNL     1       7.326   4.345  19.281  0.00  0.00    +0.000 HD
ENDBRANCH  24  25
ENDBRANCH   1  24
TORSDOF 5
ENDMDL
MODEL 2
REMARK VINA RESULT:      -7.0      0.257      1.260
REMARK  Name = 
REMARK  5 active torsions:
REMARK  status: ('A' for Active; 'I' for Inactive)
REMARK    1  A    between atoms: C_2  and  O_3
REMARK    2  A    between atoms: C_2  and  C_4
REMARK    3  A    between atoms: C_5  and  C_6
REMARK    4  A    between atoms: C_12  and  C_13
REMARK    5  A    between atoms: C_19  and  C_20
REMARK                            x       y       z     vdW  Elec       q    Type
REMARK                         _______ _______ _______ _____ _____    ______ ____
ROOT
ATOM      1  C   UNL     1       4.914   4.389  17.210  0.00  0.00    +0.000 A 
ATOM      2  C   UNL     1       3.683   3.928  17.781  0.00  0.00    +0.000 A 
ATOM      3  N   UNL     1       2.846   3.564  16.797  0.00  0.00    +0.000 NA
ATOM      4  O   UNL     1       3.557   3.646  15.617  0.00  0.00    +0.000 OA
ATOM      5  C   UNL     1       4.801   4.142  15.858  0.00  0.00    +0.000 A 
ENDROOT
BRANCH   2   6
ATOM      6  C   UNL     1       3.274   3.873  19.197  0.00  0.00    +0.000 A 
ATOM      7  C   UNL     1       3.486   2.691  19.954  0.00  0.00    +0.000 A 
ATOM      8 CL   UNL     1       4.540   1.408  19.439  0.00  0.00    +0.000 Cl
ATOM      9  C   UNL     1       2.941   2.529  21.235  0.00  0.00    +0.000 A 
ATOM     10  C   UNL     1       2.262   3.572  21.842  0.00  0.00    +0.000 A 
ATOM     11  C   UNL     1       2.146   4.782  21.170  0.00  0.00    +0.000 A 
ATOM     12  C   UNL     1       2.625   4.957  19.844  0.00  0.00    +0.000 A 
BRANCH  12  13
ATOM     13  C   UNL     1       2.402   6.352  19.289  0.00  0.00    +0.000 C 
ATOM     14  F   UNL     1       1.718   7.238  20.047  0.00  0.00    +0.000 F 
ATOM     15  F   UNL     1       3.595   6.973  19.032  0.00  0.00    +0.000 F 
ATOM     16  F   UNL     1       1.766   6.308  18.081  0.00  0.00    +0.000 F 
ENDBRANCH  12  13
ENDBRANCH   2   6
BRANCH   5  17
ATOM     17  C   UNL     1       5.676   4.331  14.699  0.00  0.00    +0.000 A 
ATOM     18  C   UNL     1       6.815   5.140  14.785  0.00  0.00    +0.000 A 
ATOM     19  C   UNL     1       7.734   5.197  13.733  0.00  0.00    +0.000 A 
ATOM     20  C   UNL     1       7.531   4.439  12.581  0.00  0.00    +0.000 A 
ATOM     21  C   UNL     1       6.384   3.665  12.457  0.00  0.00    +0.000 A 
ATOM     22  C   UNL     1       5.451   3.634  13.498  0.00  0.00    +0.000 A 
ENDBRANCH   5  17
BRANCH   1  24
ATOM     23  O   UNL     1       6.160   6.193  18.034  0.00  0.00    +0.000 OA
ATOM     24  C   UNL     1       6.043   4.986  17.860  0.00  0.00    +0.000 C 
BRANCH  24  25
ATOM     25  O   UNL     1       7.006   4.114  18.266  0.00  0.00    +0.000 OA
ATOM     26  H   UNL     1       7.216   3.422  17.608  0.00  0.00    +0.000 HD
ENDBRANCH  24  25
ENDBRANCH   1  24
TORSDOF 5
ENDMDL
MODEL 3
REMARK VINA RESULT:      -6.8      3.469      6.992
REMARK  Name = 
REMARK  5 active torsions:
REMARK  status: ('A' for Active; 'I' for Inactive)
REMARK    1  A    between atoms: C_2  and  O_3
REMARK    2  A    between atoms: C_2  and  C_4
REMARK    3  A    between atoms: C_5  and  C_6
REMARK    4  A    between atoms: C_12  and  C_13
REMARK    5  A    between atoms: C_19  and  C_20
REMARK                            x       y       z     vdW  Elec       q    Type
REMARK                         _______ _______ _______ _____ _____    ______ ____
ROOT
ATOM      1  C   UNL     1       2.658   6.922  19.137  0.00  0.00    +0.000 A 
ATOM      2  C   UNL     1       3.351   6.921  17.884  0.00  0.00    +0.000 A 
ATOM      3  N   UNL     1       3.007   8.013  17.184  0.00  0.00    +0.000 NA
ATOM      4  O   UNL     1       2.221   8.788  18.014  0.00  0.00    +0.000 OA
ATOM      5  C   UNL     1       2.006   8.136  19.189  0.00  0.00    +0.000 A 
ENDROOT
BRANCH   2   6
ATOM      6  C   UNL     1       4.269   5.909  17.326  0.00  0.00    +0.000 A 
ATOM      7  C   UNL     1       5.611   6.255  17.024  0.00  0.00    +0.000 A 
ATOM      8 CL   UNL     1       6.375   7.702  17.611  0.00  0.00    +0.000 Cl
ATOM      9  C   UNL     1       6.455   5.387  16.317  0.00  0.00    +0.000 A 
ATOM     10  C   UNL     1       6.025   4.114  15.984  0.00  0.00    +0.000 A 
ATOM     11  C   UNL     1       4.757   3.706  16.376  0.00  0.00    +0.000 A 
ATOM     12  C   UNL     1       3.852   4.585  17.031  0.00  0.00    +0.000 A 
BRANCH  12  13
ATOM     13  C   UNL     1       2.518   3.947  17.375  0.00  0.00    +0.000 C 
ATOM     14  F   UNL     1       1.411   4.724  17.338  0.00  0.00    +0.000 F 
ATOM     15  F   UNL     1       2.236   2.912  16.526  0.00  0.00    +0.000 F 
ATOM     16  F   UNL     1       2.547   3.381  18.618  0.00  0.00    +0.000 F 
ENDBRANCH  12  13
ENDBRANCH   2   6
BRANCH   5  17
ATOM     17  C   UNL     1       1.152   8.807  20.173  0.00  0.00    +0.000 A 
ATOM     18  C   UNL     1       1.326   8.585  21.543  0.00  0.00    +0.000 A 
ATOM     19  C   UNL     1       0.622   9.340  22.486  0.00  0.00    +0.000 A 
ATOM     20  C   UNL     1      -0.263  10.333  22.072  0.00  0.00    +0.000 A 
ATOM     21  C   UNL     1      -0.485  10.537  20.715  0.00  0.00    +0.000 A 
ATOM     22  C   UNL     1       0.197   9.761  19.775  0.00  0.00    +0.000 A 
ENDBRANCH   5  17
BRANCH   1  24
ATOM     23  O   UNL     1       1.577   5.495  20.648  0.00  0.00    +0.000 OA
ATOM     24  C   UNL     1       2.616   5.906  20.147  0.00  0.00    +0.000 C 
BRANCH  24  25
ATOM     25  O   UNL     1       3.830   5.428  20.538  0.00  0.00    +0.000 OA
ATOM     26  H   UNL     1       3.987   4.497  20.289  0.00  0.00    +0.000 HD
ENDBRANCH  24  25
ENDBRANCH   1  24
TORSDOF 5
ENDMDL
MODEL 4
REMARK VINA RESULT:      -6.7      8.299     10.605
REMARK  Name = 
REMARK  5 active torsions:
REMARK  status: ('A' for Active; 'I' for Inactive)
REMARK    1  A    between atoms: C_2  and  O_3
REMARK    2  A    between atoms: C_2  and  C_4
REMARK    3  A    between atoms: C_5  and  C_6
REMARK    4  A    between atoms: C_12  and  C_13
REMARK    5  A    between atoms: C_19  and  C_20
REMARK                            x       y       z     vdW  Elec       q    Type
REMARK                         _______ _______ _______ _____ _____    ______ ____
ROOT
ATOM      1  C   UNL     1      -0.021  13.320  19.606  0.00  0.00    +0.000 A 
ATOM      2  C   UNL     1       0.568  12.557  20.666  0.00  0.00    +0.000 A 
ATOM      3  N   UNL     1       1.666  13.187  21.111  0.00  0.00    +0.000 NA
ATOM      4  O   UNL     1       1.719  14.404  20.462  0.00  0.00    +0.000 OA
ATOM      5  C   UNL     1       0.708  14.490  19.555  0.00  0.00    +0.000 A 
ENDROOT
BRANCH   2   6
ATOM      6  C   UNL     1       0.154  11.253  21.218  0.00  0.00    +0.000 A 
ATOM      7  C   UNL     1      -0.518  11.190  22.467  0.00  0.00    +0.000 A 
ATOM      8 CL   UNL     1      -1.230  12.577  23.235  0.00  0.00    +0.000 Cl
ATOM      9  C   UNL     1      -0.754   9.969  23.115  0.00  0.00    +0.000 A 
ATOM     10  C   UNL     1      -0.425   8.775  22.497  0.00  0.00    +0.000 A 
ATOM     11  C   UNL     1       0.122   8.805  21.221  0.00  0.00    +0.000 A 
ATOM     12  C   UNL     1       0.439  10.025  20.565  0.00  0.00    +0.000 A 
BRANCH  12  13
ATOM     13  C   UNL     1       1.029   9.843  19.178  0.00  0.00    +0.000 C 
ATOM     14  F   UNL     1       1.948  10.739  18.753  0.00  0.00    +0.000 F 
ATOM     15  F   UNL     1       1.657   8.632  19.069  0.00  0.00    +0.000 F 
ATOM     16  F   UNL     1       0.051   9.815  18.225  0.00  0.00    +0.000 F 
ENDBRANCH  12  13
ENDBRANCH   2   6
BRANCH   5  17
ATOM     17  C   UNL     1       0.644  15.710  18.746  0.00  0.00    +0.000 A 
ATOM     18  C   UNL     1      -0.565  16.394  18.577  0.00  0.00    +0.000 A 
ATOM     19  C   UNL     1      -0.600  17.639  17.941  0.00  0.00    +0.000 A 
ATOM     20  C   UNL     1       0.575  18.221  17.470  0.00  0.00    +0.000 A 
ATOM     21  C   UNL     1       1.779  17.536  17.587  0.00  0.00    +0.000 A 
ATOM     22  C   UNL     1       1.807  16.279  18.196  0.00  0.00    +0.000 A 
ENDBRANCH   5  17
BRANCH   1  24
ATOM     23  O   UNL     1      -2.237  12.698  19.175  0.00  0.00    +0.000 OA
ATOM     24  C   UNL     1      -1.123  12.983  18.755  0.00  0.00    +0.000 C 
BRANCH  24  25
ATOM     25  O   UNL     1      -0.846  12.981  17.422  0.00  0.00    +0.000 OA
ATOM     26  H   UNL     1      -1.547  13.383  16.871  0.00  0.00    +0.000 HD
ENDBRANCH  24  25
ENDBRANCH   1  24
TORSDOF 5
ENDMDL
MODEL 5
REMARK VINA RESULT:      -6.7      5.590      7.824
REMARK  Name = 
REMARK  5 active torsions:
REMARK  status: ('A' for Active; 'I' for Inactive)
REMARK    1  A    between atoms: C_2  and  O_3
REMARK    2  A    between atoms: C_2  and  C_4
REMARK    3  A    between atoms: C_5  and  C_6
REMARK    4  A    between atoms: C_12  and  C_13
REMARK    5  A    between atoms: C_19  and  C_20
REMARK                            x       y       z     vdW  Elec       q    Type
REMARK                         _______ _______ _______ _____ _____    ______ ____
ROOT
ATOM      1  C   UNL     1       1.071   8.964  19.960  0.00  0.00    +0.000 A 
ATOM      2  C   UNL     1       0.758  10.078  19.116  0.00  0.00    +0.000 A 
ATOM      3  N   UNL     1       1.438   9.969  17.964  0.00  0.00    +0.000 NA
ATOM      4  O   UNL     1       2.071   8.743  17.988  0.00  0.00    +0.000 OA
ATOM      5  C   UNL     1       1.855   8.134  19.186  0.00  0.00    +0.000 A 
ENDROOT
BRANCH   2   6
ATOM      6  C   UNL     1      -0.110  11.240  19.388  0.00  0.00    +0.000 A 
ATOM      7  C   UNL     1       0.368  12.316  20.181  0.00  0.00    +0.000 A 
ATOM      8 CL   UNL     1       2.049  12.545  20.558  0.00  0.00    +0.000 Cl
ATOM      9  C   UNL     1      -0.481  13.339  20.623  0.00  0.00    +0.000 A 
ATOM     10  C   UNL     1      -1.801  13.381  20.205  0.00  0.00    +0.000 A 
ATOM     11  C   UNL     1      -2.261  12.407  19.330  0.00  0.00    +0.000 A 
ATOM     12  C   UNL     1      -1.447  11.317  18.919  0.00  0.00    +0.000 A 
BRANCH  12  13
ATOM     13  C   UNL     1      -2.137  10.362  17.960  0.00  0.00    +0.000 C 
ATOM     14  F   UNL     1      -1.495  10.034  16.816  0.00  0.00    +0.000 F 
ATOM     15  F   UNL     1      -2.391   9.161  18.565  0.00  0.00    +0.000 F 
ATOM     16  F   UNL     1      -3.364  10.833  17.590  0.00  0.00    +0.000 F 
ENDBRANCH  12  13
ENDBRANCH   2   6
BRANCH   5  17
ATOM     17  C   UNL     1       2.494   6.832  19.393  0.00  0.00    +0.000 A 
ATOM     18  C   UNL     1       1.996   5.931  20.341  0.00  0.00    +0.000 A 
ATOM     19  C   UNL     1       2.504   4.631  20.430  0.00  0.00    +0.000 A 
ATOM     20  C   UNL     1       3.515   4.211  19.568  0.00  0.00    +0.000 A 
ATOM     21  C   UNL     1       4.055   5.105  18.651  0.00  0.00    +0.000 A 
ATOM     22  C   UNL     1       3.566   6.413  18.584  0.00  0.00    +0.000 A 
ENDBRANCH   5  17
BRANCH   1  24
ATOM     23  O   UNL     1      -0.456   8.415  21.648  0.00  0.00    +0.000 OA
ATOM     24  C   UNL     1       0.682   8.722  21.317  0.00  0.00    +0.000 C 
BRANCH  24  25
ATOM     25  O   UNL     1       1.672   8.874  22.239  0.00  0.00    +0.000 OA
ATOM     26  H   UNL     1       1.845   9.804  22.485  0.00  0.00    +0.000 HD
ENDBRANCH  24  25
ENDBRANCH   1  24
TORSDOF 5
ENDMDL
MODEL 6
REMARK VINA RESULT:      -6.6      7.954     10.234
REMARK  Name = 
REMARK  5 active torsions:
REMARK  status: ('A' for Active; 'I' for Inactive)
REMARK    1  A    between atoms: C_2  and  O_3
REMARK    2  A    between atoms: C_2  and  C_4
REMARK    3  A    between atoms: C_5  and  C_6
REMARK    4  A    between atoms: C_12  and  C_13
REMARK    5  A    between atoms: C_19  and  C_20
REMARK                            x       y       z     vdW  Elec       q    Type
REMARK                         _______ _______ _______ _____ _____    ______ ____
ROOT
ATOM      1  C   UNL     1       0.746  13.335  20.058  0.00  0.00    +0.000 A 
ATOM      2  C   UNL     1       0.111  12.076  19.805  0.00  0.00    +0.000 A 
ATOM      3  N   UNL     1      -0.783  12.220  18.815  0.00  0.00    +0.000 NA
ATOM      4  O   UNL     1      -0.640  13.504  18.330  0.00  0.00    +0.000 OA
ATOM      5  C   UNL     1       0.278  14.180  19.075  0.00  0.00    +0.000 A 
ENDROOT
BRANCH   2   6
ATOM      6  C   UNL     1       0.291  10.784  20.496  0.00  0.00    +0.000 A 
ATOM      7  C   UNL     1      -0.154  10.624  21.834  0.00  0.00    +0.000 A 
ATOM      8 CL   UNL     1      -1.242  11.732  22.613  0.00  0.00    +0.000 Cl
ATOM      9  C   UNL     1       0.170   9.486  22.586  0.00  0.00    +0.000 A 
ATOM     10  C   UNL     1       0.852   8.433  22.000  0.00  0.00    +0.000 A 
ATOM     11  C   UNL     1       1.191   8.513  20.657  0.00  0.00    +0.000 A 
ATOM     12  C   UNL     1       0.941   9.680  19.885  0.00  0.00    +0.000 A 
BRANCH  12  13
ATOM     13  C   UNL     1       1.387   9.567  18.438  0.00  0.00    +0.000 C 
ATOM     14  F   UNL     1       2.183  10.540  17.938  0.00  0.00    +0.000 F 
ATOM     15  F   UNL     1       2.091   8.412  18.231  0.00  0.00    +0.000 F 
ATOM     16  F   UNL     1       0.315   9.478  17.596  0.00  0.00    +0.000 F 
ENDBRANCH  12  13
ENDBRANCH   2   6
BRANCH   5  17
ATOM     17  C   UNL     1       0.522  15.579  18.715  0.00  0.00    +0.000 A 
ATOM     18  C   UNL     1       1.815  16.029  18.424  0.00  0.00    +0.000 A 
ATOM     19  C   UNL     1       2.029  17.320  17.929  0.00  0.00    +0.000 A 
ATOM     20  C   UNL     1       0.953  18.177  17.714  0.00  0.00    +0.000 A 
ATOM     21  C   UNL     1      -0.334  17.766  18.041  0.00  0.00    +0.000 A 
ATOM     22  C   UNL     1      -0.543  16.486  18.563  0.00  0.00    +0.000 A 
ENDBRANCH   5  17
BRANCH   1  24
ATOM     23  O   UNL     1       2.869  13.456  21.038  0.00  0.00    +0.000 OA
ATOM     24  C   UNL     1       1.668  13.688  21.096  0.00  0.00    +0.000 C 
BRANCH  24  25
ATOM     25  O   UNL     1       1.114  14.294  22.182  0.00  0.00    +0.000 OA
ATOM     26  H   UNL     1       0.293  14.786  21.985  0.00  0.00    +0.000 HD
ENDBRANCH  24  25
ENDBRANCH   1  24
TORSDOF 5
ENDMDL
MODEL 7
REMARK VINA RESULT:      -6.6      5.787      7.836
REMARK  Name = 
REMARK  5 active torsions:
REMARK  status: ('A' for Active; 'I' for Inactive)
REMARK    1  A    between atoms: C_2  and  O_3
REMARK    2  A    between atoms: C_2  and  C_4
REMARK    3  A    between atoms: C_5  and  C_6
REMARK    4  A    between atoms: C_12  and  C_13
REMARK    5  A    between atoms: C_19  and  C_20
REMARK                            x       y       z     vdW  Elec       q    Type
REMARK                         _______ _______ _______ _____ _____    ______ ____
ROOT
ATOM      1  C   UNL     1       1.046   9.210  19.717  0.00  0.00    +0.000 A 
ATOM      2  C   UNL     1       0.596  10.401  19.058  0.00  0.00    +0.000 A 
ATOM      3  N   UNL     1       1.192  10.498  17.860  0.00  0.00    +0.000 NA
ATOM      4  O   UNL     1       1.905   9.330  17.672  0.00  0.00    +0.000 OA
ATOM      5  C   UNL     1       1.821   8.552  18.785  0.00  0.00    +0.000 A 
ENDROOT
BRANCH   2   6
ATOM      6  C   UNL     1      -0.323  11.447  19.545  0.00  0.00    +0.000 A 
ATOM      7  C   UNL     1       0.138  12.430  20.459  0.00  0.00    +0.000 A 
ATOM      8 CL   UNL     1       1.822  12.723  20.771  0.00  0.00    +0.000 Cl
ATOM      9  C   UNL     1      -0.744  13.317  21.093  0.00  0.00    +0.000 A 
ATOM     10  C   UNL     1      -2.087  13.323  20.759  0.00  0.00    +0.000 A 
ATOM     11  C   UNL     1      -2.542  12.453  19.778  0.00  0.00    +0.000 A 
ATOM     12  C   UNL     1      -1.690  11.494  19.167  0.00  0.00    +0.000 A 
BRANCH  12  13
ATOM     13  C   UNL     1      -2.379  10.638  18.119  0.00  0.00    +0.000 C 
ATOM     14  F   UNL     1      -2.342   9.295  18.267  0.00  0.00    +0.000 F 
ATOM     15  F   UNL     1      -3.713  10.937  18.043  0.00  0.00    +0.000 F 
ATOM     16  F   UNL     1      -1.893  10.900  16.869  0.00  0.00    +0.000 F 
ENDBRANCH  12  13
ENDBRANCH   2   6
BRANCH   5  17
ATOM     17  C   UNL     1       2.559   7.286  18.767  0.00  0.00    +0.000 A 
ATOM     18  C   UNL     1       3.563   7.055  17.821  0.00  0.00    +0.000 A 
ATOM     19  C   UNL     1       4.372   5.918  17.899  0.00  0.00    +0.000 A 
ATOM     20  C   UNL     1       4.194   4.998  18.930  0.00  0.00    +0.000 A 
ATOM     21  C   UNL     1       3.172   5.185  19.853  0.00  0.00    +0.000 A 
ATOM     22  C   UNL     1       2.344   6.307  19.755  0.00  0.00    +0.000 A 
ENDBRANCH   5  17
BRANCH   1  24
ATOM     23  O   UNL     1      -0.309   8.326  21.410  0.00  0.00    +0.000 OA
ATOM     24  C   UNL     1       0.778   8.761  21.050  0.00  0.00    +0.000 C 
BRANCH  24  25
ATOM     25  O   UNL     1       1.823   8.866  21.917  0.00  0.00    +0.000 OA
ATOM     26  H   UNL     1       1.717   9.576  22.581  0.00  0.00    +0.000 HD
ENDBRANCH  24  25
ENDBRANCH   1  24
TORSDOF 5
ENDMDL
MODEL 8
REMARK VINA RESULT:      -6.6      8.289     10.608
REMARK  Name = 
REMARK  5 active torsions:
REMARK  status: ('A' for Active; 'I' for Inactive)
REMARK    1  A    between atoms: C_2  and  O_3
REMARK    2  A    between atoms: C_2  and  C_4
REMARK    3  A    between atoms: C_5  and  C_6
REMARK    4  A    between atoms: C_12  and  C_13
REMARK    5  A    between atoms: C_19  and  C_20
REMARK                            x       y       z     vdW  Elec       q    Type
REMARK                         _______ _______ _______ _____ _____    ______ ____
ROOT
ATOM      1  C   UNL     1       0.032  13.385  19.667  0.00  0.00    +0.000 A 
ATOM      2  C   UNL     1       0.641  12.558  20.665  0.00  0.00    +0.000 A 
ATOM      3  N   UNL     1       1.769  13.142  21.099  0.00  0.00    +0.000 NA
ATOM      4  O   UNL     1       1.826  14.388  20.509  0.00  0.00    +0.000 OA
ATOM      5  C   UNL     1       0.785  14.540  19.645  0.00  0.00    +0.000 A 
ENDROOT
BRANCH   2   6
ATOM      6  C   UNL     1       0.218  11.237  21.168  0.00  0.00    +0.000 A 
ATOM      7  C   UNL     1      -0.465  11.133  22.408  0.00  0.00    +0.000 A 
ATOM      8 CL   UNL     1      -1.178  12.496  23.218  0.00  0.00    +0.000 Cl
ATOM      9  C   UNL     1      -0.711   9.892  23.012  0.00  0.00    +0.000 A 
ATOM     10  C   UNL     1      -0.381   8.719  22.355  0.00  0.00    +0.000 A 
ATOM     11  C   UNL     1       0.177   8.791  21.086  0.00  0.00    +0.000 A 
ATOM     12  C   UNL     1       0.503  10.032  20.475  0.00  0.00    +0.000 A 
BRANCH  12  13
ATOM     13  C   UNL     1       1.104   9.895  19.087  0.00  0.00    +0.000 C 
ATOM     14  F   UNL     1       1.729   8.737  18.774  0.00  0.00    +0.000 F 
ATOM     15  F   UNL     1       0.144  10.036  18.123  0.00  0.00    +0.000 F 
ATOM     16  F   UNL     1       2.001  10.895  18.836  0.00  0.00    +0.000 F 
ENDBRANCH  12  13
ENDBRANCH   2   6
BRANCH   5  17
ATOM     17  C   UNL     1       0.720  15.800  18.900  0.00  0.00    +0.000 A 
ATOM     18  C   UNL     1       1.871  16.361  18.337  0.00  0.00    +0.000 A 
ATOM     19  C   UNL     1       1.787  17.475  17.496  0.00  0.00    +0.000 A 
ATOM     20  C   UNL     1       0.549  18.041  17.201  0.00  0.00    +0.000 A 
ATOM     21  C   UNL     1      -0.602  17.528  17.787  0.00  0.00    +0.000 A 
ATOM     22  C   UNL     1      -0.513  16.433  18.652  0.00  0.00    +0.000 A 
ENDBRANCH   5  17
BRANCH   1  24
ATOM     23  O   UNL     1      -2.233  12.927  19.287  0.00  0.00    +0.000 OA
ATOM     24  C   UNL     1      -1.108  13.114  18.842  0.00  0.00    +0.000 C 
BRANCH  24  25
ATOM     25  O   UNL     1      -0.855  13.058  17.505  0.00  0.00    +0.000 OA
ATOM     26  H   UNL     1      -0.431  13.864  17.148  0.00  0.00    +0.000 HD
ENDBRANCH  24  25
ENDBRANCH   1  24
TORSDOF 5
ENDMDL
MODEL 9
REMARK VINA RESULT:      -6.6      8.192     10.431
REMARK  Name = 
REMARK  5 active torsions:
REMARK  status: ('A' for Active; 'I' for Inactive)
REMARK    1  A    between atoms: C_2  and  O_3
REMARK    2  A    between atoms: C_2  and  C_4
REMARK    3  A    between atoms: C_5  and  C_6
REMARK    4  A    between atoms: C_12  and  C_13
REMARK    5  A    between atoms: C_19  and  C_20
REMARK                            x       y       z     vdW  Elec       q    Type
REMARK                         _______ _______ _______ _____ _____    ______ ____
ROOT
ATOM      1  C   UNL     1       0.483  13.523  20.264  0.00  0.00    +0.000 A 
ATOM      2  C   UNL     1      -0.272  12.315  20.106  0.00  0.00    +0.000 A 
ATOM      3  N   UNL     1      -1.109  12.448  19.066  0.00  0.00    +0.000 NA
ATOM      4  O   UNL     1      -0.812  13.654  18.465  0.00  0.00    +0.000 OA
ATOM      5  C   UNL     1       0.144  14.306  19.181  0.00  0.00    +0.000 A 
ENDROOT
BRANCH   2   6
ATOM      6  C   UNL     1      -0.255  11.090  20.927  0.00  0.00    +0.000 A 
ATOM      7  C   UNL     1      -0.833  11.093  22.223  0.00  0.00    +0.000 A 
ATOM      8 CL   UNL     1      -1.903  12.343  22.784  0.00  0.00    +0.000 Cl
ATOM      9  C   UNL     1      -0.668  10.016  23.106  0.00  0.00    +0.000 A 
ATOM     10  C   UNL     1      -0.016   8.867  22.691  0.00  0.00    +0.000 A 
ATOM     11  C   UNL     1       0.453   8.792  21.387  0.00  0.00    +0.000 A 
ATOM     12  C   UNL     1       0.364   9.890  20.489  0.00  0.00    +0.000 A 
BRANCH  12  13
ATOM     13  C   UNL     1       0.934   9.604  19.111  0.00  0.00    +0.000 C 
ATOM     14  F   UNL     1       0.080   9.572  18.063  0.00  0.00    +0.000 F 
ATOM     15  F   UNL     1       1.866  10.544  18.763  0.00  0.00    +0.000 F 
ATOM     16  F   UNL     1       1.610   8.418  19.092  0.00  0.00    +0.000 F 
ENDBRANCH  12  13
ENDBRANCH   2   6
BRANCH   5  17
ATOM     17  C   UNL     1       0.548  15.629  18.699  0.00  0.00    +0.000 A 
ATOM     18  C   UNL     1       1.891  15.913  18.426  0.00  0.00    +0.000 A 
ATOM     19  C   UNL     1       2.259  17.117  17.818  0.00  0.00    +0.000 A 
ATOM     20  C   UNL     1       1.288  18.053  17.469  0.00  0.00    +0.000 A 
ATOM     21  C   UNL     1      -0.046  17.811  17.773  0.00  0.00    +0.000 A 
ATOM     22  C   UNL     1      -0.408  16.619  18.408  0.00  0.00    +0.000 A 
ENDBRANCH   5  17
BRANCH   1  24
ATOM     23  O   UNL     1       1.074  14.523  22.297  0.00  0.00    +0.000 OA
ATOM     24  C   UNL     1       1.400  13.885  21.305  0.00  0.00    +0.000 C 
BRANCH  24  25
ATOM     25  O   UNL     1       2.686  13.483  21.110  0.00  0.00    +0.000 OA
ATOM     26  H   UNL     1       2.768  12.565  20.783  0.00  0.00    +0.000 HD
ENDBRANCH  24  25
ENDBRANCH   1  24
TORSDOF 5
ENDMDL
