MODEL 1
REMARK VINA RESULT:      -9.5      0.000      0.000
REMARK  Name = 
REMARK  7 active torsions:
REMARK  status: ('A' for Active; 'I' for Inactive)
REMARK    1  A    between atoms: C_1  and  O_2
REMARK    2  A    between atoms: O_2  and  C_3
REMARK    3  A    between atoms: C_10  and  N_11
REMARK    4  A    between atoms: N_11  and  C_12
REMARK    5  A    between atoms: C_12  and  C_13
REMARK    6  A    between atoms: C_13  and  N_14
REMARK    7  A    between atoms: N_14  and  C_15
REMARK                            x       y       z     vdW  Elec       q    Type
REMARK                         _______ _______ _______ _____ _____    ______ ____
ROOT
ATOM      1  N   UNL     1       2.951   7.081  18.586  0.00  0.00    +0.000 N 
ATOM      2  H   UNL     1       2.696   7.165  19.568  0.00  0.00    +0.000 HD
ENDROOT
BRANCH   1  10
ATOM      3  C   UNL     1       6.834   6.466  16.933  0.00  0.00    +0.000 A 
ATOM      4  C   UNL     1       7.211   5.173  16.594  0.00  0.00    +0.000 A 
ATOM      5  C   UNL     1       6.333   4.110  16.814  0.00  0.00    +0.000 A 
ATOM      6  C   UNL     1       5.080   4.304  17.371  0.00  0.00    +0.000 A 
ATOM      7  N   UNL     1       4.320   3.224  17.555  0.00  0.00    +0.000 NA
ATOM      8  C   UNL     1       3.109   3.368  18.135  0.00  0.00    +0.000 A 
ATOM      9  C   UNL     1       2.594   4.606  18.550  0.00  0.00    +0.000 A 
ATOM     10  C   UNL     1       3.352   5.766  18.266  0.00  0.00    +0.000 A 
ATOM     11  C   UNL     1       4.665   5.604  17.716  0.00  0.00    +0.000 A 
ATOM     12  C   UNL     1       5.567   6.678  17.481  0.00  0.00    +0.000 A 
ATOM     13  C   UNL     1       1.263   4.633  19.260  0.00  0.00    +0.000 C 
ATOM     14  C   UNL     1       0.799   3.296  19.828  0.00  0.00    +0.000 C 
ATOM     15  C   UNL     1       0.925   2.217  18.771  0.00  0.00    +0.000 C 
ATOM     16  C   UNL     1       2.385   2.066  18.369  0.00  0.00    +0.000 C 
BRANCH   3  18
ATOM     17  C   UNL     1       7.921   8.454  17.647  0.00  0.00    +0.000 C 
ATOM     18  O   UNL     1       7.782   7.419  16.682  0.00  0.00    +0.000 OA
ENDBRANCH   3  18
ENDBRANCH   1  10
BRANCH   1  19
ATOM     19  C   UNL     1       2.128   7.874  17.675  0.00  0.00    +0.000 C 
BRANCH  19  20
ATOM     20  C   UNL     1       2.224   9.378  17.962  0.00  0.00    +0.000 C 
BRANCH  20  21
ATOM     21  N   UNL     1       0.923  10.003  18.139  0.00  0.00    +0.000 N 
ATOM     22  H   UNL     1       0.198   9.690  17.480  0.00  0.00    +0.000 HD
BRANCH  21  23
ATOM     23  C   UNL     1       0.393  10.337  19.381  0.00  0.00    +0.000 C 
ATOM     24  C   UNL     1       0.860   9.887  20.551  0.00  0.00    +0.000 C 
ATOM     25  C   UNL     1       0.256  10.222  21.848  0.00  0.00    +0.000 C 
ATOM     26  O   UNL     1       0.690   9.721  22.878  0.00  0.00    +0.000 OA
ATOM     27  C   UNL     1      -0.876  11.160  21.855  0.00  0.00    +0.000 A 
ATOM     28  C   UNL     1      -1.432  11.555  23.076  0.00  0.00    +0.000 A 
ATOM     29  C   UNL     1      -2.511  12.439  23.094  0.00  0.00    +0.000 A 
ATOM     30  C   UNL     1      -3.037  12.922  21.897  0.00  0.00    +0.000 A 
ATOM     31  C   UNL     1      -2.480  12.529  20.678  0.00  0.00    +0.000 A 
ATOM     32  C   UNL     1      -1.393  11.648  20.657  0.00  0.00    +0.000 A 
ATOM     33  C   UNL     1      -0.804  11.247  19.365  0.00  0.00    +0.000 C 
ATOM     34  O   UNL     1      -1.284  11.630  18.300  0.00  0.00    +0.000 OA
ENDBRANCH  21  23
ENDBRANCH  20  21
ENDBRANCH  19  20
ENDBRANCH   1  19
TORSDOF 6
ENDMDL
MODEL 2
REMARK VINA RESULT:      -9.4      1.415      2.336
REMARK  Name = 
REMARK  7 active torsions:
REMARK  status: ('A' for Active; 'I' for Inactive)
REMARK    1  A    between atoms: C_1  and  O_2
REMARK    2  A    between atoms: O_2  and  C_3
REMARK    3  A    between atoms: C_10  and  N_11
REMARK    4  A    between atoms: N_11  and  C_12
REMARK    5  A    between atoms: C_12  and  C_13
REMARK    6  A    between atoms: C_13  and  N_14
REMARK    7  A    between atoms: N_14  and  C_15
REMARK                            x       y       z     vdW  Elec       q    Type
REMARK                         _______ _______ _______ _____ _____    ______ ____
ROOT
ATOM      1  N   UNL     1       3.340   6.747  19.520  0.00  0.00    +0.000 N 
ATOM      2  H   UNL     1       3.747   6.653  20.448  0.00  0.00    +0.000 HD
ENDROOT
BRANCH   1  10
ATOM      3  C   UNL     1       6.637   6.297  16.854  0.00  0.00    +0.000 A 
ATOM      4  C   UNL     1       6.730   5.130  16.108  0.00  0.00    +0.000 A 
ATOM      5  C   UNL     1       5.766   4.130  16.253  0.00  0.00    +0.000 A 
ATOM      6  C   UNL     1       4.706   4.264  17.135  0.00  0.00    +0.000 A 
ATOM      7  N   UNL     1       3.846   3.249  17.214  0.00  0.00    +0.000 NA
ATOM      8  C   UNL     1       2.824   3.325  18.093  0.00  0.00    +0.000 A 
ATOM      9  C   UNL     1       2.606   4.429  18.930  0.00  0.00    +0.000 A 
ATOM     10  C   UNL     1       3.455   5.551  18.779  0.00  0.00    +0.000 A 
ATOM     11  C   UNL     1       4.579   5.440  17.898  0.00  0.00    +0.000 A 
ATOM     12  C   UNL     1       5.565   6.453  17.735  0.00  0.00    +0.000 A 
ATOM     13  C   UNL     1       1.478   4.367  19.931  0.00  0.00    +0.000 C 
ATOM     14  C   UNL     1       0.946   2.968  20.228  0.00  0.00    +0.000 C 
ATOM     15  C   UNL     1       0.676   2.235  18.930  0.00  0.00    +0.000 C 
ATOM     16  C   UNL     1       1.975   2.079  18.152  0.00  0.00    +0.000 C 
BRANCH   3  18
ATOM     17  C   UNL     1       7.941   8.099  17.689  0.00  0.00    +0.000 C 
ATOM     18  O   UNL     1       7.644   7.195  16.632  0.00  0.00    +0.000 OA
ENDBRANCH   3  18
ENDBRANCH   1  10
BRANCH   1  19
ATOM     19  C   UNL     1       2.130   7.565  19.469  0.00  0.00    +0.000 C 
BRANCH  19  20
ATOM     20  C   UNL     1       2.109   8.502  18.255  0.00  0.00    +0.000 C 
BRANCH  20  21
ATOM     21  N   UNL     1       1.580   9.820  18.568  0.00  0.00    +0.000 N 
ATOM     22  H   UNL     1       2.202  10.604  18.330  0.00  0.00    +0.000 HD
BRANCH  21  23
ATOM     23  C   UNL     1       0.238  10.159  18.443  0.00  0.00    +0.000 C 
ATOM     24  C   UNL     1      -0.579   9.690  17.492  0.00  0.00    +0.000 C 
ATOM     25  C   UNL     1      -1.984  10.097  17.356  0.00  0.00    +0.000 C 
ATOM     26  O   UNL     1      -2.659   9.682  16.422  0.00  0.00    +0.000 OA
ATOM     27  C   UNL     1      -2.533  11.013  18.367  0.00  0.00    +0.000 A 
ATOM     28  C   UNL     1      -3.885  11.367  18.309  0.00  0.00    +0.000 A 
ATOM     29  C   UNL     1      -4.414  12.241  19.259  0.00  0.00    +0.000 A 
ATOM     30  C   UNL     1      -3.596  12.764  20.259  0.00  0.00    +0.000 A 
ATOM     31  C   UNL     1      -2.247  12.408  20.317  0.00  0.00    +0.000 A 
ATOM     32  C   UNL     1      -1.714  11.525  19.371  0.00  0.00    +0.000 A 
ATOM     33  C   UNL     1      -0.290  11.147  19.447  0.00  0.00    +0.000 C 
ATOM     34  O   UNL     1       0.453  11.632  20.296  0.00  0.00    +0.000 OA
ENDBRANCH  21  23
ENDBRANCH  20  21
ENDBRANCH  19  20
ENDBRANCH   1  19
TORSDOF 6
ENDMDL
MODEL 3
REMARK VINA RESULT:      -9.3      1.090      2.136
REMARK  Name = 
REMARK  7 active torsions:
REMARK  status: ('A' for Active; 'I' for Inactive)
REMARK    1  A    between atoms: C_1  and  O_2
REMARK    2  A    between atoms: O_2  and  C_3
REMARK    3  A    between atoms: C_10  and  N_11
REMARK    4  A    between atoms: N_11  and  C_12
REMARK    5  A    between atoms: C_12  and  C_13
REMARK    6  A    between atoms: C_13  and  N_14
REMARK    7  A    between atoms: N_14  and  C_15
REMARK                            x       y       z     vdW  Elec       q    Type
REMARK                         _______ _______ _______ _____ _____    ______ ____
ROOT
ATOM      1  N   UNL     1       3.130   6.795  19.817  0.00  0.00    +0.000 N 
ATOM      2  H   UNL     1       3.343   6.568  20.786  0.00  0.00    +0.000 HD
ENDROOT
BRANCH   1  10
ATOM      3  C   UNL     1       6.295   6.684  16.962  0.00  0.00    +0.000 A 
ATOM      4  C   UNL     1       6.392   5.581  16.124  0.00  0.00    +0.000 A 
ATOM      5  C   UNL     1       5.476   4.534  16.240  0.00  0.00    +0.000 A 
ATOM      6  C   UNL     1       4.460   4.557  17.182  0.00  0.00    +0.000 A 
ATOM      7  N   UNL     1       3.644   3.504  17.225  0.00  0.00    +0.000 NA
ATOM      8  C   UNL     1       2.667   3.471  18.157  0.00  0.00    +0.000 A 
ATOM      9  C   UNL     1       2.453   4.500  19.087  0.00  0.00    +0.000 A 
ATOM     10  C   UNL     1       3.250   5.664  18.981  0.00  0.00    +0.000 A 
ATOM     11  C   UNL     1       4.330   5.667  18.039  0.00  0.00    +0.000 A 
ATOM     12  C   UNL     1       5.267   6.728  17.905  0.00  0.00    +0.000 A 
ATOM     13  C   UNL     1       1.383   4.316  20.135  0.00  0.00    +0.000 C 
ATOM     14  C   UNL     1       0.920   2.878  20.349  0.00  0.00    +0.000 C 
ATOM     15  C   UNL     1       0.609   2.234  19.014  0.00  0.00    +0.000 C 
ATOM     16  C   UNL     1       1.870   2.190  18.163  0.00  0.00    +0.000 C 
BRANCH   3  18
ATOM     17  C   UNL     1       7.987   8.061  17.903  0.00  0.00    +0.000 C 
ATOM     18  O   UNL     1       7.256   7.637  16.760  0.00  0.00    +0.000 OA
ENDBRANCH   3  18
ENDBRANCH   1  10
BRANCH   1  19
ATOM     19  C   UNL     1       2.048   7.762  19.644  0.00  0.00    +0.000 C 
BRANCH  19  20
ATOM     20  C   UNL     1       1.298   8.039  20.953  0.00  0.00    +0.000 C 
BRANCH  20  21
ATOM     21  N   UNL     1       1.335   9.441  21.340  0.00  0.00    +0.000 N 
ATOM     22  H   UNL     1       2.246   9.901  21.216  0.00  0.00    +0.000 HD
BRANCH  21  23
ATOM     23  C   UNL     1       0.274  10.319  21.149  0.00  0.00    +0.000 C 
ATOM     24  C   UNL     1      -0.072  10.847  19.970  0.00  0.00    +0.000 C 
ATOM     25  C   UNL     1      -1.172  11.807  19.801  0.00  0.00    +0.000 C 
ATOM     26  O   UNL     1      -1.393  12.305  18.705  0.00  0.00    +0.000 OA
ATOM     27  C   UNL     1      -1.975  12.142  20.986  0.00  0.00    +0.000 A 
ATOM     28  C   UNL     1      -3.073  12.999  20.850  0.00  0.00    +0.000 A 
ATOM     29  C   UNL     1      -3.838  13.329  21.968  0.00  0.00    +0.000 A 
ATOM     30  C   UNL     1      -3.505  12.811  23.219  0.00  0.00    +0.000 A 
ATOM     31  C   UNL     1      -2.410  11.955  23.354  0.00  0.00    +0.000 A 
ATOM     32  C   UNL     1      -1.645  11.615  22.233  0.00  0.00    +0.000 A 
ATOM     33  C   UNL     1      -0.496  10.701  22.383  0.00  0.00    +0.000 C 
ATOM     34  O   UNL     1      -0.165  10.271  23.485  0.00  0.00    +0.000 OA
ENDBRANCH  21  23
ENDBRANCH  20  21
ENDBRANCH  19  20
ENDBRANCH   1  19
TORSDOF 6
ENDMDL
MODEL 4
REMARK VINA RESULT:      -9.2      0.630      1.854
REMARK  Name = 
REMARK  7 active torsions:
REMARK  status: ('A' for Active; 'I' for Inactive)
REMARK    1  A    between atoms: C_1  and  O_2
REMARK    2  A    between atoms: O_2  and  C_3
REMARK    3  A    between atoms: C_10  and  N_11
REMARK    4  A    between atoms: N_11  and  C_12
REMARK    5  A    between atoms: C_12  and  C_13
REMARK    6  A    between atoms: C_13  and  N_14
REMARK    7  A    between atoms: N_14  and  C_15
REMARK                            x       y       z     vdW  Elec       q    Type
REMARK                         _______ _______ _______ _____ _____    ______ ____
ROOT
ATOM      1  N   UNL     1       3.020   7.037  18.717  0.00  0.00    +0.000 N 
ATOM      2  H   UNL     1       2.866   7.095  19.721  0.00  0.00    +0.000 HD
ENDROOT
BRANCH   1  10
ATOM      3  C   UNL     1       6.819   6.399  16.890  0.00  0.00    +0.000 A 
ATOM      4  C   UNL     1       7.147   5.115  16.477  0.00  0.00    +0.000 A 
ATOM      5  C   UNL     1       6.249   4.066  16.680  0.00  0.00    +0.000 A 
ATOM      6  C   UNL     1       5.023   4.266  17.293  0.00  0.00    +0.000 A 
ATOM      7  N   UNL     1       4.240   3.199  17.455  0.00  0.00    +0.000 NA
ATOM      8  C   UNL     1       3.055   3.347  18.086  0.00  0.00    +0.000 A 
ATOM      9  C   UNL     1       2.591   4.576  18.578  0.00  0.00    +0.000 A 
ATOM     10  C   UNL     1       3.370   5.729  18.320  0.00  0.00    +0.000 A 
ATOM     11  C   UNL     1       4.657   5.559  17.714  0.00  0.00    +0.000 A 
ATOM     12  C   UNL     1       5.580   6.619  17.495  0.00  0.00    +0.000 A 
ATOM     13  C   UNL     1       1.288   4.605  19.340  0.00  0.00    +0.000 C 
ATOM     14  C   UNL     1       0.808   3.255  19.861  0.00  0.00    +0.000 C 
ATOM     15  C   UNL     1       0.865   2.225  18.751  0.00  0.00    +0.000 C 
ATOM     16  C   UNL     1       2.304   2.054  18.287  0.00  0.00    +0.000 C 
BRANCH   3  18
ATOM     17  C   UNL     1       7.995   8.314  17.659  0.00  0.00    +0.000 C 
ATOM     18  O   UNL     1       7.784   7.337  16.648  0.00  0.00    +0.000 OA
ENDBRANCH   3  18
ENDBRANCH   1  10
BRANCH   1  19
ATOM     19  C   UNL     1       2.117   7.863  17.917  0.00  0.00    +0.000 C 
BRANCH  19  20
ATOM     20  C   UNL     1       1.915   9.258  18.521  0.00  0.00    +0.000 C 
BRANCH  20  21
ATOM     21  N   UNL     1       1.066   9.245  19.702  0.00  0.00    +0.000 N 
ATOM     22  H   UNL     1       1.538   8.970  20.572  0.00  0.00    +0.000 HD
BRANCH  21  23
ATOM     23  C   UNL     1       0.047  10.165  19.926  0.00  0.00    +0.000 C 
ATOM     24  C   UNL     1      -0.837  10.559  19.003  0.00  0.00    +0.000 C 
ATOM     25  C   UNL     1      -1.879  11.565  19.254  0.00  0.00    +0.000 C 
ATOM     26  O   UNL     1      -2.613  11.932  18.345  0.00  0.00    +0.000 OA
ATOM     27  C   UNL     1      -1.994  12.106  20.616  0.00  0.00    +0.000 A 
ATOM     28  C   UNL     1      -3.018  13.013  20.909  0.00  0.00    +0.000 A 
ATOM     29  C   UNL     1      -3.133  13.538  22.195  0.00  0.00    +0.000 A 
ATOM     30  C   UNL     1      -2.225  13.163  23.186  0.00  0.00    +0.000 A 
ATOM     31  C   UNL     1      -1.205  12.257  22.893  0.00  0.00    +0.000 A 
ATOM     32  C   UNL     1      -1.092  11.722  21.605  0.00  0.00    +0.000 A 
ATOM     33  C   UNL     1      -0.016  10.756  21.308  0.00  0.00    +0.000 C 
ATOM     34  O   UNL     1       0.817  10.449  22.157  0.00  0.00    +0.000 OA
ENDBRANCH  21  23
ENDBRANCH  20  21
ENDBRANCH  19  20
ENDBRANCH   1  19
TORSDOF 6
ENDMDL
MODEL 5
REMARK VINA RESULT:      -9.2      1.308      1.488
REMARK  Name = 
REMARK  7 active torsions:
REMARK  status: ('A' for Active; 'I' for Inactive)
REMARK    1  A    between atoms: C_1  and  O_2
REMARK    2  A    between atoms: O_2  and  C_3
REMARK    3  A    between atoms: C_10  and  N_11
REMARK    4  A    between atoms: N_11  and  C_12
REMARK    5  A    between atoms: C_12  and  C_13
REMARK    6  A    between atoms: C_13  and  N_14
REMARK    7  A    between atoms: N_14  and  C_15
REMARK                            x       y       z     vdW  Elec       q    Type
REMARK                         _______ _______ _______ _____ _____    ______ ____
ROOT
ATOM      1  N   UNL     1       2.705   6.822  17.797  0.00  0.00    +0.000 N 
ATOM      2  H   UNL     1       3.024   7.090  16.868  0.00  0.00    +0.000 HD
ENDROOT
BRANCH   1  10
ATOM      3  C   UNL     1       6.956   6.985  17.508  0.00  0.00    +0.000 A 
ATOM      4  C   UNL     1       7.694   5.914  17.994  0.00  0.00    +0.000 A 
ATOM      5  C   UNL     1       7.043   4.825  18.576  0.00  0.00    +0.000 A 
ATOM      6  C   UNL     1       5.663   4.779  18.691  0.00  0.00    +0.000 A 
ATOM      7  N   UNL     1       5.135   3.704  19.276  0.00  0.00    +0.000 NA
ATOM      8  C   UNL     1       3.796   3.642  19.445  0.00  0.00    +0.000 A 
ATOM      9  C   UNL     1       2.918   4.653  19.025  0.00  0.00    +0.000 A 
ATOM     10  C   UNL     1       3.462   5.749  18.314  0.00  0.00    +0.000 A 
ATOM     11  C   UNL     1       4.887   5.846  18.199  0.00  0.00    +0.000 A 
ATOM     12  C   UNL     1       5.564   6.946  17.603  0.00  0.00    +0.000 A 
ATOM     13  C   UNL     1       1.449   4.511  19.341  0.00  0.00    +0.000 C 
ATOM     14  C   UNL     1       1.112   3.504  20.435  0.00  0.00    +0.000 C 
ATOM     15  C   UNL     1       1.826   2.195  20.168  0.00  0.00    +0.000 C 
ATOM     16  C   UNL     1       3.331   2.420  20.197  0.00  0.00    +0.000 C 
BRANCH   3  18
ATOM     17  C   UNL     1       8.159   9.002  17.868  0.00  0.00    +0.000 C 
ATOM     18  O   UNL     1       7.706   7.996  16.972  0.00  0.00    +0.000 OA
ENDBRANCH   3  18
ENDBRANCH   1  10
BRANCH   1  19
ATOM     19  C   UNL     1       2.285   7.939  18.640  0.00  0.00    +0.000 C 
BRANCH  19  20
ATOM     20  C   UNL     1       2.128   9.242  17.847  0.00  0.00    +0.000 C 
BRANCH  20  21
ATOM     21  N   UNL     1       0.739   9.645  17.691  0.00  0.00    +0.000 N 
ATOM     22  H   UNL     1       0.135   8.949  17.236  0.00  0.00    +0.000 HD
BRANCH  21  23
ATOM     23  C   UNL     1       0.050  10.406  18.629  0.00  0.00    +0.000 C 
ATOM     24  C   UNL     1       0.568  10.841  19.783  0.00  0.00    +0.000 C 
ATOM     25  C   UNL     1      -0.195  11.608  20.777  0.00  0.00    +0.000 C 
ATOM     26  O   UNL     1       0.319  11.917  21.844  0.00  0.00    +0.000 OA
ATOM     27  C   UNL     1      -1.580  11.973  20.444  0.00  0.00    +0.000 A 
ATOM     28  C   UNL     1      -2.314  12.762  21.337  0.00  0.00    +0.000 A 
ATOM     29  C   UNL     1      -3.630  13.108  21.035  0.00  0.00    +0.000 A 
ATOM     30  C   UNL     1      -4.215  12.665  19.849  0.00  0.00    +0.000 A 
ATOM     31  C   UNL     1      -3.480  11.880  18.958  0.00  0.00    +0.000 A 
ATOM     32  C   UNL     1      -2.157  11.537  19.254  0.00  0.00    +0.000 A 
ATOM     33  C   UNL     1      -1.385  10.715  18.301  0.00  0.00    +0.000 C 
ATOM     34  O   UNL     1      -1.899  10.281  17.273  0.00  0.00    +0.000 OA
ENDBRANCH  21  23
ENDBRANCH  20  21
ENDBRANCH  19  20
ENDBRANCH   1  19
TORSDOF 6
ENDMDL
MODEL 6
REMARK VINA RESULT:      -9.2      2.034      2.997
REMARK  Name = 
REMARK  7 active torsions:
REMARK  status: ('A' for Active; 'I' for Inactive)
REMARK    1  A    between atoms: C_1  and  O_2
REMARK    2  A    between atoms: O_2  and  C_3
REMARK    3  A    between atoms: C_10  and  N_11
REMARK    4  A    between atoms: N_11  and  C_12
REMARK    5  A    between atoms: C_12  and  C_13
REMARK    6  A    between atoms: C_13  and  N_14
REMARK    7  A    between atoms: N_14  and  C_15
REMARK                            x       y       z     vdW  Elec       q    Type
REMARK                         _______ _______ _______ _____ _____    ______ ____
ROOT
ATOM      1  N   UNL     1       2.577   6.931  17.828  0.00  0.00    +0.000 N 
ATOM      2  H   UNL     1       2.768   7.065  16.837  0.00  0.00    +0.000 HD
ENDROOT
BRANCH   1  10
ATOM      3  C   UNL     1       6.827   7.038  17.491  0.00  0.00    +0.000 A 
ATOM      4  C   UNL     1       7.557   5.969  17.992  0.00  0.00    +0.000 A 
ATOM      5  C   UNL     1       6.899   4.900  18.604  0.00  0.00    +0.000 A 
ATOM      6  C   UNL     1       5.520   4.873  18.735  0.00  0.00    +0.000 A 
ATOM      7  N   UNL     1       4.986   3.816  19.347  0.00  0.00    +0.000 NA
ATOM      8  C   UNL     1       3.649   3.774  19.531  0.00  0.00    +0.000 A 
ATOM      9  C   UNL     1       2.778   4.786  19.099  0.00  0.00    +0.000 A 
ATOM     10  C   UNL     1       3.327   5.860  18.360  0.00  0.00    +0.000 A 
ATOM     11  C   UNL     1       4.752   5.938  18.228  0.00  0.00    +0.000 A 
ATOM     12  C   UNL     1       5.435   7.017  17.602  0.00  0.00    +0.000 A 
ATOM     13  C   UNL     1       1.311   4.668  19.434  0.00  0.00    +0.000 C 
ATOM     14  C   UNL     1       0.974   3.688  20.553  0.00  0.00    +0.000 C 
ATOM     15  C   UNL     1       1.670   2.366  20.305  0.00  0.00    +0.000 C 
ATOM     16  C   UNL     1       3.178   2.574  20.314  0.00  0.00    +0.000 C 
BRANCH   3  18
ATOM     17  C   UNL     1       8.093   9.024  17.804  0.00  0.00    +0.000 C 
ATOM     18  O   UNL     1       7.582   8.028  16.927  0.00  0.00    +0.000 OA
ENDBRANCH   3  18
ENDBRANCH   1  10
BRANCH   1  19
ATOM     19  C   UNL     1       2.370   8.167  18.579  0.00  0.00    +0.000 C 
BRANCH  19  20
ATOM     20  C   UNL     1       1.506   9.177  17.813  0.00  0.00    +0.000 C 
BRANCH  20  21
ATOM     21  N   UNL     1       0.501   9.811  18.652  0.00  0.00    +0.000 N 
ATOM     22  H   UNL     1       0.868  10.494  19.327  0.00  0.00    +0.000 HD
BRANCH  21  23
ATOM     23  C   UNL     1      -0.772  10.149  18.205  0.00  0.00    +0.000 C 
ATOM     24  C   UNL     1      -1.309   9.728  17.054  0.00  0.00    +0.000 C 
ATOM     25  C   UNL     1      -2.641  10.133  16.584  0.00  0.00    +0.000 C 
ATOM     26  O   UNL     1      -3.046   9.767  15.488  0.00  0.00    +0.000 OA
ATOM     27  C   UNL     1      -3.447  10.989  17.466  0.00  0.00    +0.000 A 
ATOM     28  C   UNL     1      -4.747  11.339  17.082  0.00  0.00    +0.000 A 
ATOM     29  C   UNL     1      -5.518  12.156  17.908  0.00  0.00    +0.000 A 
ATOM     30  C   UNL     1      -4.993  12.628  19.111  0.00  0.00    +0.000 A 
ATOM     31  C   UNL     1      -3.697  12.277  19.494  0.00  0.00    +0.000 A 
ATOM     32  C   UNL     1      -2.923  11.451  18.671  0.00  0.00    +0.000 A 
ATOM     33  C   UNL     1      -1.558  11.077  19.090  0.00  0.00    +0.000 C 
ATOM     34  O   UNL     1      -1.066  11.519  20.125  0.00  0.00    +0.000 OA
ENDBRANCH  21  23
ENDBRANCH  20  21
ENDBRANCH  19  20
ENDBRANCH   1  19
TORSDOF 6
ENDMDL
MODEL 7
REMARK VINA RESULT:      -9.1      1.535      2.114
REMARK  Name = 
REMARK  7 active torsions:
REMARK  status: ('A' for Active; 'I' for Inactive)
REMARK    1  A    between atoms: C_1  and  O_2
REMARK    2  A    between atoms: O_2  and  C_3
REMARK    3  A    between atoms: C_10  and  N_11
REMARK    4  A    between atoms: N_11  and  C_12
REMARK    5  A    between atoms: C_12  and  C_13
REMARK    6  A    between atoms: C_13  and  N_14
REMARK    7  A    between atoms: N_14  and  C_15
REMARK                            x       y       z     vdW  Elec       q    Type
REMARK                         _______ _______ _______ _____ _____    ______ ____
ROOT
ATOM      1  N   UNL     1       3.130   7.076  18.969  0.00  0.00    +0.000 N 
ATOM      2  H   UNL     1       2.862   7.038  19.951  0.00  0.00    +0.000 HD
ENDROOT
BRANCH   1  10
ATOM      3  C   UNL     1       6.804   6.424  16.905  0.00  0.00    +0.000 A 
ATOM      4  C   UNL     1       7.052   5.163  16.378  0.00  0.00    +0.000 A 
ATOM      5  C   UNL     1       6.117   4.140  16.546  0.00  0.00    +0.000 A 
ATOM      6  C   UNL     1       4.932   4.343  17.236  0.00  0.00    +0.000 A 
ATOM      7  N   UNL     1       4.109   3.301  17.356  0.00  0.00    +0.000 NA
ATOM      8  C   UNL     1       2.965   3.449  18.057  0.00  0.00    +0.000 A 
ATOM      9  C   UNL     1       2.583   4.654  18.665  0.00  0.00    +0.000 A 
ATOM     10  C   UNL     1       3.401   5.790  18.456  0.00  0.00    +0.000 A 
ATOM     11  C   UNL     1       4.648   5.613  17.772  0.00  0.00    +0.000 A 
ATOM     12  C   UNL     1       5.607   6.647  17.588  0.00  0.00    +0.000 A 
ATOM     13  C   UNL     1       1.321   4.678  19.493  0.00  0.00    +0.000 C 
ATOM     14  C   UNL     1       0.804   3.312  19.934  0.00  0.00    +0.000 C 
ATOM     15  C   UNL     1       0.759   2.372  18.747  0.00  0.00    +0.000 C 
ATOM     16  C   UNL     1       2.166   2.177  18.197  0.00  0.00    +0.000 C 
BRANCH   3  18
ATOM     17  C   UNL     1       7.857   8.445  17.574  0.00  0.00    +0.000 C 
ATOM     18  O   UNL     1       7.798   7.336  16.686  0.00  0.00    +0.000 OA
ENDBRANCH   3  18
ENDBRANCH   1  10
BRANCH   1  19
ATOM     19  C   UNL     1       2.414   8.079  18.183  0.00  0.00    +0.000 C 
BRANCH  19  20
ATOM     20  C   UNL     1       1.262   8.720  18.966  0.00  0.00    +0.000 C 
BRANCH  20  21
ATOM     21  N   UNL     1       0.790   9.958  18.366  0.00  0.00    +0.000 N 
ATOM     22  H   UNL     1       0.941  10.032  17.351  0.00  0.00    +0.000 HD
BRANCH  21  23
ATOM     23  C   UNL     1      -0.362  10.621  18.775  0.00  0.00    +0.000 C 
ATOM     24  C   UNL     1      -0.448  11.392  19.864  0.00  0.00    +0.000 C 
ATOM     25  C   UNL     1      -1.689  12.048  20.298  0.00  0.00    +0.000 C 
ATOM     26  O   UNL     1      -1.717  12.685  21.343  0.00  0.00    +0.000 OA
ATOM     27  C   UNL     1      -2.876  11.902  19.443  0.00  0.00    +0.000 A 
ATOM     28  C   UNL     1      -4.056  12.569  19.789  0.00  0.00    +0.000 A 
ATOM     29  C   UNL     1      -5.190  12.432  18.989  0.00  0.00    +0.000 A 
ATOM     30  C   UNL     1      -5.148  11.627  17.851  0.00  0.00    +0.000 A 
ATOM     31  C   UNL     1      -3.969  10.963  17.506  0.00  0.00    +0.000 A 
ATOM     32  C   UNL     1      -2.828  11.105  18.302  0.00  0.00    +0.000 A 
ATOM     33  C   UNL     1      -1.583  10.408  17.923  0.00  0.00    +0.000 C 
ATOM     34  O   UNL     1      -1.543   9.662  16.948  0.00  0.00    +0.000 OA
ENDBRANCH  21  23
ENDBRANCH  20  21
ENDBRANCH  19  20
ENDBRANCH   1  19
TORSDOF 6
ENDMDL
MODEL 8
REMARK VINA RESULT:      -9.0      1.248      1.505
REMARK  Name = 
REMARK  7 active torsions:
REMARK  status: ('A' for Active; 'I' for Inactive)
REMARK    1  A    between atoms: C_1  and  O_2
REMARK    2  A    between atoms: O_2  and  C_3
REMARK    3  A    between atoms: C_10  and  N_11
REMARK    4  A    between atoms: N_11  and  C_12
REMARK    5  A    between atoms: C_12  and  C_13
REMARK    6  A    between atoms: C_13  and  N_14
REMARK    7  A    between atoms: N_14  and  C_15
REMARK                            x       y       z     vdW  Elec       q    Type
REMARK                         _______ _______ _______ _____ _____    ______ ____
ROOT
ATOM      1  N   UNL     1       2.921   6.969  19.724  0.00  0.00    +0.000 N 
ATOM      2  H   UNL     1       3.090   6.779  20.709  0.00  0.00    +0.000 HD
ENDROOT
BRANCH   1  10
ATOM      3  C   UNL     1       6.187   6.847  16.985  0.00  0.00    +0.000 A 
ATOM      4  C   UNL     1       6.344   5.718  16.192  0.00  0.00    +0.000 A 
ATOM      5  C   UNL     1       5.453   4.650  16.315  0.00  0.00    +0.000 A 
ATOM      6  C   UNL     1       4.404   4.677  17.220  0.00  0.00    +0.000 A 
ATOM      7  N   UNL     1       3.617   3.603  17.274  0.00  0.00    +0.000 NA
ATOM      8  C   UNL     1       2.609   3.576  18.172  0.00  0.00    +0.000 A 
ATOM      9  C   UNL     1       2.334   4.630  19.056  0.00  0.00    +0.000 A 
ATOM     10  C   UNL     1       3.102   5.812  18.935  0.00  0.00    +0.000 A 
ATOM     11  C   UNL     1       4.213   5.812  18.030  0.00  0.00    +0.000 A 
ATOM     12  C   UNL     1       5.125   6.895  17.890  0.00  0.00    +0.000 A 
ATOM     13  C   UNL     1       1.233   4.452  20.073  0.00  0.00    +0.000 C 
ATOM     14  C   UNL     1       0.803   3.011  20.324  0.00  0.00    +0.000 C 
ATOM     15  C   UNL     1       0.557   2.311  19.003  0.00  0.00    +0.000 C 
ATOM     16  C   UNL     1       1.848   2.273  18.198  0.00  0.00    +0.000 C 
BRANCH   3  18
ATOM     17  C   UNL     1       8.022   8.079  17.855  0.00  0.00    +0.000 C 
ATOM     18  O   UNL     1       7.127   7.819  16.781  0.00  0.00    +0.000 OA
ENDBRANCH   3  18
ENDBRANCH   1  10
BRANCH   1  19
ATOM     19  C   UNL     1       1.832   7.909  19.465  0.00  0.00    +0.000 C 
BRANCH  19  20
ATOM     20  C   UNL     1       1.763   8.329  17.991  0.00  0.00    +0.000 C 
BRANCH  20  21
ATOM     21  N   UNL     1       1.517   9.752  17.820  0.00  0.00    +0.000 N 
ATOM     22  H   UNL     1       1.508  10.076  16.845  0.00  0.00    +0.000 HD
BRANCH  21  23
ATOM     23  C   UNL     1       0.649  10.484  18.623  0.00  0.00    +0.000 C 
ATOM     24  C   UNL     1       1.007  11.118  19.746  0.00  0.00    +0.000 C 
ATOM     25  C   UNL     1       0.062  11.850  20.601  0.00  0.00    +0.000 C 
ATOM     26  O   UNL     1       0.441  12.351  21.652  0.00  0.00    +0.000 OA
ATOM     27  C   UNL     1      -1.334  11.947  20.151  0.00  0.00    +0.000 A 
ATOM     28  C   UNL     1      -2.247  12.695  20.904  0.00  0.00    +0.000 A 
ATOM     29  C   UNL     1      -3.575  12.788  20.491  0.00  0.00    +0.000 A 
ATOM     30  C   UNL     1      -3.994  12.132  19.333  0.00  0.00    +0.000 A 
ATOM     31  C   UNL     1      -3.082  11.388  18.582  0.00  0.00    +0.000 A 
ATOM     32  C   UNL     1      -1.747  11.299  18.989  0.00  0.00    +0.000 A 
ATOM     33  C   UNL     1      -0.788  10.519  18.182  0.00  0.00    +0.000 C 
ATOM     34  O   UNL     1      -1.151   9.901  17.184  0.00  0.00    +0.000 OA
ENDBRANCH  21  23
ENDBRANCH  20  21
ENDBRANCH  19  20
ENDBRANCH   1  19
TORSDOF 6
ENDMDL
MODEL 9
REMARK VINA RESULT:      -9.0      1.919      2.205
REMARK  Name = 
REMARK  7 active torsions:
REMARK  status: ('A' for Active; 'I' for Inactive)
REMARK    1  A    between atoms: C_1  and  O_2
REMARK    2  A    between atoms: O_2  and  C_3
REMARK    3  A    between atoms: C_10  and  N_11
REMARK    4  A    between atoms: N_11  and  C_12
REMARK    5  A    between atoms: C_12  and  C_13
REMARK    6  A    between atoms: C_13  and  N_14
REMARK    7  A    between atoms: N_14  and  C_15
REMARK                            x       y       z     vdW  Elec       q    Type
REMARK                         _______ _______ _______ _____ _____    ______ ____
ROOT
ATOM      1  N   UNL     1       3.319   6.807  19.440  0.00  0.00    +0.000 N 
ATOM      2  H   UNL     1       3.562   6.687  20.421  0.00  0.00    +0.000 HD
ENDROOT
BRANCH   1  10
ATOM      3  C   UNL     1       6.676   6.344  16.853  0.00  0.00    +0.000 A 
ATOM      4  C   UNL     1       6.794   5.166  16.126  0.00  0.00    +0.000 A 
ATOM      5  C   UNL     1       5.835   4.162  16.266  0.00  0.00    +0.000 A 
ATOM      6  C   UNL     1       4.754   4.300  17.122  0.00  0.00    +0.000 A 
ATOM      7  N   UNL     1       3.900   3.279  17.198  0.00  0.00    +0.000 NA
ATOM      8  C   UNL     1       2.858   3.361  18.053  0.00  0.00    +0.000 A 
ATOM      9  C   UNL     1       2.615   4.476  18.869  0.00  0.00    +0.000 A 
ATOM     10  C   UNL     1       3.459   5.602  18.720  0.00  0.00    +0.000 A 
ATOM     11  C   UNL     1       4.603   5.487  17.865  0.00  0.00    +0.000 A 
ATOM     12  C   UNL     1       5.584   6.504  17.708  0.00  0.00    +0.000 A 
ATOM     13  C   UNL     1       1.466   4.419  19.846  0.00  0.00    +0.000 C 
ATOM     14  C   UNL     1       0.937   3.021  20.151  0.00  0.00    +0.000 C 
ATOM     15  C   UNL     1       0.701   2.268  18.859  0.00  0.00    +0.000 C 
ATOM     16  C   UNL     1       2.018   2.109  18.112  0.00  0.00    +0.000 C 
BRANCH   3  18
ATOM     17  C   UNL     1       7.891   8.222  17.652  0.00  0.00    +0.000 C 
ATOM     18  O   UNL     1       7.682   7.245  16.640  0.00  0.00    +0.000 OA
ENDBRANCH   3  18
ENDBRANCH   1  10
BRANCH   1  19
ATOM     19  C   UNL     1       2.201   7.717  19.199  0.00  0.00    +0.000 C 
BRANCH  19  20
ATOM     20  C   UNL     1       2.388   8.546  17.923  0.00  0.00    +0.000 C 
BRANCH  20  21
ATOM     21  N   UNL     1       1.347   9.545  17.739  0.00  0.00    +0.000 N 
ATOM     22  H   UNL     1       0.516   9.216  17.231  0.00  0.00    +0.000 HD
BRANCH  21  23
ATOM     23  C   UNL     1       1.033  10.511  18.688  0.00  0.00    +0.000 C 
ATOM     24  C   UNL     1       0.025  10.418  19.563  0.00  0.00    +0.000 C 
ATOM     25  C   UNL     1      -0.313  11.473  20.529  0.00  0.00    +0.000 C 
ATOM     26  O   UNL     1      -1.291  11.353  21.255  0.00  0.00    +0.000 OA
ATOM     27  C   UNL     1       0.554  12.659  20.577  0.00  0.00    +0.000 A 
ATOM     28  C   UNL     1       0.304  13.652  21.531  0.00  0.00    +0.000 A 
ATOM     29  C   UNL     1       1.116  14.785  21.582  0.00  0.00    +0.000 A 
ATOM     30  C   UNL     1       2.170  14.929  20.680  0.00  0.00    +0.000 A 
ATOM     31  C   UNL     1       2.419  13.937  19.730  0.00  0.00    +0.000 A 
ATOM     32  C   UNL     1       1.612  12.795  19.682  0.00  0.00    +0.000 A 
ATOM     33  C   UNL     1       1.890  11.747  18.681  0.00  0.00    +0.000 C 
ATOM     34  O   UNL     1       2.788  11.879  17.853  0.00  0.00    +0.000 OA
ENDBRANCH  21  23
ENDBRANCH  20  21
ENDBRANCH  19  20
ENDBRANCH   1  19
TORSDOF 6
ENDMDL
