MODEL 1
REMARK VINA RESULT:      -7.6      0.000      0.000
REMARK  Name = 
REMARK  3 active torsions:
REMARK  status: ('A' for Active; 'I' for Inactive)
REMARK    1  A    between atoms: C_1  and  C_2
REMARK    2  A    between atoms: N_4  and  C_5
REMARK    3  A    between atoms: C_19  and  N_20
REMARK                            x       y       z     vdW  Elec       q    Type
REMARK                         _______ _______ _______ _____ _____    ______ ____
ROOT
ATOM      1  C   UNL     1       2.162   9.525  18.019  0.00  0.00    +0.000 C 
ATOM      2  C   UNL     1       2.772   8.177  18.152  0.00  0.00    +0.000 A 
ATOM      3  N   UNL     1       3.794   7.810  17.385  0.00  0.00    +0.000 NA
ATOM      4  N   UNL     1       4.011   6.488  17.661  0.00  0.00    +0.000 N 
ATOM      5  C   UNL     1       3.248   6.076  18.756  0.00  0.00    +0.000 A 
ATOM      6  C   UNL     1       2.436   7.160  19.059  0.00  0.00    +0.000 A 
ATOM      7  C   UNL     1       1.475   7.164  20.139  0.00  0.00    +0.000 A 
ATOM      8  O   UNL     1       0.745   8.116  20.390  0.00  0.00    +0.000 OA
ATOM      9  O   UNL     1       1.438   5.992  20.906  0.00  0.00    +0.000 OA
ATOM     10  C   UNL     1       2.295   4.882  20.660  0.00  0.00    +0.000 A 
ATOM     11  C   UNL     1       2.155   3.821  21.557  0.00  0.00    +0.000 A 
ATOM     12  C   UNL     1       2.935   2.682  21.390  0.00  0.00    +0.000 A 
ATOM     13  C   UNL     1       3.873   2.650  20.350  0.00  0.00    +0.000 A 
ATOM     14  C   UNL     1       4.053   3.756  19.496  0.00  0.00    +0.000 A 
ATOM     15  C   UNL     1       3.228   4.876  19.600  0.00  0.00    +0.000 A 
ENDROOT
BRANCH   4  16
ATOM     16  C   UNL     1       4.911   5.789  16.812  0.00  0.00    +0.000 A 
ATOM     17  C   UNL     1       6.240   6.240  16.715  0.00  0.00    +0.000 A 
ATOM     18  C   UNL     1       7.159   5.559  15.915  0.00  0.00    +0.000 A 
ATOM     19  C   UNL     1       6.758   4.437  15.196  0.00  0.00    +0.000 A 
ATOM     20  C   UNL     1       5.431   4.015  15.249  0.00  0.00    +0.000 A 
ATOM     21  C   UNL     1       4.501   4.707  16.030  0.00  0.00    +0.000 A 
ENDBRANCH   4  16
BRANCH  13  22
ATOM     22  N   UNL     1       4.666   1.430  20.128  0.00  0.00    +0.000 N 
ATOM     23  O   UNL     1       5.507   1.127  20.986  0.00  0.00    +0.000 OA
ATOM     24  O   UNL     1       4.429   0.768  19.109  0.00  0.00    +0.000 OA
ENDBRANCH  13  22
TORSDOF 2
ENDMDL
MODEL 2
REMARK VINA RESULT:      -7.5      0.061      1.173
REMARK  Name = 
REMARK  3 active torsions:
REMARK  status: ('A' for Active; 'I' for Inactive)
REMARK    1  A    between atoms: C_1  and  C_2
REMARK    2  A    between atoms: N_4  and  C_5
REMARK    3  A    between atoms: C_19  and  N_20
REMARK                            x       y       z     vdW  Elec       q    Type
REMARK                         _______ _______ _______ _____ _____    ______ ____
ROOT
ATOM      1  C   UNL     1       2.184   9.555  18.012  0.00  0.00    +0.000 C 
ATOM      2  C   UNL     1       2.788   8.205  18.150  0.00  0.00    +0.000 A 
ATOM      3  N   UNL     1       3.815   7.834  17.391  0.00  0.00    +0.000 NA
ATOM      4  N   UNL     1       4.025   6.512  17.669  0.00  0.00    +0.000 N 
ATOM      5  C   UNL     1       3.252   6.103  18.758  0.00  0.00    +0.000 A 
ATOM      6  C   UNL     1       2.441   7.190  19.055  0.00  0.00    +0.000 A 
ATOM      7  C   UNL     1       1.472   7.197  20.126  0.00  0.00    +0.000 A 
ATOM      8  O   UNL     1       0.743   8.152  20.372  0.00  0.00    +0.000 OA
ATOM      9  O   UNL     1       1.425   6.025  20.894  0.00  0.00    +0.000 OA
ATOM     10  C   UNL     1       2.280   4.912  20.655  0.00  0.00    +0.000 A 
ATOM     11  C   UNL     1       2.129   3.852  21.551  0.00  0.00    +0.000 A 
ATOM     12  C   UNL     1       2.907   2.710  21.390  0.00  0.00    +0.000 A 
ATOM     13  C   UNL     1       3.852   2.674  20.357  0.00  0.00    +0.000 A 
ATOM     14  C   UNL     1       4.043   3.779  19.504  0.00  0.00    +0.000 A 
ATOM     15  C   UNL     1       3.222   4.903  19.602  0.00  0.00    +0.000 A 
ENDROOT
BRANCH   4  16
ATOM     16  C   UNL     1       4.929   5.809  16.827  0.00  0.00    +0.000 A 
ATOM     17  C   UNL     1       4.456   4.701  16.100  0.00  0.00    +0.000 A 
ATOM     18  C   UNL     1       5.309   4.006  15.241  0.00  0.00    +0.000 A 
ATOM     19  C   UNL     1       6.637   4.399  15.113  0.00  0.00    +0.000 A 
ATOM     20  C   UNL     1       7.125   5.464  15.868  0.00  0.00    +0.000 A 
ATOM     21  C   UNL     1       6.281   6.148  16.747  0.00  0.00    +0.000 A 
ENDBRANCH   4  16
BRANCH  13  22
ATOM     22  N   UNL     1       4.643   1.452  20.142  0.00  0.00    +0.000 N 
ATOM     23  O   UNL     1       4.417   0.794  19.117  0.00  0.00    +0.000 OA
ATOM     24  O   UNL     1       5.502   1.167  20.987  0.00  0.00    +0.000 OA
ENDBRANCH  13  22
TORSDOF 2
ENDMDL
MODEL 3
REMARK VINA RESULT:      -7.2      2.699      6.133
REMARK  Name = 
REMARK  3 active torsions:
REMARK  status: ('A' for Active; 'I' for Inactive)
REMARK    1  A    between atoms: C_1  and  C_2
REMARK    2  A    between atoms: N_4  and  C_5
REMARK    3  A    between atoms: C_19  and  N_20
REMARK                            x       y       z     vdW  Elec       q    Type
REMARK                         _______ _______ _______ _____ _____    ______ ____
ROOT
ATOM      1  C   UNL     1       5.960   3.648  15.910  0.00  0.00    +0.000 C 
ATOM      2  C   UNL     1       5.010   4.242  16.885  0.00  0.00    +0.000 A 
ATOM      3  N   UNL     1       4.580   3.545  17.932  0.00  0.00    +0.000 NA
ATOM      4  N   UNL     1       3.626   4.321  18.531  0.00  0.00    +0.000 N 
ATOM      5  C   UNL     1       3.601   5.600  17.969  0.00  0.00    +0.000 A 
ATOM      6  C   UNL     1       4.480   5.541  16.896  0.00  0.00    +0.000 A 
ATOM      7  C   UNL     1       4.758   6.661  16.026  0.00  0.00    +0.000 A 
ATOM      8  O   UNL     1       5.518   6.599  15.067  0.00  0.00    +0.000 OA
ATOM      9  O   UNL     1       4.099   7.852  16.361  0.00  0.00    +0.000 OA
ATOM     10  C   UNL     1       3.235   7.965  17.487  0.00  0.00    +0.000 A 
ATOM     11  C   UNL     1       2.709   9.241  17.698  0.00  0.00    +0.000 A 
ATOM     12  C   UNL     1       1.839   9.449  18.763  0.00  0.00    +0.000 A 
ATOM     13  C   UNL     1       1.549   8.381  19.621  0.00  0.00    +0.000 A 
ATOM     14  C   UNL     1       2.144   7.117  19.437  0.00  0.00    +0.000 A 
ATOM     15  C   UNL     1       2.959   6.868  18.333  0.00  0.00    +0.000 A 
ENDROOT
BRANCH   4  16
ATOM     16  C   UNL     1       2.845   3.716  19.552  0.00  0.00    +0.000 A 
ATOM     17  C   UNL     1       3.503   3.068  20.613  0.00  0.00    +0.000 A 
ATOM     18  C   UNL     1       2.769   2.489  21.649  0.00  0.00    +0.000 A 
ATOM     19  C   UNL     1       1.379   2.539  21.628  0.00  0.00    +0.000 A 
ATOM     20  C   UNL     1       0.720   3.135  20.554  0.00  0.00    +0.000 A 
ATOM     21  C   UNL     1       1.450   3.695  19.503  0.00  0.00    +0.000 A 
ENDBRANCH   4  16
BRANCH  13  22
ATOM     22  N   UNL     1       0.588   8.574  20.718  0.00  0.00    +0.000 N 
ATOM     23  O   UNL     1      -0.206   9.522  20.628  0.00  0.00    +0.000 OA
ATOM     24  O   UNL     1       0.614   7.764  21.654  0.00  0.00    +0.000 OA
ENDBRANCH  13  22
TORSDOF 2
ENDMDL
MODEL 4
REMARK VINA RESULT:      -6.5      2.838      5.915
REMARK  Name = 
REMARK  3 active torsions:
REMARK  status: ('A' for Active; 'I' for Inactive)
REMARK    1  A    between atoms: C_1  and  C_2
REMARK    2  A    between atoms: N_4  and  C_5
REMARK    3  A    between atoms: C_19  and  N_20
REMARK                            x       y       z     vdW  Elec       q    Type
REMARK                         _______ _______ _______ _____ _____    ______ ____
ROOT
ATOM      1  C   UNL     1       0.717   2.518  18.945  0.00  0.00    +0.000 C 
ATOM      2  C   UNL     1       1.656   3.662  18.823  0.00  0.00    +0.000 A 
ATOM      3  N   UNL     1       1.303   4.882  19.218  0.00  0.00    +0.000 NA
ATOM      4  N   UNL     1       2.326   5.707  18.838  0.00  0.00    +0.000 N 
ATOM      5  C   UNL     1       3.418   4.968  18.380  0.00  0.00    +0.000 A 
ATOM      6  C   UNL     1       2.979   3.651  18.352  0.00  0.00    +0.000 A 
ATOM      7  C   UNL     1       3.801   2.540  17.932  0.00  0.00    +0.000 A 
ATOM      8  O   UNL     1       3.402   1.382  17.890  0.00  0.00    +0.000 OA
ATOM      9  O   UNL     1       5.117   2.874  17.582  0.00  0.00    +0.000 OA
ATOM     10  C   UNL     1       5.620   4.204  17.651  0.00  0.00    +0.000 A 
ATOM     11  C   UNL     1       6.968   4.341  17.315  0.00  0.00    +0.000 A 
ATOM     12  C   UNL     1       7.548   5.605  17.334  0.00  0.00    +0.000 A 
ATOM     13  C   UNL     1       6.773   6.700  17.734  0.00  0.00    +0.000 A 
ATOM     14  C   UNL     1       5.433   6.537  18.140  0.00  0.00    +0.000 A 
ATOM     15  C   UNL     1       4.813   5.290  18.055  0.00  0.00    +0.000 A 
ENDROOT
BRANCH   4  16
ATOM     16  C   UNL     1       2.102   7.107  18.945  0.00  0.00    +0.000 A 
ATOM     17  C   UNL     1       2.243   7.905  17.796  0.00  0.00    +0.000 A 
ATOM     18  C   UNL     1       2.002   9.278  17.857  0.00  0.00    +0.000 A 
ATOM     19  C   UNL     1       1.636   9.866  19.064  0.00  0.00    +0.000 A 
ATOM     20  C   UNL     1       1.544   9.089  20.217  0.00  0.00    +0.000 A 
ATOM     21  C   UNL     1       1.807   7.717  20.165  0.00  0.00    +0.000 A 
ENDBRANCH   4  16
BRANCH  13  22
ATOM     22  N   UNL     1       7.359   8.050  17.707  0.00  0.00    +0.000 N 
ATOM     23  O   UNL     1       8.410   8.234  18.336  0.00  0.00    +0.000 OA
ATOM     24  O   UNL     1       6.778   8.915  17.038  0.00  0.00    +0.000 OA
ENDBRANCH  13  22
TORSDOF 2
ENDMDL
MODEL 5
REMARK VINA RESULT:      -6.4      2.814      5.835
REMARK  Name = 
REMARK  3 active torsions:
REMARK  status: ('A' for Active; 'I' for Inactive)
REMARK    1  A    between atoms: C_1  and  C_2
REMARK    2  A    between atoms: N_4  and  C_5
REMARK    3  A    between atoms: C_19  and  N_20
REMARK                            x       y       z     vdW  Elec       q    Type
REMARK                         _______ _______ _______ _____ _____    ______ ____
ROOT
ATOM      1  C   UNL     1       1.140   2.923  21.038  0.00  0.00    +0.000 C 
ATOM      2  C   UNL     1       1.977   4.004  20.460  0.00  0.00    +0.000 A 
ATOM      3  N   UNL     1       1.547   5.262  20.433  0.00  0.00    +0.000 NA
ATOM      4  N   UNL     1       2.481   5.960  19.719  0.00  0.00    +0.000 N 
ATOM      5  C   UNL     1       3.607   5.173  19.467  0.00  0.00    +0.000 A 
ATOM      6  C   UNL     1       3.273   3.906  19.929  0.00  0.00    +0.000 A 
ATOM      7  C   UNL     1       4.161   2.769  19.861  0.00  0.00    +0.000 A 
ATOM      8  O   UNL     1       3.854   1.648  20.251  0.00  0.00    +0.000 OA
ATOM      9  O   UNL     1       5.428   3.035  19.323  0.00  0.00    +0.000 OA
ATOM     10  C   UNL     1       5.826   4.332  18.891  0.00  0.00    +0.000 A 
ATOM     11  C   UNL     1       7.141   4.421  18.432  0.00  0.00    +0.000 A 
ATOM     12  C   UNL     1       7.618   5.643  17.971  0.00  0.00    +0.000 A 
ATOM     13  C   UNL     1       6.778   6.762  18.022  0.00  0.00    +0.000 A 
ATOM     14  C   UNL     1       5.476   6.673  18.554  0.00  0.00    +0.000 A 
ATOM     15  C   UNL     1       4.954   5.442  18.951  0.00  0.00    +0.000 A 
ENDROOT
BRANCH   4  16
ATOM     16  C   UNL     1       2.152   7.293  19.351  0.00  0.00    +0.000 A 
ATOM     17  C   UNL     1       1.578   8.140  20.316  0.00  0.00    +0.000 A 
ATOM     18  C   UNL     1       1.270   9.464  19.998  0.00  0.00    +0.000 A 
ATOM     19  C   UNL     1       1.516   9.946  18.716  0.00  0.00    +0.000 A 
ATOM     20  C   UNL     1       2.038   9.098  17.741  0.00  0.00    +0.000 A 
ATOM     21  C   UNL     1       2.326   7.765  18.048  0.00  0.00    +0.000 A 
ENDBRANCH   4  16
BRANCH  13  22
ATOM     22  N   UNL     1       7.252   8.049  17.487  0.00  0.00    +0.000 N 
ATOM     23  O   UNL     1       8.351   8.465  17.879  0.00  0.00    +0.000 OA
ATOM     24  O   UNL     1       6.534   8.626  16.660  0.00  0.00    +0.000 OA
ENDBRANCH  13  22
TORSDOF 2
ENDMDL
MODEL 6
REMARK VINA RESULT:      -6.4      2.806      5.863
REMARK  Name = 
REMARK  3 active torsions:
REMARK  status: ('A' for Active; 'I' for Inactive)
REMARK    1  A    between atoms: C_1  and  C_2
REMARK    2  A    between atoms: N_4  and  C_5
REMARK    3  A    between atoms: C_19  and  N_20
REMARK                            x       y       z     vdW  Elec       q    Type
REMARK                         _______ _______ _______ _____ _____    ______ ____
ROOT
ATOM      1  C   UNL     1       1.113   2.893  20.981  0.00  0.00    +0.000 C 
ATOM      2  C   UNL     1       1.957   3.980  20.425  0.00  0.00    +0.000 A 
ATOM      3  N   UNL     1       1.535   5.240  20.421  0.00  0.00    +0.000 NA
ATOM      4  N   UNL     1       2.474   5.946  19.721  0.00  0.00    +0.000 N 
ATOM      5  C   UNL     1       3.595   5.157  19.457  0.00  0.00    +0.000 A 
ATOM      6  C   UNL     1       3.253   3.884  19.894  0.00  0.00    +0.000 A 
ATOM      7  C   UNL     1       4.135   2.743  19.806  0.00  0.00    +0.000 A 
ATOM      8  O   UNL     1       3.821   1.617  20.174  0.00  0.00    +0.000 OA
ATOM      9  O   UNL     1       5.404   3.011  19.275  0.00  0.00    +0.000 OA
ATOM     10  C   UNL     1       5.810   4.314  18.868  0.00  0.00    +0.000 A 
ATOM     11  C   UNL     1       7.126   4.403  18.413  0.00  0.00    +0.000 A 
ATOM     12  C   UNL     1       7.612   5.631  17.975  0.00  0.00    +0.000 A 
ATOM     13  C   UNL     1       6.778   6.754  18.046  0.00  0.00    +0.000 A 
ATOM     14  C   UNL     1       5.475   6.663  18.574  0.00  0.00    +0.000 A 
ATOM     15  C   UNL     1       4.945   5.427  18.948  0.00  0.00    +0.000 A 
ENDROOT
BRANCH   4  16
ATOM     16  C   UNL     1       2.154   7.288  19.377  0.00  0.00    +0.000 A 
ATOM     17  C   UNL     1       2.397   7.727  18.064  0.00  0.00    +0.000 A 
ATOM     18  C   UNL     1       2.066   9.029  17.683  0.00  0.00    +0.000 A 
ATOM     19  C   UNL     1       1.508   9.903  18.610  0.00  0.00    +0.000 A 
ATOM     20  C   UNL     1       1.311   9.490  19.926  0.00  0.00    +0.000 A 
ATOM     21  C   UNL     1       1.662   8.195  20.318  0.00  0.00    +0.000 A 
ENDBRANCH   4  16
BRANCH  13  22
ATOM     22  N   UNL     1       7.261   8.047  17.535  0.00  0.00    +0.000 N 
ATOM     23  O   UNL     1       6.573   8.620  16.679  0.00  0.00    +0.000 OA
ATOM     24  O   UNL     1       8.313   8.495  18.009  0.00  0.00    +0.000 OA
ENDBRANCH  13  22
TORSDOF 2
ENDMDL
MODEL 7
REMARK VINA RESULT:      -6.3      1.782      5.029
REMARK  Name = 
REMARK  3 active torsions:
REMARK  status: ('A' for Active; 'I' for Inactive)
REMARK    1  A    between atoms: C_1  and  C_2
REMARK    2  A    between atoms: N_4  and  C_5
REMARK    3  A    between atoms: C_19  and  N_20
REMARK                            x       y       z     vdW  Elec       q    Type
REMARK                         _______ _______ _______ _____ _____    ______ ____
ROOT
ATOM      1  C   UNL     1       4.200   1.009  19.869  0.00  0.00    +0.000 C 
ATOM      2  C   UNL     1       3.962   2.374  19.334  0.00  0.00    +0.000 A 
ATOM      3  N   UNL     1       4.336   2.700  18.100  0.00  0.00    +0.000 NA
ATOM      4  N   UNL     1       4.105   4.043  17.983  0.00  0.00    +0.000 N 
ATOM      5  C   UNL     1       3.393   4.523  19.084  0.00  0.00    +0.000 A 
ATOM      6  C   UNL     1       3.319   3.451  19.963  0.00  0.00    +0.000 A 
ATOM      7  C   UNL     1       2.660   3.512  21.248  0.00  0.00    +0.000 A 
ATOM      8  O   UNL     1       2.615   2.569  22.029  0.00  0.00    +0.000 OA
ATOM      9  O   UNL     1       2.051   4.740  21.546  0.00  0.00    +0.000 OA
ATOM     10  C   UNL     1       2.059   5.843  20.646  0.00  0.00    +0.000 A 
ATOM     11  C   UNL     1       1.358   6.966  21.088  0.00  0.00    +0.000 A 
ATOM     12  C   UNL     1       1.322   8.103  20.288  0.00  0.00    +0.000 A 
ATOM     13  C   UNL     1       1.954   8.073  19.039  0.00  0.00    +0.000 A 
ATOM     14  C   UNL     1       2.597   6.908  18.575  0.00  0.00    +0.000 A 
ATOM     15  C   UNL     1       2.709   5.784  19.394  0.00  0.00    +0.000 A 
ENDROOT
BRANCH   4  16
ATOM     16  C   UNL     1       4.625   4.692  16.830  0.00  0.00    +0.000 A 
ATOM     17  C   UNL     1       5.088   3.904  15.761  0.00  0.00    +0.000 A 
ATOM     18  C   UNL     1       5.577   4.508  14.601  0.00  0.00    +0.000 A 
ATOM     19  C   UNL     1       5.623   5.895  14.506  0.00  0.00    +0.000 A 
ATOM     20  C   UNL     1       5.213   6.680  15.582  0.00  0.00    +0.000 A 
ATOM     21  C   UNL     1       4.745   6.081  16.754  0.00  0.00    +0.000 A 
ENDBRANCH   4  16
BRANCH  13  22
ATOM     22  N   UNL     1       1.970   9.286  18.207  0.00  0.00    +0.000 N 
ATOM     23  O   UNL     1       2.465   9.201  17.074  0.00  0.00    +0.000 OA
ATOM     24  O   UNL     1       1.468  10.314  18.679  0.00  0.00    +0.000 OA
ENDBRANCH  13  22
TORSDOF 2
ENDMDL
MODEL 8
REMARK VINA RESULT:      -6.3      6.982     10.717
REMARK  Name = 
REMARK  3 active torsions:
REMARK  status: ('A' for Active; 'I' for Inactive)
REMARK    1  A    between atoms: C_1  and  C_2
REMARK    2  A    between atoms: N_4  and  C_5
REMARK    3  A    between atoms: C_19  and  N_20
REMARK                            x       y       z     vdW  Elec       q    Type
REMARK                         _______ _______ _______ _____ _____    ______ ____
ROOT
ATOM      1  C   UNL     1      -6.614  12.351  17.349  0.00  0.00    +0.000 C 
ATOM      2  C   UNL     1      -5.424  12.280  18.234  0.00  0.00    +0.000 A 
ATOM      3  N   UNL     1      -5.466  12.754  19.476  0.00  0.00    +0.000 NA
ATOM      4  N   UNL     1      -4.187  12.662  19.953  0.00  0.00    +0.000 N 
ATOM      5  C   UNL     1      -3.378  11.939  19.074  0.00  0.00    +0.000 A 
ATOM      6  C   UNL     1      -4.171  11.709  17.958  0.00  0.00    +0.000 A 
ATOM      7  C   UNL     1      -3.722  10.987  16.790  0.00  0.00    +0.000 A 
ATOM      8  O   UNL     1      -4.419  10.805  15.798  0.00  0.00    +0.000 OA
ATOM      9  O   UNL     1      -2.415  10.485  16.868  0.00  0.00    +0.000 OA
ATOM     10  C   UNL     1      -1.592  10.652  18.018  0.00  0.00    +0.000 A 
ATOM     11  C   UNL     1      -0.340  10.040  17.938  0.00  0.00    +0.000 A 
ATOM     12  C   UNL     1       0.545  10.161  19.004  0.00  0.00    +0.000 A 
ATOM     13  C   UNL     1       0.136  10.858  20.148  0.00  0.00    +0.000 A 
ATOM     14  C   UNL     1      -1.157  11.410  20.243  0.00  0.00    +0.000 A 
ATOM     15  C   UNL     1      -2.030  11.364  19.155  0.00  0.00    +0.000 A 
ENDROOT
BRANCH   4  16
ATOM     16  C   UNL     1      -3.908  13.309  21.188  0.00  0.00    +0.000 A 
ATOM     17  C   UNL     1      -4.470  12.787  22.367  0.00  0.00    +0.000 A 
ATOM     18  C   UNL     1      -4.193  13.379  23.601  0.00  0.00    +0.000 A 
ATOM     19  C   UNL     1      -3.371  14.499  23.665  0.00  0.00    +0.000 A 
ATOM     20  C   UNL     1      -2.852  15.050  22.495  0.00  0.00    +0.000 A 
ATOM     21  C   UNL     1      -3.145  14.476  21.256  0.00  0.00    +0.000 A 
ENDBRANCH   4  16
BRANCH  13  22
ATOM     22  N   UNL     1       1.082  11.041  21.260  0.00  0.00    +0.000 N 
ATOM     23  O   UNL     1       1.678  12.125  21.337  0.00  0.00    +0.000 OA
ATOM     24  O   UNL     1       1.208  10.109  22.066  0.00  0.00    +0.000 OA
ENDBRANCH  13  22
TORSDOF 2
ENDMDL
MODEL 9
REMARK VINA RESULT:      -6.2      1.724      4.920
REMARK  Name = 
REMARK  3 active torsions:
REMARK  status: ('A' for Active; 'I' for Inactive)
REMARK    1  A    between atoms: C_1  and  C_2
REMARK    2  A    between atoms: N_4  and  C_5
REMARK    3  A    between atoms: C_19  and  N_20
REMARK                            x       y       z     vdW  Elec       q    Type
REMARK                         _______ _______ _______ _____ _____    ______ ____
ROOT
ATOM      1  C   UNL     1       4.420   0.951  20.297  0.00  0.00    +0.000 C 
ATOM      2  C   UNL     1       4.226   2.294  19.692  0.00  0.00    +0.000 A 
ATOM      3  N   UNL     1       4.764   2.597  18.515  0.00  0.00    +0.000 NA
ATOM      4  N   UNL     1       4.517   3.929  18.324  0.00  0.00    +0.000 N 
ATOM      5  C   UNL     1       3.643   4.417  19.299  0.00  0.00    +0.000 A 
ATOM      6  C   UNL     1       3.472   3.368  20.191  0.00  0.00    +0.000 A 
ATOM      7  C   UNL     1       2.636   3.443  21.367  0.00  0.00    +0.000 A 
ATOM      8  O   UNL     1       2.505   2.521  22.163  0.00  0.00    +0.000 OA
ATOM      9  O   UNL     1       1.960   4.659  21.538  0.00  0.00    +0.000 OA
ATOM     10  C   UNL     1       2.067   5.738  20.615  0.00  0.00    +0.000 A 
ATOM     11  C   UNL     1       1.281   6.851  20.919  0.00  0.00    +0.000 A 
ATOM     12  C   UNL     1       1.330   7.965  20.087  0.00  0.00    +0.000 A 
ATOM     13  C   UNL     1       2.134   7.920  18.941  0.00  0.00    +0.000 A 
ATOM     14  C   UNL     1       2.867   6.763  18.609  0.00  0.00    +0.000 A 
ATOM     15  C   UNL     1       2.890   5.665  19.470  0.00  0.00    +0.000 A 
ENDROOT
BRANCH   4  16
ATOM     16  C   UNL     1       5.179   4.562  17.238  0.00  0.00    +0.000 A 
ATOM     17  C   UNL     1       6.150   5.541  17.514  0.00  0.00    +0.000 A 
ATOM     18  C   UNL     1       6.841   6.162  16.472  0.00  0.00    +0.000 A 
ATOM     19  C   UNL     1       6.559   5.823  15.152  0.00  0.00    +0.000 A 
ATOM     20  C   UNL     1       5.563   4.891  14.870  0.00  0.00    +0.000 A 
ATOM     21  C   UNL     1       4.851   4.284  15.909  0.00  0.00    +0.000 A 
ENDBRANCH   4  16
BRANCH  13  22
ATOM     22  N   UNL     1       2.237   9.111  18.083  0.00  0.00    +0.000 N 
ATOM     23  O   UNL     1       2.819   8.987  16.996  0.00  0.00    +0.000 OA
ATOM     24  O   UNL     1       1.716  10.158  18.488  0.00  0.00    +0.000 OA
ENDBRANCH  13  22
TORSDOF 2
ENDMDL
