MODEL 1
REMARK VINA RESULT:      -9.7      0.000      0.000
REMARK  Name = 
REMARK  7 active torsions:
REMARK  status: ('A' for Active; 'I' for Inactive)
REMARK    1  A    between atoms: C_4  and  C_5
REMARK    2  A    between atoms: C_10  and  O_11
REMARK    3  A    between atoms: O_11  and  C_12
REMARK    4  A    between atoms: C_12  and  C_13
REMARK    5  A    between atoms: C_17  and  C_18
REMARK    6  A    between atoms: N_25  and  C_26
REMARK    7  A    between atoms: C_31  and  O_32
REMARK                            x       y       z     vdW  Elec       q    Type
REMARK                         _______ _______ _______ _____ _____    ______ ____
ROOT
ATOM      1  C   UNL     1       2.511   5.388  20.004  0.00  0.00    +0.000 A 
ATOM      2  C   UNL     1       1.964   4.870  21.198  0.00  0.00    +0.000 A 
ATOM      3  C   UNL     1       2.105   3.529  21.544  0.00  0.00    +0.000 A 
ATOM      4  C   UNL     1       2.831   2.687  20.718  0.00  0.00    +0.000 A 
ATOM      5  C   UNL     1       3.388   3.181  19.539  0.00  0.00    +0.000 A 
ATOM      6  C   UNL     1       3.201   4.519  19.138  0.00  0.00    +0.000 A 
ENDROOT
BRANCH   1  10
ATOM      7  O   UNL     1       2.136   9.092  17.053  0.00  0.00    +0.000 OA
ATOM      8  C   UNL     1       1.935   8.681  18.192  0.00  0.00    +0.000 A 
ATOM      9  C   UNL     1       2.481   7.345  18.573  0.00  0.00    +0.000 A 
ATOM     10  C   UNL     1       2.286   6.840  19.805  0.00  0.00    +0.000 A 
ATOM     11  C   UNL     1       1.595   7.659  20.786  0.00  0.00    +0.000 A 
ATOM     12  C   UNL     1       1.057   8.837  20.446  0.00  0.00    +0.000 A 
ATOM     13  N   UNL     1       1.183   9.350  19.165  0.00  0.00    +0.000 N 
BRANCH  13  14
ATOM     14  C   UNL     1       0.485  10.619  18.827  0.00  0.00    +0.000 C 
ATOM     15  C   UNL     1      -0.780  10.822  19.677  0.00  0.00    +0.000 C 
ATOM     16  C   UNL     1      -1.510  12.116  19.324  0.00  0.00    +0.000 C 
ATOM     17  C   UNL     1      -0.589  13.328  19.419  0.00  0.00    +0.000 C 
ATOM     18  C   UNL     1       0.646  13.152  18.545  0.00  0.00    +0.000 C 
ATOM     19  C   UNL     1       1.414  11.867  18.883  0.00  0.00    +0.000 C 
BRANCH  19  20
ATOM     20  O   UNL     1       2.496  11.746  17.949  0.00  0.00    +0.000 OA
ATOM     21  H   UNL     1       2.368  12.403  17.247  0.00  0.00    +0.000 HD
ENDBRANCH  19  20
ENDBRANCH  13  14
ENDBRANCH   1  10
BRANCH   6  22
ATOM     22  O   UNL     1       3.654   5.002  17.925  0.00  0.00    +0.000 OA
BRANCH  22  23
ATOM     23  C   UNL     1       3.909   3.981  16.946  0.00  0.00    +0.000 C 
BRANCH  23  24
ATOM     24  C   UNL     1       5.148   4.188  16.103  0.00  0.00    +0.000 A 
ATOM     25  C   UNL     1       6.252   4.911  16.559  0.00  0.00    +0.000 A 
ATOM     26  C   UNL     1       7.312   5.195  15.696  0.00  0.00    +0.000 A 
ATOM     27  C   UNL     1       7.276   4.770  14.366  0.00  0.00    +0.000 A 
ATOM     28  C   UNL     1       6.180   4.045  13.882  0.00  0.00    +0.000 A 
ATOM     29  C   UNL     1       5.129   3.748  14.765  0.00  0.00    +0.000 A 
BRANCH  28  30
ATOM     30  C   UNL     1       6.098   3.615  12.437  0.00  0.00    +0.000 C 
ATOM     31  F   UNL     1       4.848   3.710  11.906  0.00  0.00    +0.000 F 
ATOM     32  F   UNL     1       6.907   4.347  11.623  0.00  0.00    +0.000 F 
ATOM     33  F   UNL     1       6.476   2.317  12.261  0.00  0.00    +0.000 F 
ENDBRANCH  28  30
ENDBRANCH  23  24
ENDBRANCH  22  23
ENDBRANCH   6  22
TORSDOF 7
ENDMDL
MODEL 2
REMARK VINA RESULT:      -9.7      1.431      1.762
REMARK  Name = 
REMARK  7 active torsions:
REMARK  status: ('A' for Active; 'I' for Inactive)
REMARK    1  A    between atoms: C_4  and  C_5
REMARK    2  A    between atoms: C_10  and  O_11
REMARK    3  A    between atoms: O_11  and  C_12
REMARK    4  A    between atoms: C_12  and  C_13
REMARK    5  A    between atoms: C_17  and  C_18
REMARK    6  A    between atoms: N_25  and  C_26
REMARK    7  A    between atoms: C_31  and  O_32
REMARK                            x       y       z     vdW  Elec       q    Type
REMARK                         _______ _______ _______ _____ _____    ______ ____
ROOT
ATOM      1  C   UNL     1       2.178   5.299  20.196  0.00  0.00    +0.000 A 
ATOM      2  C   UNL     1       0.958   4.607  20.359  0.00  0.00    +0.000 A 
ATOM      3  C   UNL     1       0.919   3.224  20.520  0.00  0.00    +0.000 A 
ATOM      4  C   UNL     1       2.106   2.511  20.557  0.00  0.00    +0.000 A 
ATOM      5  C   UNL     1       3.322   3.177  20.407  0.00  0.00    +0.000 A 
ATOM      6  C   UNL     1       3.380   4.567  20.179  0.00  0.00    +0.000 A 
ENDROOT
BRANCH   1  10
ATOM      7  O   UNL     1       2.013   9.146  17.414  0.00  0.00    +0.000 OA
ATOM      8  C   UNL     1       1.789   8.697  18.535  0.00  0.00    +0.000 A 
ATOM      9  C   UNL     1       2.258   7.317  18.853  0.00  0.00    +0.000 A 
ATOM     10  C   UNL     1       2.036   6.769  20.062  0.00  0.00    +0.000 A 
ATOM     11  C   UNL     1       1.395   7.581  21.082  0.00  0.00    +0.000 A 
ATOM     12  C   UNL     1       0.924   8.802  20.796  0.00  0.00    +0.000 A 
ATOM     13  N   UNL     1       1.078   9.363  19.538  0.00  0.00    +0.000 N 
BRANCH  13  14
ATOM     14  C   UNL     1       0.454  10.685  19.260  0.00  0.00    +0.000 C 
ATOM     15  C   UNL     1      -0.861  10.543  18.473  0.00  0.00    +0.000 C 
ATOM     16  C   UNL     1      -1.498  11.897  18.170  0.00  0.00    +0.000 C 
ATOM     17  C   UNL     1      -1.706  12.720  19.437  0.00  0.00    +0.000 C 
ATOM     18  C   UNL     1      -0.399  12.900  20.198  0.00  0.00    +0.000 C 
ATOM     19  C   UNL     1       0.264  11.558  20.534  0.00  0.00    +0.000 C 
BRANCH  19  20
ATOM     20  O   UNL     1       1.523  11.836  21.161  0.00  0.00    +0.000 OA
ATOM     21  H   UNL     1       1.844  11.018  21.575  0.00  0.00    +0.000 HD
ENDBRANCH  19  20
ENDBRANCH  13  14
ENDBRANCH   1  10
BRANCH   6  22
ATOM     22  O   UNL     1       4.565   5.230  19.924  0.00  0.00    +0.000 OA
BRANCH  22  23
ATOM     23  C   UNL     1       5.395   4.590  18.939  0.00  0.00    +0.000 C 
BRANCH  23  24
ATOM     24  C   UNL     1       5.435   5.269  17.588  0.00  0.00    +0.000 A 
ATOM     25  C   UNL     1       5.035   6.593  17.402  0.00  0.00    +0.000 A 
ATOM     26  C   UNL     1       4.956   7.131  16.116  0.00  0.00    +0.000 A 
ATOM     27  C   UNL     1       5.265   6.349  15.002  0.00  0.00    +0.000 A 
ATOM     28  C   UNL     1       5.667   5.017  15.158  0.00  0.00    +0.000 A 
ATOM     29  C   UNL     1       5.762   4.493  16.458  0.00  0.00    +0.000 A 
BRANCH  28  30
ATOM     30  C   UNL     1       5.961   4.138  13.966  0.00  0.00    +0.000 C 
ATOM     31  F   UNL     1       6.366   2.880  14.297  0.00  0.00    +0.000 F 
ATOM     32  F   UNL     1       4.883   3.981  13.150  0.00  0.00    +0.000 F 
ATOM     33  F   UNL     1       6.949   4.649  13.178  0.00  0.00    +0.000 F 
ENDBRANCH  28  30
ENDBRANCH  23  24
ENDBRANCH  22  23
ENDBRANCH   6  22
TORSDOF 7
ENDMDL
MODEL 3
REMARK VINA RESULT:      -9.7      1.224      1.549
REMARK  Name = 
REMARK  7 active torsions:
REMARK  status: ('A' for Active; 'I' for Inactive)
REMARK    1  A    between atoms: C_4  and  C_5
REMARK    2  A    between atoms: C_10  and  O_11
REMARK    3  A    between atoms: O_11  and  C_12
REMARK    4  A    between atoms: C_12  and  C_13
REMARK    5  A    between atoms: C_17  and  C_18
REMARK    6  A    between atoms: N_25  and  C_26
REMARK    7  A    between atoms: C_31  and  O_32
REMARK                            x       y       z     vdW  Elec       q    Type
REMARK                         _______ _______ _______ _____ _____    ______ ____
ROOT
ATOM      1  C   UNL     1       2.252   5.370  20.103  0.00  0.00    +0.000 A 
ATOM      2  C   UNL     1       1.028   4.681  20.249  0.00  0.00    +0.000 A 
ATOM      3  C   UNL     1       0.985   3.306  20.463  0.00  0.00    +0.000 A 
ATOM      4  C   UNL     1       2.170   2.598  20.573  0.00  0.00    +0.000 A 
ATOM      5  C   UNL     1       3.390   3.260  20.441  0.00  0.00    +0.000 A 
ATOM      6  C   UNL     1       3.455   4.640  20.160  0.00  0.00    +0.000 A 
ENDROOT
BRANCH   1  10
ATOM      7  O   UNL     1       1.997   9.081  17.150  0.00  0.00    +0.000 OA
ATOM      8  C   UNL     1       1.817   8.688  18.298  0.00  0.00    +0.000 A 
ATOM      9  C   UNL     1       2.290   7.320  18.663  0.00  0.00    +0.000 A 
ATOM     10  C   UNL     1       2.114   6.833  19.905  0.00  0.00    +0.000 A 
ATOM     11  C   UNL     1       1.520   7.697  20.910  0.00  0.00    +0.000 A 
ATOM     12  C   UNL     1       1.046   8.907  20.586  0.00  0.00    +0.000 A 
ATOM     13  N   UNL     1       1.151   9.407  19.297  0.00  0.00    +0.000 N 
BRANCH  13  14
ATOM     14  C   UNL     1       0.524  10.718  18.981  0.00  0.00    +0.000 C 
ATOM     15  C   UNL     1      -0.665  11.024  19.909  0.00  0.00    +0.000 C 
ATOM     16  C   UNL     1      -1.323  12.362  19.579  0.00  0.00    +0.000 C 
ATOM     17  C   UNL     1      -0.314  13.505  19.590  0.00  0.00    +0.000 C 
ATOM     18  C   UNL     1       0.844  13.228  18.641  0.00  0.00    +0.000 C 
ATOM     19  C   UNL     1       1.541  11.897  18.952  0.00  0.00    +0.000 C 
BRANCH  19  20
ATOM     20  O   UNL     1       2.547  11.684  17.952  0.00  0.00    +0.000 OA
ATOM     21  H   UNL     1       2.287  10.916  17.418  0.00  0.00    +0.000 HD
ENDBRANCH  19  20
ENDBRANCH  13  14
ENDBRANCH   1  10
BRANCH   6  22
ATOM     22  O   UNL     1       4.648   5.295  19.922  0.00  0.00    +0.000 OA
BRANCH  22  23
ATOM     23  C   UNL     1       5.481   4.658  18.939  0.00  0.00    +0.000 C 
BRANCH  23  24
ATOM     24  C   UNL     1       5.486   5.312  17.575  0.00  0.00    +0.000 A 
ATOM     25  C   UNL     1       5.063   6.627  17.372  0.00  0.00    +0.000 A 
ATOM     26  C   UNL     1       4.952   7.139  16.078  0.00  0.00    +0.000 A 
ATOM     27  C   UNL     1       5.250   6.339  14.972  0.00  0.00    +0.000 A 
ATOM     28  C   UNL     1       5.674   5.016  15.146  0.00  0.00    +0.000 A 
ATOM     29  C   UNL     1       5.801   4.518  16.454  0.00  0.00    +0.000 A 
BRANCH  28  30
ATOM     30  C   UNL     1       5.957   4.118  13.965  0.00  0.00    +0.000 C 
ATOM     31  F   UNL     1       6.980   4.552  13.178  0.00  0.00    +0.000 F 
ATOM     32  F   UNL     1       6.282   2.850  14.336  0.00  0.00    +0.000 F 
ATOM     33  F   UNL     1       4.880   3.996  13.138  0.00  0.00    +0.000 F 
ENDBRANCH  28  30
ENDBRANCH  23  24
ENDBRANCH  22  23
ENDBRANCH   6  22
TORSDOF 7
ENDMDL
MODEL 4
REMARK VINA RESULT:      -9.7      2.493      2.928
REMARK  Name = 
REMARK  7 active torsions:
REMARK  status: ('A' for Active; 'I' for Inactive)
REMARK    1  A    between atoms: C_4  and  C_5
REMARK    2  A    between atoms: C_10  and  O_11
REMARK    3  A    between atoms: O_11  and  C_12
REMARK    4  A    between atoms: C_12  and  C_13
REMARK    5  A    between atoms: C_17  and  C_18
REMARK    6  A    between atoms: N_25  and  C_26
REMARK    7  A    between atoms: C_31  and  O_32
REMARK                            x       y       z     vdW  Elec       q    Type
REMARK                         _______ _______ _______ _____ _____    ______ ____
ROOT
ATOM      1  C   UNL     1       2.243   5.256  20.006  0.00  0.00    +0.000 A 
ATOM      2  C   UNL     1       2.104   4.825  21.343  0.00  0.00    +0.000 A 
ATOM      3  C   UNL     1       2.214   3.482  21.693  0.00  0.00    +0.000 A 
ATOM      4  C   UNL     1       2.504   2.547  20.713  0.00  0.00    +0.000 A 
ATOM      5  C   UNL     1       2.653   2.952  19.387  0.00  0.00    +0.000 A 
ATOM      6  C   UNL     1       2.482   4.297  19.003  0.00  0.00    +0.000 A 
ENDROOT
BRANCH   1  10
ATOM      7  O   UNL     1       2.125   8.997  17.081  0.00  0.00    +0.000 OA
ATOM      8  C   UNL     1       1.897   8.593  18.217  0.00  0.00    +0.000 A 
ATOM      9  C   UNL     1       2.348   7.220  18.588  0.00  0.00    +0.000 A 
ATOM     10  C   UNL     1       2.120   6.722  19.817  0.00  0.00    +0.000 A 
ATOM     11  C   UNL     1       1.490   7.579  20.805  0.00  0.00    +0.000 A 
ATOM     12  C   UNL     1       1.035   8.795  20.474  0.00  0.00    +0.000 A 
ATOM     13  N   UNL     1       1.195   9.306  19.196  0.00  0.00    +0.000 N 
BRANCH  13  14
ATOM     14  C   UNL     1       0.587  10.624  18.867  0.00  0.00    +0.000 C 
ATOM     15  C   UNL     1      -0.620  10.939  19.768  0.00  0.00    +0.000 C 
ATOM     16  C   UNL     1      -1.258  12.283  19.425  0.00  0.00    +0.000 C 
ATOM     17  C   UNL     1      -0.239  13.417  19.461  0.00  0.00    +0.000 C 
ATOM     18  C   UNL     1       0.938  13.131  18.539  0.00  0.00    +0.000 C 
ATOM     19  C   UNL     1       1.615  11.793  18.864  0.00  0.00    +0.000 C 
BRANCH  19  20
ATOM     20  O   UNL     1       2.642  11.573  17.888  0.00  0.00    +0.000 OA
ATOM     21  H   UNL     1       3.081  10.731  18.092  0.00  0.00    +0.000 HD
ENDBRANCH  19  20
ENDBRANCH  13  14
ENDBRANCH   1  10
BRANCH   6  22
ATOM     22  O   UNL     1       2.523   4.704  17.683  0.00  0.00    +0.000 OA
BRANCH  22  23
ATOM     23  C   UNL     1       3.347   3.881  16.841  0.00  0.00    +0.000 C 
BRANCH  23  24
ATOM     24  C   UNL     1       4.734   4.419  16.568  0.00  0.00    +0.000 A 
ATOM     25  C   UNL     1       5.336   4.338  15.310  0.00  0.00    +0.000 A 
ATOM     26  C   UNL     1       6.668   4.720  15.142  0.00  0.00    +0.000 A 
ATOM     27  C   UNL     1       7.417   5.175  16.229  0.00  0.00    +0.000 A 
ATOM     28  C   UNL     1       6.840   5.264  17.501  0.00  0.00    +0.000 A 
ATOM     29  C   UNL     1       5.493   4.896  17.655  0.00  0.00    +0.000 A 
BRANCH  28  30
ATOM     30  C   UNL     1       7.643   5.709  18.700  0.00  0.00    +0.000 C 
ATOM     31  F   UNL     1       8.211   6.938  18.556  0.00  0.00    +0.000 F 
ATOM     32  F   UNL     1       6.898   5.772  19.838  0.00  0.00    +0.000 F 
ATOM     33  F   UNL     1       8.671   4.857  18.980  0.00  0.00    +0.000 F 
ENDBRANCH  28  30
ENDBRANCH  23  24
ENDBRANCH  22  23
ENDBRANCH   6  22
TORSDOF 7
ENDMDL
MODEL 5
REMARK VINA RESULT:      -9.3      1.534      1.993
REMARK  Name = 
REMARK  7 active torsions:
REMARK  status: ('A' for Active; 'I' for Inactive)
REMARK    1  A    between atoms: C_4  and  C_5
REMARK    2  A    between atoms: C_10  and  O_11
REMARK    3  A    between atoms: O_11  and  C_12
REMARK    4  A    between atoms: C_12  and  C_13
REMARK    5  A    between atoms: C_17  and  C_18
REMARK    6  A    between atoms: N_25  and  C_26
REMARK    7  A    between atoms: C_31  and  O_32
REMARK                            x       y       z     vdW  Elec       q    Type
REMARK                         _______ _______ _______ _____ _____    ______ ____
ROOT
ATOM      1  C   UNL     1       2.143   5.382  20.081  0.00  0.00    +0.000 A 
ATOM      2  C   UNL     1       0.919   4.680  20.121  0.00  0.00    +0.000 A 
ATOM      3  C   UNL     1       0.875   3.289  20.164  0.00  0.00    +0.000 A 
ATOM      4  C   UNL     1       2.060   2.574  20.204  0.00  0.00    +0.000 A 
ATOM      5  C   UNL     1       3.281   3.247  20.174  0.00  0.00    +0.000 A 
ATOM      6  C   UNL     1       3.346   4.652  20.066  0.00  0.00    +0.000 A 
ENDROOT
BRANCH   1  10
ATOM      7  O   UNL     1       1.884   9.425  17.602  0.00  0.00    +0.000 OA
ATOM      8  C   UNL     1       1.705   8.895  18.694  0.00  0.00    +0.000 A 
ATOM      9  C   UNL     1       2.179   7.494  18.890  0.00  0.00    +0.000 A 
ATOM     10  C   UNL     1       2.004   6.858  20.063  0.00  0.00    +0.000 A 
ATOM     11  C   UNL     1       1.411   7.594  21.166  0.00  0.00    +0.000 A 
ATOM     12  C   UNL     1       0.936   8.834  20.992  0.00  0.00    +0.000 A 
ATOM     13  N   UNL     1       1.041   9.487  19.774  0.00  0.00    +0.000 N 
BRANCH  13  14
ATOM     14  C   UNL     1       0.413  10.827  19.620  0.00  0.00    +0.000 C 
ATOM     15  C   UNL     1       1.466  11.943  19.499  0.00  0.00    +0.000 C 
ATOM     16  C   UNL     1       0.828  13.323  19.358  0.00  0.00    +0.000 C 
ATOM     17  C   UNL     1      -0.157  13.373  18.195  0.00  0.00    +0.000 C 
ATOM     18  C   UNL     1      -1.227  12.298  18.331  0.00  0.00    +0.000 C 
ATOM     19  C   UNL     1      -0.623  10.894  18.460  0.00  0.00    +0.000 C 
BRANCH  19  20
ATOM     20  O   UNL     1      -1.699   9.972  18.678  0.00  0.00    +0.000 OA
ATOM     21  H   UNL     1      -2.480  10.297  18.201  0.00  0.00    +0.000 HD
ENDBRANCH  19  20
ENDBRANCH  13  14
ENDBRANCH   1  10
BRANCH   6  22
ATOM     22  O   UNL     1       4.542   5.332  19.930  0.00  0.00    +0.000 OA
BRANCH  22  23
ATOM     23  C   UNL     1       5.446   4.742  18.981  0.00  0.00    +0.000 C 
BRANCH  23  24
ATOM     24  C   UNL     1       5.455   5.384  17.611  0.00  0.00    +0.000 A 
ATOM     25  C   UNL     1       5.022   6.694  17.394  0.00  0.00    +0.000 A 
ATOM     26  C   UNL     1       4.915   7.193  16.095  0.00  0.00    +0.000 A 
ATOM     27  C   UNL     1       5.228   6.388  14.998  0.00  0.00    +0.000 A 
ATOM     28  C   UNL     1       5.663   5.070  15.187  0.00  0.00    +0.000 A 
ATOM     29  C   UNL     1       5.785   4.584  16.499  0.00  0.00    +0.000 A 
BRANCH  28  30
ATOM     30  C   UNL     1       5.963   4.165  14.016  0.00  0.00    +0.000 C 
ATOM     31  F   UNL     1       6.348   2.910  14.376  0.00  0.00    +0.000 F 
ATOM     32  F   UNL     1       4.894   4.005  13.188  0.00  0.00    +0.000 F 
ATOM     33  F   UNL     1       6.968   4.650  13.232  0.00  0.00    +0.000 F 
ENDBRANCH  28  30
ENDBRANCH  23  24
ENDBRANCH  22  23
ENDBRANCH   6  22
TORSDOF 7
ENDMDL
MODEL 6
REMARK VINA RESULT:      -9.2      3.669      5.506
REMARK  Name = 
REMARK  7 active torsions:
REMARK  status: ('A' for Active; 'I' for Inactive)
REMARK    1  A    between atoms: C_4  and  C_5
REMARK    2  A    between atoms: C_10  and  O_11
REMARK    3  A    between atoms: O_11  and  C_12
REMARK    4  A    between atoms: C_12  and  C_13
REMARK    5  A    between atoms: C_17  and  C_18
REMARK    6  A    between atoms: N_25  and  C_26
REMARK    7  A    between atoms: C_31  and  O_32
REMARK                            x       y       z     vdW  Elec       q    Type
REMARK                         _______ _______ _______ _____ _____    ______ ____
ROOT
ATOM      1  C   UNL     1       5.255   5.756  18.031  0.00  0.00    +0.000 A 
ATOM      2  C   UNL     1       6.314   6.246  18.826  0.00  0.00    +0.000 A 
ATOM      3  C   UNL     1       7.608   5.746  18.707  0.00  0.00    +0.000 A 
ATOM      4  C   UNL     1       7.875   4.770  17.762  0.00  0.00    +0.000 A 
ATOM      5  C   UNL     1       6.845   4.278  16.961  0.00  0.00    +0.000 A 
ATOM      6  C   UNL     1       5.516   4.724  17.110  0.00  0.00    +0.000 A 
ENDROOT
BRANCH   1  10
ATOM      7  O   UNL     1       1.546   6.543  20.893  0.00  0.00    +0.000 OA
ATOM      8  C   UNL     1       2.143   6.911  19.885  0.00  0.00    +0.000 A 
ATOM      9  C   UNL     1       3.255   6.061  19.368  0.00  0.00    +0.000 A 
ATOM     10  C   UNL     1       3.949   6.417  18.272  0.00  0.00    +0.000 A 
ATOM     11  C   UNL     1       3.543   7.612  17.553  0.00  0.00    +0.000 A 
ATOM     12  C   UNL     1       2.580   8.411  18.032  0.00  0.00    +0.000 A 
ATOM     13  N   UNL     1       1.895   8.104  19.197  0.00  0.00    +0.000 N 
BRANCH  13  14
ATOM     14  C   UNL     1       0.901   9.077  19.724  0.00  0.00    +0.000 C 
ATOM     15  C   UNL     1       1.316   9.635  21.097  0.00  0.00    +0.000 C 
ATOM     16  C   UNL     1       0.291  10.622  21.650  0.00  0.00    +0.000 C 
ATOM     17  C   UNL     1       0.006  11.751  20.666  0.00  0.00    +0.000 C 
ATOM     18  C   UNL     1      -0.447  11.207  19.318  0.00  0.00    +0.000 C 
ATOM     19  C   UNL     1       0.567  10.221  18.723  0.00  0.00    +0.000 C 
BRANCH  19  20
ATOM     20  O   UNL     1       0.009   9.697  17.510  0.00  0.00    +0.000 OA
ATOM     21  H   UNL     1      -0.957   9.684  17.600  0.00  0.00    +0.000 HD
ENDBRANCH  19  20
ENDBRANCH  13  14
ENDBRANCH   1  10
BRANCH   6  22
ATOM     22  O   UNL     1       4.464   4.178  16.399  0.00  0.00    +0.000 OA
BRANCH  22  23
ATOM     23  C   UNL     1       4.027   2.899  16.891  0.00  0.00    +0.000 C 
BRANCH  23  24
ATOM     24  C   UNL     1       2.853   2.939  17.844  0.00  0.00    +0.000 A 
ATOM     25  C   UNL     1       1.578   3.345  17.446  0.00  0.00    +0.000 A 
ATOM     26  C   UNL     1       0.562   3.501  18.390  0.00  0.00    +0.000 A 
ATOM     27  C   UNL     1       0.812   3.266  19.744  0.00  0.00    +0.000 A 
ATOM     28  C   UNL     1       2.082   2.860  20.172  0.00  0.00    +0.000 A 
ATOM     29  C   UNL     1       3.091   2.687  19.209  0.00  0.00    +0.000 A 
BRANCH  28  30
ATOM     30  C   UNL     1       2.388   2.644  21.634  0.00  0.00    +0.000 C 
ATOM     31  F   UNL     1       3.569   2.006  21.860  0.00  0.00    +0.000 F 
ATOM     32  F   UNL     1       2.453   3.810  22.335  0.00  0.00    +0.000 F 
ATOM     33  F   UNL     1       1.436   1.892  22.257  0.00  0.00    +0.000 F 
ENDBRANCH  28  30
ENDBRANCH  23  24
ENDBRANCH  22  23
ENDBRANCH   6  22
TORSDOF 7
ENDMDL
MODEL 7
REMARK VINA RESULT:      -9.1      1.525      1.965
REMARK  Name = 
REMARK  7 active torsions:
REMARK  status: ('A' for Active; 'I' for Inactive)
REMARK    1  A    between atoms: C_4  and  C_5
REMARK    2  A    between atoms: C_10  and  O_11
REMARK    3  A    between atoms: O_11  and  C_12
REMARK    4  A    between atoms: C_12  and  C_13
REMARK    5  A    between atoms: C_17  and  C_18
REMARK    6  A    between atoms: N_25  and  C_26
REMARK    7  A    between atoms: C_31  and  O_32
REMARK                            x       y       z     vdW  Elec       q    Type
REMARK                         _______ _______ _______ _____ _____    ______ ____
ROOT
ATOM      1  C   UNL     1       2.264   5.166  19.808  0.00  0.00    +0.000 A 
ATOM      2  C   UNL     1       1.051   4.462  19.648  0.00  0.00    +0.000 A 
ATOM      3  C   UNL     1       1.005   3.071  19.670  0.00  0.00    +0.000 A 
ATOM      4  C   UNL     1       2.171   2.356  19.890  0.00  0.00    +0.000 A 
ATOM      5  C   UNL     1       3.379   3.031  20.059  0.00  0.00    +0.000 A 
ATOM      6  C   UNL     1       3.457   4.437  19.976  0.00  0.00    +0.000 A 
ENDROOT
BRANCH   1  10
ATOM      7  O   UNL     1       2.218   9.216  17.328  0.00  0.00    +0.000 OA
ATOM      8  C   UNL     1       1.945   8.682  18.399  0.00  0.00    +0.000 A 
ATOM      9  C   UNL     1       2.402   7.281  18.631  0.00  0.00    +0.000 A 
ATOM     10  C   UNL     1       2.126   6.642  19.782  0.00  0.00    +0.000 A 
ATOM     11  C   UNL     1       1.439   7.373  20.832  0.00  0.00    +0.000 A 
ATOM     12  C   UNL     1       0.980   8.614  20.621  0.00  0.00    +0.000 A 
ATOM     13  N   UNL     1       1.189   9.270  19.419  0.00  0.00    +0.000 N 
BRANCH  13  14
ATOM     14  C   UNL     1       0.576  10.611  19.216  0.00  0.00    +0.000 C 
ATOM     15  C   UNL     1      -0.687  10.536  18.340  0.00  0.00    +0.000 C 
ATOM     16  C   UNL     1      -1.313  11.911  18.114  0.00  0.00    +0.000 C 
ATOM     17  C   UNL     1      -1.602  12.623  19.432  0.00  0.00    +0.000 C 
ATOM     18  C   UNL     1      -0.347  12.738  20.285  0.00  0.00    +0.000 C 
ATOM     19  C   UNL     1       0.302  11.372  20.546  0.00  0.00    +0.000 C 
BRANCH  19  20
ATOM     20  O   UNL     1       1.519  11.595  21.270  0.00  0.00    +0.000 OA
ATOM     21  H   UNL     1       2.260  11.546  20.645  0.00  0.00    +0.000 HD
ENDBRANCH  19  20
ENDBRANCH  13  14
ENDBRANCH   1  10
BRANCH   6  22
ATOM     22  O   UNL     1       4.657   5.119  20.037  0.00  0.00    +0.000 OA
BRANCH  22  23
ATOM     23  C   UNL     1       5.764   4.413  19.451  0.00  0.00    +0.000 C 
BRANCH  23  24
ATOM     24  C   UNL     1       6.398   5.085  18.254  0.00  0.00    +0.000 A 
ATOM     25  C   UNL     1       7.062   6.310  18.346  0.00  0.00    +0.000 A 
ATOM     26  C   UNL     1       7.507   6.958  17.192  0.00  0.00    +0.000 A 
ATOM     27  C   UNL     1       7.283   6.396  15.934  0.00  0.00    +0.000 A 
ATOM     28  C   UNL     1       6.618   5.170  15.812  0.00  0.00    +0.000 A 
ATOM     29  C   UNL     1       6.193   4.518  16.981  0.00  0.00    +0.000 A 
BRANCH  28  30
ATOM     30  C   UNL     1       6.325   4.565  14.460  0.00  0.00    +0.000 C 
ATOM     31  F   UNL     1       7.225   4.907  13.497  0.00  0.00    +0.000 F 
ATOM     32  F   UNL     1       6.304   3.204  14.486  0.00  0.00    +0.000 F 
ATOM     33  F   UNL     1       5.107   4.943  13.977  0.00  0.00    +0.000 F 
ENDBRANCH  28  30
ENDBRANCH  23  24
ENDBRANCH  22  23
ENDBRANCH   6  22
TORSDOF 7
ENDMDL
MODEL 8
REMARK VINA RESULT:      -9.1      0.896      1.435
REMARK  Name = 
REMARK  7 active torsions:
REMARK  status: ('A' for Active; 'I' for Inactive)
REMARK    1  A    between atoms: C_4  and  C_5
REMARK    2  A    between atoms: C_10  and  O_11
REMARK    3  A    between atoms: O_11  and  C_12
REMARK    4  A    between atoms: C_12  and  C_13
REMARK    5  A    between atoms: C_17  and  C_18
REMARK    6  A    between atoms: N_25  and  C_26
REMARK    7  A    between atoms: C_31  and  O_32
REMARK                            x       y       z     vdW  Elec       q    Type
REMARK                         _______ _______ _______ _____ _____    ______ ____
ROOT
ATOM      1  C   UNL     1       2.283   5.356  19.932  0.00  0.00    +0.000 A 
ATOM      2  C   UNL     1       1.473   4.711  20.892  0.00  0.00    +0.000 A 
ATOM      3  C   UNL     1       1.507   3.331  21.068  0.00  0.00    +0.000 A 
ATOM      4  C   UNL     1       2.382   2.571  20.309  0.00  0.00    +0.000 A 
ATOM      5  C   UNL     1       3.197   3.188  19.361  0.00  0.00    +0.000 A 
ATOM      6  C   UNL     1       3.132   4.576  19.123  0.00  0.00    +0.000 A 
ENDROOT
BRANCH   1  10
ATOM      7  O   UNL     1       1.871   9.355  17.403  0.00  0.00    +0.000 OA
ATOM      8  C   UNL     1       1.755   8.843  18.512  0.00  0.00    +0.000 A 
ATOM      9  C   UNL     1       2.245   7.447  18.705  0.00  0.00    +0.000 A 
ATOM     10  C   UNL     1       2.138   6.831  19.897  0.00  0.00    +0.000 A 
ATOM     11  C   UNL     1       1.604   7.584  21.018  0.00  0.00    +0.000 A 
ATOM     12  C   UNL     1       1.114   8.819  20.850  0.00  0.00    +0.000 A 
ATOM     13  N   UNL     1       1.149   9.451  19.617  0.00  0.00    +0.000 N 
BRANCH  13  14
ATOM     14  C   UNL     1       0.508  10.787  19.476  0.00  0.00    +0.000 C 
ATOM     15  C   UNL     1       1.547  11.902  19.269  0.00  0.00    +0.000 C 
ATOM     16  C   UNL     1       0.897  13.278  19.140  0.00  0.00    +0.000 C 
ATOM     17  C   UNL     1      -0.157  13.302  18.038  0.00  0.00    +0.000 C 
ATOM     18  C   UNL     1      -1.213  12.228  18.260  0.00  0.00    +0.000 C 
ATOM     19  C   UNL     1      -0.597  10.828  18.380  0.00  0.00    +0.000 C 
BRANCH  19  20
ATOM     20  O   UNL     1      -1.654   9.907  18.680  0.00  0.00    +0.000 OA
ATOM     21  H   UNL     1      -2.427  10.145  18.142  0.00  0.00    +0.000 HD
ENDBRANCH  19  20
ENDBRANCH  13  14
ENDBRANCH   1  10
BRANCH   6  22
ATOM     22  O   UNL     1       3.853   5.193  18.119  0.00  0.00    +0.000 OA
BRANCH  22  23
ATOM     23  C   UNL     1       3.794   4.515  16.853  0.00  0.00    +0.000 C 
BRANCH  23  24
ATOM     24  C   UNL     1       5.072   4.542  16.044  0.00  0.00    +0.000 A 
ATOM     25  C   UNL     1       6.223   5.198  16.483  0.00  0.00    +0.000 A 
ATOM     26  C   UNL     1       7.331   5.315  15.642  0.00  0.00    +0.000 A 
ATOM     27  C   UNL     1       7.296   4.790  14.348  0.00  0.00    +0.000 A 
ATOM     28  C   UNL     1       6.153   4.129  13.881  0.00  0.00    +0.000 A 
ATOM     29  C   UNL     1       5.052   4.000  14.744  0.00  0.00    +0.000 A 
BRANCH  28  30
ATOM     30  C   UNL     1       6.075   3.593  12.472  0.00  0.00    +0.000 C 
ATOM     31  F   UNL     1       6.994   4.136  11.626  0.00  0.00    +0.000 F 
ATOM     32  F   UNL     1       6.262   2.246  12.411  0.00  0.00    +0.000 F 
ATOM     33  F   UNL     1       4.861   3.823  11.897  0.00  0.00    +0.000 F 
ENDBRANCH  28  30
ENDBRANCH  23  24
ENDBRANCH  22  23
ENDBRANCH   6  22
TORSDOF 7
ENDMDL
MODEL 9
REMARK VINA RESULT:      -9.0      3.744      5.749
REMARK  Name = 
REMARK  7 active torsions:
REMARK  status: ('A' for Active; 'I' for Inactive)
REMARK    1  A    between atoms: C_4  and  C_5
REMARK    2  A    between atoms: C_10  and  O_11
REMARK    3  A    between atoms: O_11  and  C_12
REMARK    4  A    between atoms: C_12  and  C_13
REMARK    5  A    between atoms: C_17  and  C_18
REMARK    6  A    between atoms: N_25  and  C_26
REMARK    7  A    between atoms: C_31  and  O_32
REMARK                            x       y       z     vdW  Elec       q    Type
REMARK                         _______ _______ _______ _____ _____    ______ ____
ROOT
ATOM      1  C   UNL     1       4.998   6.510  17.433  0.00  0.00    +0.000 A 
ATOM      2  C   UNL     1       6.087   7.339  17.781  0.00  0.00    +0.000 A 
ATOM      3  C   UNL     1       7.383   7.059  17.357  0.00  0.00    +0.000 A 
ATOM      4  C   UNL     1       7.609   5.961  16.544  0.00  0.00    +0.000 A 
ATOM      5  C   UNL     1       6.547   5.133  16.181  0.00  0.00    +0.000 A 
ATOM      6  C   UNL     1       5.238   5.363  16.653  0.00  0.00    +0.000 A 
ENDROOT
BRANCH   1  10
ATOM      7  O   UNL     1       1.639   6.320  20.786  0.00  0.00    +0.000 OA
ATOM      8  C   UNL     1       2.070   6.941  19.819  0.00  0.00    +0.000 A 
ATOM      9  C   UNL     1       3.170   6.332  19.016  0.00  0.00    +0.000 A 
ATOM     10  C   UNL     1       3.686   6.970  17.949  0.00  0.00    +0.000 A 
ATOM     11  C   UNL     1       3.096   8.235  17.547  0.00  0.00    +0.000 A 
ATOM     12  C   UNL     1       2.143   8.817  18.286  0.00  0.00    +0.000 A 
ATOM     13  N   UNL     1       1.641   8.215  19.429  0.00  0.00    +0.000 N 
BRANCH  13  14
ATOM     14  C   UNL     1       0.649   8.954  20.254  0.00  0.00    +0.000 C 
ATOM     15  C   UNL     1       1.156   9.188  21.688  0.00  0.00    +0.000 C 
ATOM     16  C   UNL     1       0.135   9.933  22.545  0.00  0.00    +0.000 C 
ATOM     17  C   UNL     1      -0.297  11.244  21.898  0.00  0.00    +0.000 C 
ATOM     18  C   UNL     1      -0.840  11.014  20.494  0.00  0.00    +0.000 C 
ATOM     19  C   UNL     1       0.166  10.281  19.598  0.00  0.00    +0.000 C 
BRANCH  19  20
ATOM     20  O   UNL     1      -0.471  10.029  18.338  0.00  0.00    +0.000 OA
ATOM     21  H   UNL     1      -0.006  10.540  17.654  0.00  0.00    +0.000 HD
ENDBRANCH  19  20
ENDBRANCH  13  14
ENDBRANCH   1  10
BRANCH   6  22
ATOM     22  O   UNL     1       4.192   4.499  16.392  0.00  0.00    +0.000 OA
BRANCH  22  23
ATOM     23  C   UNL     1       4.184   3.321  17.216  0.00  0.00    +0.000 C 
BRANCH  23  24
ATOM     24  C   UNL     1       2.941   3.128  18.056  0.00  0.00    +0.000 A 
ATOM     25  C   UNL     1       1.654   3.293  17.541  0.00  0.00    +0.000 A 
ATOM     26  C   UNL     1       0.545   3.243  18.387  0.00  0.00    +0.000 A 
ATOM     27  C   UNL     1       0.710   3.040  19.759  0.00  0.00    +0.000 A 
ATOM     28  C   UNL     1       1.989   2.874  20.303  0.00  0.00    +0.000 A 
ATOM     29  C   UNL     1       3.096   2.906  19.439  0.00  0.00    +0.000 A 
BRANCH  28  30
ATOM     30  C   UNL     1       2.195   2.699  21.789  0.00  0.00    +0.000 C 
ATOM     31  F   UNL     1       1.112   2.190  22.438  0.00  0.00    +0.000 F 
ATOM     32  F   UNL     1       3.232   1.865  22.081  0.00  0.00    +0.000 F 
ATOM     33  F   UNL     1       2.482   3.876  22.414  0.00  0.00    +0.000 F 
ENDBRANCH  28  30
ENDBRANCH  23  24
ENDBRANCH  22  23
ENDBRANCH   6  22
TORSDOF 7
ENDMDL
