MODEL 1
REMARK VINA RESULT:      -8.1      0.000      0.000
REMARK  Name = 
REMARK  3 active torsions:
REMARK  status: ('A' for Active; 'I' for Inactive)
REMARK    1  A    between atoms: N_1  and  C_2
REMARK    2  A    between atoms: C_5  and  N_6
REMARK    3  A    between atoms: C_12  and  C_13
REMARK                            x       y       z     vdW  Elec       q    Type
REMARK                         _______ _______ _______ _____ _____    ______ ____
ROOT
ATOM      1  N   UNL     1       1.121   8.520  20.464  0.00  0.00    +0.000 N 
ATOM      2  N   UNL     1       1.365   7.266  21.013  0.00  0.00    +0.000 NA
ATOM      3  C   UNL     1       2.094   6.684  20.106  0.00  0.00    +0.000 A 
ATOM      4  C   UNL     1       2.654   5.276  20.145  0.00  0.00    +0.000 A 
ATOM      5  O   UNL     1       2.425   4.515  21.070  0.00  0.00    +0.000 OA
ATOM      6  N   UNL     1       3.434   4.939  19.053  0.00  0.00    +0.000 N 
ATOM      7  C   UNL     1       3.692   5.786  17.998  0.00  0.00    +0.000 A 
ATOM      8  C   UNL     1       3.162   7.018  17.969  0.00  0.00    +0.000 A 
ATOM      9  N   UNL     1       2.376   7.427  19.009  0.00  0.00    +0.000 N 
ATOM     10  C   UNL     1       1.749   8.634  19.198  0.00  0.00    +0.000 A 
ATOM     11  O   UNL     1       1.772   9.576  18.418  0.00  0.00    +0.000 OA
ATOM     12  H   UNL     1       3.828   4.004  19.052  0.00  0.00    +0.000 HD
ENDROOT
BRANCH   1  16
ATOM     13  C   UNL     1      -1.245  11.372  22.533  0.00  0.00    +0.000 A 
ATOM     14  C   UNL     1      -1.027  11.488  21.162  0.00  0.00    +0.000 A 
ATOM     15  C   UNL     1      -0.228  10.562  20.481  0.00  0.00    +0.000 A 
ATOM     16  C   UNL     1       0.328   9.464  21.147  0.00  0.00    +0.000 A 
ATOM     17  C   UNL     1       0.057   9.316  22.512  0.00  0.00    +0.000 A 
ATOM     18  C   UNL     1      -0.735  10.254  23.192  0.00  0.00    +0.000 A 
BRANCH  13  19
ATOM     19  N   UNL     1      -2.147  12.227  23.173  0.00  0.00    +0.000 N 
ATOM     20  H   UNL     1      -2.978  12.430  22.626  0.00  0.00    +0.000 HD
ATOM     21  H   UNL     1      -1.719  13.066  23.550  0.00  0.00    +0.000 HD
ENDBRANCH  13  19
ENDBRANCH   1  16
BRANCH   7  22
ATOM     22  C   UNL     1       4.577   5.304  16.937  0.00  0.00    +0.000 A 
ATOM     23  C   UNL     1       4.845   3.933  16.824  0.00  0.00    +0.000 A 
ATOM     24  C   UNL     1       5.640   3.456  15.782  0.00  0.00    +0.000 A 
ATOM     25  C   UNL     1       6.178   4.346  14.854  0.00  0.00    +0.000 A 
ATOM     26  C   UNL     1       5.933   5.714  14.973  0.00  0.00    +0.000 A 
ATOM     27  C   UNL     1       5.135   6.194  16.013  0.00  0.00    +0.000 A 
ENDBRANCH   7  22
TORSDOF 3
ENDMDL
MODEL 2
REMARK VINA RESULT:      -8.1      0.142      1.395
REMARK  Name = 
REMARK  3 active torsions:
REMARK  status: ('A' for Active; 'I' for Inactive)
REMARK    1  A    between atoms: N_1  and  C_2
REMARK    2  A    between atoms: C_5  and  N_6
REMARK    3  A    between atoms: C_12  and  C_13
REMARK                            x       y       z     vdW  Elec       q    Type
REMARK                         _______ _______ _______ _____ _____    ______ ____
ROOT
ATOM      1  N   UNL     1       1.199   8.534  20.405  0.00  0.00    +0.000 N 
ATOM      2  N   UNL     1       1.437   7.279  20.954  0.00  0.00    +0.000 NA
ATOM      3  C   UNL     1       2.148   6.688  20.039  0.00  0.00    +0.000 A 
ATOM      4  C   UNL     1       2.695   5.274  20.075  0.00  0.00    +0.000 A 
ATOM      5  O   UNL     1       2.469   4.517  21.004  0.00  0.00    +0.000 OA
ATOM      6  N   UNL     1       3.459   4.927  18.974  0.00  0.00    +0.000 N 
ATOM      7  C   UNL     1       3.713   5.770  17.915  0.00  0.00    +0.000 A 
ATOM      8  C   UNL     1       3.194   7.007  17.890  0.00  0.00    +0.000 A 
ATOM      9  N   UNL     1       2.425   7.425  18.938  0.00  0.00    +0.000 N 
ATOM     10  C   UNL     1       1.813   8.640  19.132  0.00  0.00    +0.000 A 
ATOM     11  O   UNL     1       1.836   9.580  18.350  0.00  0.00    +0.000 OA
ATOM     12  H   UNL     1       3.843   3.988  18.971  0.00  0.00    +0.000 HD
ENDROOT
BRANCH   1  16
ATOM     13  C   UNL     1      -1.157  11.396  22.473  0.00  0.00    +0.000 A 
ATOM     14  C   UNL     1      -0.678  10.263  23.126  0.00  0.00    +0.000 A 
ATOM     15  C   UNL     1       0.080   9.306  22.441  0.00  0.00    +0.000 A 
ATOM     16  C   UNL     1       0.424   9.487  21.096  0.00  0.00    +0.000 A 
ATOM     17  C   UNL     1      -0.007  10.657  20.459  0.00  0.00    +0.000 A 
ATOM     18  C   UNL     1      -0.776  11.608  21.148  0.00  0.00    +0.000 A 
BRANCH  13  19
ATOM     19  N   UNL     1      -1.799  12.404  23.199  0.00  0.00    +0.000 N 
ATOM     20  H   UNL     1      -1.391  13.325  23.069  0.00  0.00    +0.000 HD
ATOM     21  H   UNL     1      -1.936  12.178  24.178  0.00  0.00    +0.000 HD
ENDBRANCH  13  19
ENDBRANCH   1  16
BRANCH   7  22
ATOM     22  C   UNL     1       4.581   5.277  16.845  0.00  0.00    +0.000 A 
ATOM     23  C   UNL     1       5.178   6.184  15.959  0.00  0.00    +0.000 A 
ATOM     24  C   UNL     1       6.053   5.731  14.973  0.00  0.00    +0.000 A 
ATOM     25  C   UNL     1       6.329   4.369  14.860  0.00  0.00    +0.000 A 
ATOM     26  C   UNL     1       5.722   3.459  15.725  0.00  0.00    +0.000 A 
ATOM     27  C   UNL     1       4.848   3.910  16.716  0.00  0.00    +0.000 A 
ENDBRANCH   7  22
TORSDOF 3
ENDMDL
MODEL 3
REMARK VINA RESULT:      -7.8      1.112      1.443
REMARK  Name = 
REMARK  3 active torsions:
REMARK  status: ('A' for Active; 'I' for Inactive)
REMARK    1  A    between atoms: N_1  and  C_2
REMARK    2  A    between atoms: C_5  and  N_6
REMARK    3  A    between atoms: C_12  and  C_13
REMARK                            x       y       z     vdW  Elec       q    Type
REMARK                         _______ _______ _______ _____ _____    ______ ____
ROOT
ATOM      1  N   UNL     1       1.169   9.077  19.573  0.00  0.00    +0.000 N 
ATOM      2  N   UNL     1       1.346   7.914  20.312  0.00  0.00    +0.000 NA
ATOM      3  C   UNL     1       2.209   7.244  19.606  0.00  0.00    +0.000 A 
ATOM      4  C   UNL     1       2.777   5.872  19.912  0.00  0.00    +0.000 A 
ATOM      5  O   UNL     1       2.423   5.229  20.887  0.00  0.00    +0.000 OA
ATOM      6  N   UNL     1       3.715   5.423  19.000  0.00  0.00    +0.000 N 
ATOM      7  C   UNL     1       4.116   6.137  17.891  0.00  0.00    +0.000 A 
ATOM      8  C   UNL     1       3.579   7.336  17.623  0.00  0.00    +0.000 A 
ATOM      9  N   UNL     1       2.641   7.849  18.474  0.00  0.00    +0.000 N 
ATOM     10  C   UNL     1       1.977   9.049  18.409  0.00  0.00    +0.000 A 
ATOM     11  O   UNL     1       2.103   9.884  17.523  0.00  0.00    +0.000 OA
ATOM     12  H   UNL     1       4.118   4.510  19.180  0.00  0.00    +0.000 HD
ENDROOT
BRANCH   1  16
ATOM     13  C   UNL     1      -1.518  12.098  20.865  0.00  0.00    +0.000 A 
ATOM     14  C   UNL     1      -1.636  11.536  19.597  0.00  0.00    +0.000 A 
ATOM     15  C   UNL     1      -0.738  10.556  19.159  0.00  0.00    +0.000 A 
ATOM     16  C   UNL     1       0.270  10.075  20.003  0.00  0.00    +0.000 A 
ATOM     17  C   UNL     1       0.348  10.598  21.299  0.00  0.00    +0.000 A 
ATOM     18  C   UNL     1      -0.548  11.588  21.728  0.00  0.00    +0.000 A 
BRANCH  13  19
ATOM     19  N   UNL     1      -2.497  12.979  21.335  0.00  0.00    +0.000 N 
ATOM     20  H   UNL     1      -2.216  13.502  22.159  0.00  0.00    +0.000 HD
ATOM     21  H   UNL     1      -3.412  12.553  21.443  0.00  0.00    +0.000 HD
ENDBRANCH  13  19
ENDBRANCH   1  16
BRANCH   7  22
ATOM     22  C   UNL     1       5.156   5.552  17.044  0.00  0.00    +0.000 A 
ATOM     23  C   UNL     1       5.029   5.604  15.650  0.00  0.00    +0.000 A 
ATOM     24  C   UNL     1       6.041   5.102  14.832  0.00  0.00    +0.000 A 
ATOM     25  C   UNL     1       7.181   4.539  15.403  0.00  0.00    +0.000 A 
ATOM     26  C   UNL     1       7.305   4.465  16.790  0.00  0.00    +0.000 A 
ATOM     27  C   UNL     1       6.295   4.969  17.612  0.00  0.00    +0.000 A 
ENDBRANCH   7  22
TORSDOF 3
ENDMDL
MODEL 4
REMARK VINA RESULT:      -7.8      0.930      1.003
REMARK  Name = 
REMARK  3 active torsions:
REMARK  status: ('A' for Active; 'I' for Inactive)
REMARK    1  A    between atoms: N_1  and  C_2
REMARK    2  A    between atoms: C_5  and  N_6
REMARK    3  A    between atoms: C_12  and  C_13
REMARK                            x       y       z     vdW  Elec       q    Type
REMARK                         _______ _______ _______ _____ _____    ______ ____
ROOT
ATOM      1  N   UNL     1       1.641   8.091  20.074  0.00  0.00    +0.000 N 
ATOM      2  N   UNL     1       1.875   6.801  20.535  0.00  0.00    +0.000 NA
ATOM      3  C   UNL     1       2.626   6.287  19.606  0.00  0.00    +0.000 A 
ATOM      4  C   UNL     1       3.189   4.880  19.555  0.00  0.00    +0.000 A 
ATOM      5  O   UNL     1       2.939   4.053  20.416  0.00  0.00    +0.000 OA
ATOM      6  N   UNL     1       3.995   4.624  18.461  0.00  0.00    +0.000 N 
ATOM      7  C   UNL     1       4.276   5.547  17.477  0.00  0.00    +0.000 A 
ATOM      8  C   UNL     1       3.744   6.777  17.526  0.00  0.00    +0.000 A 
ATOM      9  N   UNL     1       2.932   7.108  18.574  0.00  0.00    +0.000 N 
ATOM     10  C   UNL     1       2.298   8.298  18.836  0.00  0.00    +0.000 A 
ATOM     11  O   UNL     1       2.338   9.295  18.128  0.00  0.00    +0.000 OA
ATOM     12  H   UNL     1       4.391   3.692  18.401  0.00  0.00    +0.000 HD
ENDROOT
BRANCH   1  16
ATOM     13  C   UNL     1      -0.780  10.787  22.285  0.00  0.00    +0.000 A 
ATOM     14  C   UNL     1      -0.763  10.823  20.892  0.00  0.00    +0.000 A 
ATOM     15  C   UNL     1       0.051   9.951  20.161  0.00  0.00    +0.000 A 
ATOM     16  C   UNL     1       0.830   8.982  20.806  0.00  0.00    +0.000 A 
ATOM     17  C   UNL     1       0.764   8.907  22.202  0.00  0.00    +0.000 A 
ATOM     18  C   UNL     1      -0.046   9.792  22.930  0.00  0.00    +0.000 A 
BRANCH  13  19
ATOM     19  N   UNL     1      -1.693  11.573  22.995  0.00  0.00    +0.000 N 
ATOM     20  H   UNL     1      -1.319  12.470  23.288  0.00  0.00    +0.000 HD
ATOM     21  H   UNL     1      -2.153  11.081  23.753  0.00  0.00    +0.000 HD
ENDBRANCH  13  19
ENDBRANCH   1  16
BRANCH   7  22
ATOM     22  C   UNL     1       5.188   5.144  16.405  0.00  0.00    +0.000 A 
ATOM     23  C   UNL     1       4.693   4.441  15.299  0.00  0.00    +0.000 A 
ATOM     24  C   UNL     1       5.541   4.104  14.244  0.00  0.00    +0.000 A 
ATOM     25  C   UNL     1       6.889   4.459  14.294  0.00  0.00    +0.000 A 
ATOM     26  C   UNL     1       7.391   5.141  15.402  0.00  0.00    +0.000 A 
ATOM     27  C   UNL     1       6.544   5.483  16.457  0.00  0.00    +0.000 A 
ENDBRANCH   7  22
TORSDOF 3
ENDMDL
MODEL 5
REMARK VINA RESULT:      -7.8      1.037      1.152
REMARK  Name = 
REMARK  3 active torsions:
REMARK  status: ('A' for Active; 'I' for Inactive)
REMARK    1  A    between atoms: N_1  and  C_2
REMARK    2  A    between atoms: C_5  and  N_6
REMARK    3  A    between atoms: C_12  and  C_13
REMARK                            x       y       z     vdW  Elec       q    Type
REMARK                         _______ _______ _______ _____ _____    ______ ____
ROOT
ATOM      1  N   UNL     1       1.198   9.013  19.681  0.00  0.00    +0.000 N 
ATOM      2  N   UNL     1       1.399   7.827  20.377  0.00  0.00    +0.000 NA
ATOM      3  C   UNL     1       2.260   7.192  19.638  0.00  0.00    +0.000 A 
ATOM      4  C   UNL     1       2.848   5.818  19.889  0.00  0.00    +0.000 A 
ATOM      5  O   UNL     1       2.515   5.138  20.845  0.00  0.00    +0.000 OA
ATOM      6  N   UNL     1       3.780   5.412  18.949  0.00  0.00    +0.000 N 
ATOM      7  C   UNL     1       4.156   6.168  17.861  0.00  0.00    +0.000 A 
ATOM      8  C   UNL     1       3.601   7.369  17.641  0.00  0.00    +0.000 A 
ATOM      9  N   UNL     1       2.669   7.841  18.521  0.00  0.00    +0.000 N 
ATOM     10  C   UNL     1       1.990   9.034  18.506  0.00  0.00    +0.000 A 
ATOM     11  O   UNL     1       2.094   9.900  17.648  0.00  0.00    +0.000 OA
ATOM     12  H   UNL     1       4.195   4.498  19.093  0.00  0.00    +0.000 HD
ENDROOT
BRANCH   1  16
ATOM     13  C   UNL     1      -1.506  11.953  21.116  0.00  0.00    +0.000 A 
ATOM     14  C   UNL     1      -1.505  11.581  19.774  0.00  0.00    +0.000 A 
ATOM     15  C   UNL     1      -0.600  10.629  19.293  0.00  0.00    +0.000 A 
ATOM     16  C   UNL     1       0.293   9.984  20.157  0.00  0.00    +0.000 A 
ATOM     17  C   UNL     1       0.248  10.315  21.516  0.00  0.00    +0.000 A 
ATOM     18  C   UNL     1      -0.654  11.279  21.990  0.00  0.00    +0.000 A 
BRANCH  13  19
ATOM     19  N   UNL     1      -2.500  12.806  21.605  0.00  0.00    +0.000 N 
ATOM     20  H   UNL     1      -2.996  12.437  22.411  0.00  0.00    +0.000 HD
ATOM     21  H   UNL     1      -3.130  13.154  20.890  0.00  0.00    +0.000 HD
ENDBRANCH  13  19
ENDBRANCH   1  16
BRANCH   7  22
ATOM     22  C   UNL     1       5.192   5.625  16.980  0.00  0.00    +0.000 A 
ATOM     23  C   UNL     1       6.326   5.015  17.533  0.00  0.00    +0.000 A 
ATOM     24  C   UNL     1       7.290   4.443  16.705  0.00  0.00    +0.000 A 
ATOM     25  C   UNL     1       7.131   4.484  15.320  0.00  0.00    +0.000 A 
ATOM     26  C   UNL     1       6.016   5.108  14.763  0.00  0.00    +0.000 A 
ATOM     27  C   UNL     1       5.047   5.679  15.590  0.00  0.00    +0.000 A 
ENDBRANCH   7  22
TORSDOF 3
ENDMDL
MODEL 6
REMARK VINA RESULT:      -7.7      1.201      1.515
REMARK  Name = 
REMARK  3 active torsions:
REMARK  status: ('A' for Active; 'I' for Inactive)
REMARK    1  A    between atoms: N_1  and  C_2
REMARK    2  A    between atoms: C_5  and  N_6
REMARK    3  A    between atoms: C_12  and  C_13
REMARK                            x       y       z     vdW  Elec       q    Type
REMARK                         _______ _______ _______ _____ _____    ______ ____
ROOT
ATOM      1  N   UNL     1       1.149   9.223  19.559  0.00  0.00    +0.000 N 
ATOM      2  N   UNL     1       1.286   8.064  20.314  0.00  0.00    +0.000 NA
ATOM      3  C   UNL     1       2.116   7.351  19.611  0.00  0.00    +0.000 A 
ATOM      4  C   UNL     1       2.631   5.962  19.933  0.00  0.00    +0.000 A 
ATOM      5  O   UNL     1       2.259   5.347  20.919  0.00  0.00    +0.000 OA
ATOM      6  N   UNL     1       3.544   5.463  19.021  0.00  0.00    +0.000 N 
ATOM      7  C   UNL     1       3.964   6.144  17.899  0.00  0.00    +0.000 A 
ATOM      8  C   UNL     1       3.473   7.361  17.617  0.00  0.00    +0.000 A 
ATOM      9  N   UNL     1       2.563   7.922  18.468  0.00  0.00    +0.000 N 
ATOM     10  C   UNL     1       1.946   9.147  18.390  0.00  0.00    +0.000 A 
ATOM     11  O   UNL     1       2.099   9.963  17.491  0.00  0.00    +0.000 OA
ATOM     12  H   UNL     1       3.911   4.537  19.211  0.00  0.00    +0.000 HD
ENDROOT
BRANCH   1  16
ATOM     13  C   UNL     1      -1.443  12.331  20.838  0.00  0.00    +0.000 A 
ATOM     14  C   UNL     1      -0.271  12.049  21.537  0.00  0.00    +0.000 A 
ATOM     15  C   UNL     1       0.574  11.010  21.131  0.00  0.00    +0.000 A 
ATOM     16  C   UNL     1       0.294  10.262  19.981  0.00  0.00    +0.000 A 
ATOM     17  C   UNL     1      -0.852  10.588  19.247  0.00  0.00    +0.000 A 
ATOM     18  C   UNL     1      -1.702  11.623  19.665  0.00  0.00    +0.000 A 
BRANCH  13  19
ATOM     19  N   UNL     1      -2.208  13.452  21.177  0.00  0.00    +0.000 N 
ATOM     20  H   UNL     1      -3.201  13.339  20.998  0.00  0.00    +0.000 HD
ATOM     21  H   UNL     1      -1.845  14.323  20.804  0.00  0.00    +0.000 HD
ENDBRANCH  13  19
ENDBRANCH   1  16
BRANCH   7  22
ATOM     22  C   UNL     1       4.974   5.507  17.053  0.00  0.00    +0.000 A 
ATOM     23  C   UNL     1       4.713   4.253  16.483  0.00  0.00    +0.000 A 
ATOM     24  C   UNL     1       5.643   3.663  15.628  0.00  0.00    +0.000 A 
ATOM     25  C   UNL     1       6.842   4.317  15.346  0.00  0.00    +0.000 A 
ATOM     26  C   UNL     1       7.116   5.555  15.926  0.00  0.00    +0.000 A 
ATOM     27  C   UNL     1       6.186   6.150  16.780  0.00  0.00    +0.000 A 
ENDBRANCH   7  22
TORSDOF 3
ENDMDL
MODEL 7
REMARK VINA RESULT:      -7.7      2.625      4.561
REMARK  Name = 
REMARK  3 active torsions:
REMARK  status: ('A' for Active; 'I' for Inactive)
REMARK    1  A    between atoms: N_1  and  C_2
REMARK    2  A    between atoms: C_5  and  N_6
REMARK    3  A    between atoms: C_12  and  C_13
REMARK                            x       y       z     vdW  Elec       q    Type
REMARK                         _______ _______ _______ _____ _____    ______ ____
ROOT
ATOM      1  N   UNL     1      -0.768  11.300  22.159  0.00  0.00    +0.000 N 
ATOM      2  N   UNL     1      -0.503  11.480  20.806  0.00  0.00    +0.000 NA
ATOM      3  C   UNL     1       0.191  10.425  20.498  0.00  0.00    +0.000 A 
ATOM      4  C   UNL     1       0.780  10.077  19.145  0.00  0.00    +0.000 A 
ATOM      5  O   UNL     1       0.675  10.822  18.184  0.00  0.00    +0.000 OA
ATOM      6  N   UNL     1       1.438   8.861  19.101  0.00  0.00    +0.000 N 
ATOM      7  C   UNL     1       1.570   8.016  20.181  0.00  0.00    +0.000 A 
ATOM      8  C   UNL     1       1.067   8.356  21.377  0.00  0.00    +0.000 A 
ATOM      9  N   UNL     1       0.406   9.545  21.505  0.00  0.00    +0.000 N 
ATOM     10  C   UNL     1      -0.198  10.085  22.614  0.00  0.00    +0.000 A 
ATOM     11  O   UNL     1      -0.221   9.578  23.728  0.00  0.00    +0.000 OA
ATOM     12  H   UNL     1       1.839   8.598  18.207  0.00  0.00    +0.000 HD
ENDROOT
BRANCH   1  16
ATOM     13  C   UNL     1      -2.963  14.216  24.325  0.00  0.00    +0.000 A 
ATOM     14  C   UNL     1      -3.503  12.956  24.079  0.00  0.00    +0.000 A 
ATOM     15  C   UNL     1      -2.791  12.000  23.345  0.00  0.00    +0.000 A 
ATOM     16  C   UNL     1      -1.496  12.264  22.886  0.00  0.00    +0.000 A 
ATOM     17  C   UNL     1      -0.931  13.509  23.187  0.00  0.00    +0.000 A 
ATOM     18  C   UNL     1      -1.654  14.467  23.913  0.00  0.00    +0.000 A 
BRANCH  13  19
ATOM     19  N   UNL     1      -3.629  15.111  25.168  0.00  0.00    +0.000 N 
ATOM     20  H   UNL     1      -3.192  15.219  26.078  0.00  0.00    +0.000 HD
ATOM     21  H   UNL     1      -4.627  14.943  25.238  0.00  0.00    +0.000 HD
ENDBRANCH  13  19
ENDBRANCH   1  16
BRANCH   7  22
ATOM     22  C   UNL     1       2.251   6.738  19.967  0.00  0.00    +0.000 A 
ATOM     23  C   UNL     1       1.863   5.612  20.705  0.00  0.00    +0.000 A 
ATOM     24  C   UNL     1       2.464   4.376  20.469  0.00  0.00    +0.000 A 
ATOM     25  C   UNL     1       3.460   4.261  19.500  0.00  0.00    +0.000 A 
ATOM     26  C   UNL     1       3.865   5.382  18.776  0.00  0.00    +0.000 A 
ATOM     27  C   UNL     1       3.263   6.620  19.009  0.00  0.00    +0.000 A 
ENDBRANCH   7  22
TORSDOF 3
ENDMDL
MODEL 8
REMARK VINA RESULT:      -7.5      2.597      4.570
REMARK  Name = 
REMARK  3 active torsions:
REMARK  status: ('A' for Active; 'I' for Inactive)
REMARK    1  A    between atoms: N_1  and  C_2
REMARK    2  A    between atoms: C_5  and  N_6
REMARK    3  A    between atoms: C_12  and  C_13
REMARK                            x       y       z     vdW  Elec       q    Type
REMARK                         _______ _______ _______ _____ _____    ______ ____
ROOT
ATOM      1  N   UNL     1      -0.763  11.406  22.160  0.00  0.00    +0.000 N 
ATOM      2  N   UNL     1      -0.395  11.681  20.848  0.00  0.00    +0.000 NA
ATOM      3  C   UNL     1       0.272  10.620  20.500  0.00  0.00    +0.000 A 
ATOM      4  C   UNL     1       0.940  10.354  19.166  0.00  0.00    +0.000 A 
ATOM      5  O   UNL     1       0.938  11.178  18.266  0.00  0.00    +0.000 OA
ATOM      6  N   UNL     1       1.545   9.114  19.064  0.00  0.00    +0.000 N 
ATOM      7  C   UNL     1       1.562   8.179  20.076  0.00  0.00    +0.000 A 
ATOM      8  C   UNL     1       0.990   8.447  21.260  0.00  0.00    +0.000 A 
ATOM      9  N   UNL     1       0.375   9.653  21.442  0.00  0.00    +0.000 N 
ATOM     10  C   UNL     1      -0.282  10.131  22.549  0.00  0.00    +0.000 A 
ATOM     11  O   UNL     1      -0.407   9.538  23.612  0.00  0.00    +0.000 OA
ATOM     12  H   UNL     1       1.997   8.903  18.181  0.00  0.00    +0.000 HD
ENDROOT
BRANCH   1  16
ATOM     13  C   UNL     1      -2.970  14.215  24.453  0.00  0.00    +0.000 A 
ATOM     14  C   UNL     1      -1.697  14.525  23.980  0.00  0.00    +0.000 A 
ATOM     15  C   UNL     1      -0.958  13.592  23.243  0.00  0.00    +0.000 A 
ATOM     16  C   UNL     1      -1.498  12.343  22.914  0.00  0.00    +0.000 A 
ATOM     17  C   UNL     1      -2.800  12.058  23.338  0.00  0.00    +0.000 A 
ATOM     18  C   UNL     1      -3.532  12.992  24.087  0.00  0.00    +0.000 A 
BRANCH  13  19
ATOM     19  N   UNL     1      -3.745  15.199  25.073  0.00  0.00    +0.000 N 
ATOM     20  H   UNL     1      -3.409  16.144  24.917  0.00  0.00    +0.000 HD
ATOM     21  H   UNL     1      -3.934  15.014  26.053  0.00  0.00    +0.000 HD
ENDBRANCH  13  19
ENDBRANCH   1  16
BRANCH   7  22
ATOM     22  C   UNL     1       2.199   6.890  19.803  0.00  0.00    +0.000 A 
ATOM     23  C   UNL     1       1.944   5.796  20.641  0.00  0.00    +0.000 A 
ATOM     24  C   UNL     1       2.498   4.549  20.357  0.00  0.00    +0.000 A 
ATOM     25  C   UNL     1       3.316   4.389  19.238  0.00  0.00    +0.000 A 
ATOM     26  C   UNL     1       3.590   5.478  18.412  0.00  0.00    +0.000 A 
ATOM     27  C   UNL     1       3.034   6.728  18.692  0.00  0.00    +0.000 A 
ENDBRANCH   7  22
TORSDOF 3
ENDMDL
MODEL 9
REMARK VINA RESULT:      -7.5      2.632      4.715
REMARK  Name = 
REMARK  3 active torsions:
REMARK  status: ('A' for Active; 'I' for Inactive)
REMARK    1  A    between atoms: N_1  and  C_2
REMARK    2  A    between atoms: C_5  and  N_6
REMARK    3  A    between atoms: C_12  and  C_13
REMARK                            x       y       z     vdW  Elec       q    Type
REMARK                         _______ _______ _______ _____ _____    ______ ____
ROOT
ATOM      1  N   UNL     1      -0.993  11.567  22.062  0.00  0.00    +0.000 N 
ATOM      2  N   UNL     1      -1.032  11.718  20.681  0.00  0.00    +0.000 NA
ATOM      3  C   UNL     1      -0.261  10.759  20.258  0.00  0.00    +0.000 A 
ATOM      4  C   UNL     1       0.093  10.434  18.820  0.00  0.00    +0.000 A 
ATOM      5  O   UNL     1      -0.311  11.108  17.887  0.00  0.00    +0.000 OA
ATOM      6  N   UNL     1       0.905   9.324  18.666  0.00  0.00    +0.000 N 
ATOM      7  C   UNL     1       1.375   8.561  19.713  0.00  0.00    +0.000 A 
ATOM      8  C   UNL     1       1.073   8.884  20.979  0.00  0.00    +0.000 A 
ATOM      9  N   UNL     1       0.279   9.970  21.216  0.00  0.00    +0.000 N 
ATOM     10  C   UNL     1      -0.167  10.471  22.415  0.00  0.00    +0.000 A 
ATOM     11  O   UNL     1       0.108  10.021  23.519  0.00  0.00    +0.000 OA
ATOM     12  H   UNL     1       1.156   9.078  17.715  0.00  0.00    +0.000 HD
ENDROOT
BRANCH   1  16
ATOM     13  C   UNL     1      -3.114  14.212  24.616  0.00  0.00    +0.000 A 
ATOM     14  C   UNL     1      -1.844  14.541  24.146  0.00  0.00    +0.000 A 
ATOM     15  C   UNL     1      -1.133  13.661  23.323  0.00  0.00    +0.000 A 
ATOM     16  C   UNL     1      -1.699  12.451  22.903  0.00  0.00    +0.000 A 
ATOM     17  C   UNL     1      -2.999  12.152  23.327  0.00  0.00    +0.000 A 
ATOM     18  C   UNL     1      -3.703  13.032  24.161  0.00  0.00    +0.000 A 
BRANCH  13  19
ATOM     19  N   UNL     1      -3.863  15.154  25.328  0.00  0.00    +0.000 N 
ATOM     20  H   UNL     1      -4.794  15.305  24.953  0.00  0.00    +0.000 HD
ATOM     21  H   UNL     1      -3.370  16.025  25.498  0.00  0.00    +0.000 HD
ENDBRANCH  13  19
ENDBRANCH   1  16
BRANCH   7  22
ATOM     22  C   UNL     1       2.184   7.386  19.389  0.00  0.00    +0.000 A 
ATOM     23  C   UNL     1       2.968   7.379  18.228  0.00  0.00    +0.000 A 
ATOM     24  C   UNL     1       3.788   6.288  17.939  0.00  0.00    +0.000 A 
ATOM     25  C   UNL     1       3.822   5.196  18.805  0.00  0.00    +0.000 A 
ATOM     26  C   UNL     1       3.029   5.187  19.952  0.00  0.00    +0.000 A 
ATOM     27  C   UNL     1       2.209   6.279  20.245  0.00  0.00    +0.000 A 
ENDBRANCH   7  22
TORSDOF 3
ENDMDL
