MODEL 1
REMARK VINA RESULT:      -7.7      0.000      0.000
REMARK  Name = 
REMARK  5 active torsions:
REMARK  status: ('A' for Active; 'I' for Inactive)
REMARK    1  A    between atoms: C_2  and  C_18
REMARK    2  A    between atoms: N_3  and  C_4
REMARK    3  A    between atoms: C_4  and  N_6
REMARK    4  A    between atoms: N_6  and  C_7
REMARK    5  A    between atoms: C_12  and  N_13
REMARK                            x       y       z     vdW  Elec       q    Type
REMARK                         _______ _______ _______ _____ _____    ______ ____
ROOT
ATOM      1  N   UNL     1       5.492   4.419  19.189  0.00  0.00    +0.000 N 
ATOM      2  H   UNL     1       5.561   4.308  20.200  0.00  0.00    +0.000 HD
ENDROOT
BRANCH   1   3
ATOM      3  C   UNL     1       4.246   4.006  18.637  0.00  0.00    +0.000 A 
ATOM      4  C   UNL     1       4.022   2.635  18.426  0.00  0.00    +0.000 A 
ATOM      5  C   UNL     1       2.812   2.159  17.936  0.00  0.00    +0.000 A 
ATOM      6  C   UNL     1       1.795   3.054  17.669  0.00  0.00    +0.000 A 
ATOM      7  C   UNL     1       1.980   4.420  17.919  0.00  0.00    +0.000 A 
ATOM      8  C   UNL     1       3.191   4.943  18.427  0.00  0.00    +0.000 A 
BRANCH   8   9
ATOM      9  N   UNL     1       3.336   6.316  18.694  0.00  0.00    +0.000 N 
ATOM     10  C   UNL     1       2.505   7.008  19.695  0.00  0.00    +0.000 C 
ATOM     11  C   UNL     1       1.786   8.111  18.930  0.00  0.00    +0.000 C 
ATOM     12  C   UNL     1       2.779   8.491  17.851  0.00  0.00    +0.000 C 
ATOM     13  C   UNL     1       3.498   7.183  17.510  0.00  0.00    +0.000 C 
ENDBRANCH   8   9
ENDBRANCH   1   3
BRANCH   1  14
ATOM     14  C   UNL     1       6.593   4.929  18.528  0.00  0.00    +0.000 C 
ATOM     15  S   UNL     1       7.845   5.834  19.196  0.00  0.00    +0.000 S 
BRANCH  14  18
ATOM     16  O   UNL     1       6.405   6.756  16.314  0.00  0.00    +0.000 OA
ATOM     17  C   UNL     1       6.601   5.552  16.133  0.00  0.00    +0.000 C 
ATOM     18  N   UNL     1       6.690   4.658  17.181  0.00  0.00    +0.000 N 
ATOM     19  H   UNL     1       6.756   3.678  16.937  0.00  0.00    +0.000 HD
BRANCH  17  20
ATOM     20  C   UNL     1       6.662   4.992  14.802  0.00  0.00    +0.000 A 
ATOM     21  C   UNL     1       5.857   4.034  14.221  0.00  0.00    +0.000 A 
ATOM     22  C   UNL     1       6.366   3.788  12.929  0.00  0.00    +0.000 A 
ATOM     23  C   UNL     1       7.446   4.628  12.780  0.00  0.00    +0.000 A 
ATOM     24  O   UNL     1       7.637   5.371  13.908  0.00  0.00    +0.000 OA
ENDBRANCH  17  20
ENDBRANCH  14  18
ENDBRANCH   1  14
TORSDOF 5
ENDMDL
MODEL 2
REMARK VINA RESULT:      -7.5      1.320      1.389
REMARK  Name = 
REMARK  5 active torsions:
REMARK  status: ('A' for Active; 'I' for Inactive)
REMARK    1  A    between atoms: C_2  and  C_18
REMARK    2  A    between atoms: N_3  and  C_4
REMARK    3  A    between atoms: C_4  and  N_6
REMARK    4  A    between atoms: N_6  and  C_7
REMARK    5  A    between atoms: C_12  and  N_13
REMARK                            x       y       z     vdW  Elec       q    Type
REMARK                         _______ _______ _______ _____ _____    ______ ____
ROOT
ATOM      1  N   UNL     1       5.308   5.866  18.320  0.00  0.00    +0.000 N 
ATOM      2  H   UNL     1       5.622   5.805  19.288  0.00  0.00    +0.000 HD
ENDROOT
BRANCH   1   3
ATOM      3  C   UNL     1       4.037   5.272  18.077  0.00  0.00    +0.000 A 
ATOM      4  C   UNL     1       3.979   3.898  17.786  0.00  0.00    +0.000 A 
ATOM      5  C   UNL     1       2.769   3.244  17.586  0.00  0.00    +0.000 A 
ATOM      6  C   UNL     1       1.591   3.958  17.695  0.00  0.00    +0.000 A 
ATOM      7  C   UNL     1       1.625   5.317  18.034  0.00  0.00    +0.000 A 
ATOM      8  C   UNL     1       2.833   6.016  18.257  0.00  0.00    +0.000 A 
BRANCH   8   9
ATOM      9  N   UNL     1       2.832   7.374  18.622  0.00  0.00    +0.000 N 
ATOM     10  C   UNL     1       2.017   7.880  19.741  0.00  0.00    +0.000 C 
ATOM     11  C   UNL     1       1.101   8.932  19.129  0.00  0.00    +0.000 C 
ATOM     12  C   UNL     1       1.939   9.513  18.008  0.00  0.00    +0.000 C 
ATOM     13  C   UNL     1       2.779   8.336  17.504  0.00  0.00    +0.000 C 
ENDBRANCH   8   9
ENDBRANCH   1   3
BRANCH   1  14
ATOM     14  C   UNL     1       6.147   6.491  17.417  0.00  0.00    +0.000 C 
ATOM     15  S   UNL     1       7.139   7.818  17.708  0.00  0.00    +0.000 S 
BRANCH  14  18
ATOM     16  O   UNL     1       7.925   4.488  16.367  0.00  0.00    +0.000 OA
ATOM     17  C   UNL     1       7.053   5.000  15.662  0.00  0.00    +0.000 C 
ATOM     18  N   UNL     1       6.193   5.965  16.145  0.00  0.00    +0.000 N 
ATOM     19  H   UNL     1       5.573   6.399  15.471  0.00  0.00    +0.000 HD
BRANCH  17  20
ATOM     20  C   UNL     1       6.938   4.679  14.257  0.00  0.00    +0.000 A 
ATOM     21  C   UNL     1       6.139   3.738  13.641  0.00  0.00    +0.000 A 
ATOM     22  C   UNL     1       6.439   3.772  12.263  0.00  0.00    +0.000 A 
ATOM     23  C   UNL     1       7.393   4.753  12.108  0.00  0.00    +0.000 A 
ATOM     24  O   UNL     1       7.705   5.317  13.310  0.00  0.00    +0.000 OA
ENDBRANCH  17  20
ENDBRANCH  14  18
ENDBRANCH   1  14
TORSDOF 5
ENDMDL
MODEL 3
REMARK VINA RESULT:      -7.4      1.572      3.167
REMARK  Name = 
REMARK  5 active torsions:
REMARK  status: ('A' for Active; 'I' for Inactive)
REMARK    1  A    between atoms: C_2  and  C_18
REMARK    2  A    between atoms: N_3  and  C_4
REMARK    3  A    between atoms: C_4  and  N_6
REMARK    4  A    between atoms: N_6  and  C_7
REMARK    5  A    between atoms: C_12  and  N_13
REMARK                            x       y       z     vdW  Elec       q    Type
REMARK                         _______ _______ _______ _____ _____    ______ ____
ROOT
ATOM      1  N   UNL     1       5.247   5.095  18.383  0.00  0.00    +0.000 N 
ATOM      2  H   UNL     1       5.049   4.159  18.739  0.00  0.00    +0.000 HD
ENDROOT
BRANCH   1   3
ATOM      3  C   UNL     1       4.127   5.973  18.389  0.00  0.00    +0.000 A 
ATOM      4  C   UNL     1       4.247   7.224  17.759  0.00  0.00    +0.000 A 
ATOM      5  C   UNL     1       3.179   8.111  17.686  0.00  0.00    +0.000 A 
ATOM      6  C   UNL     1       1.962   7.746  18.226  0.00  0.00    +0.000 A 
ATOM      7  C   UNL     1       1.807   6.483  18.812  0.00  0.00    +0.000 A 
ATOM      8  C   UNL     1       2.863   5.548  18.899  0.00  0.00    +0.000 A 
BRANCH   8   9
ATOM      9  N   UNL     1       2.668   4.278  19.469  0.00  0.00    +0.000 N 
ATOM     10  C   UNL     1       1.857   3.241  18.807  0.00  0.00    +0.000 C 
ATOM     11  C   UNL     1       0.746   2.907  19.794  0.00  0.00    +0.000 C 
ATOM     12  C   UNL     1       1.405   3.114  21.143  0.00  0.00    +0.000 C 
ATOM     13  C   UNL     1       2.389   4.265  20.919  0.00  0.00    +0.000 C 
ENDBRANCH   8   9
ENDBRANCH   1   3
BRANCH   1  14
ATOM     14  C   UNL     1       6.535   5.353  17.955  0.00  0.00    +0.000 C 
ATOM     15  S   UNL     1       7.865   5.726  18.914  0.00  0.00    +0.000 S 
BRANCH  14  18
ATOM     16  O   UNL     1       5.327   3.599  16.021  0.00  0.00    +0.000 OA
ATOM     17  C   UNL     1       6.170   4.435  15.686  0.00  0.00    +0.000 C 
ATOM     18  N   UNL     1       6.764   5.283  16.598  0.00  0.00    +0.000 N 
ATOM     19  H   UNL     1       7.513   5.869  16.251  0.00  0.00    +0.000 HD
BRANCH  17  20
ATOM     20  C   UNL     1       6.648   4.516  14.324  0.00  0.00    +0.000 A 
ATOM     21  C   UNL     1       6.253   3.795  13.216  0.00  0.00    +0.000 A 
ATOM     22  C   UNL     1       7.066   4.204  12.139  0.00  0.00    +0.000 A 
ATOM     23  C   UNL     1       7.903   5.174  12.643  0.00  0.00    +0.000 A 
ATOM     24  O   UNL     1       7.660   5.379  13.970  0.00  0.00    +0.000 OA
ENDBRANCH  17  20
ENDBRANCH  14  18
ENDBRANCH   1  14
TORSDOF 5
ENDMDL
MODEL 4
REMARK VINA RESULT:      -7.2      1.716      3.273
REMARK  Name = 
REMARK  5 active torsions:
REMARK  status: ('A' for Active; 'I' for Inactive)
REMARK    1  A    between atoms: C_2  and  C_18
REMARK    2  A    between atoms: N_3  and  C_4
REMARK    3  A    between atoms: C_4  and  N_6
REMARK    4  A    between atoms: N_6  and  C_7
REMARK    5  A    between atoms: C_12  and  N_13
REMARK                            x       y       z     vdW  Elec       q    Type
REMARK                         _______ _______ _______ _____ _____    ______ ____
ROOT
ATOM      1  N   UNL     1       5.129   4.345  18.216  0.00  0.00    +0.000 N 
ATOM      2  H   UNL     1       4.812   3.412  18.480  0.00  0.00    +0.000 HD
ENDROOT
BRANCH   1   3
ATOM      3  C   UNL     1       4.182   5.378  18.466  0.00  0.00    +0.000 A 
ATOM      4  C   UNL     1       4.256   6.559  17.707  0.00  0.00    +0.000 A 
ATOM      5  C   UNL     1       3.336   7.588  17.866  0.00  0.00    +0.000 A 
ATOM      6  C   UNL     1       2.309   7.440  18.778  0.00  0.00    +0.000 A 
ATOM      7  C   UNL     1       2.189   6.250  19.508  0.00  0.00    +0.000 A 
ATOM      8  C   UNL     1       3.096   5.176  19.369  0.00  0.00    +0.000 A 
BRANCH   8   9
ATOM      9  N   UNL     1       2.932   3.984  20.097  0.00  0.00    +0.000 N 
ATOM     10  C   UNL     1       2.475   2.737  19.459  0.00  0.00    +0.000 C 
ATOM     11  C   UNL     1       1.199   2.351  20.195  0.00  0.00    +0.000 C 
ATOM     12  C   UNL     1       1.441   2.860  21.601  0.00  0.00    +0.000 C 
ATOM     13  C   UNL     1       2.282   4.125  21.415  0.00  0.00    +0.000 C 
ENDBRANCH   8   9
ENDBRANCH   1   3
BRANCH   1  14
ATOM     14  C   UNL     1       6.390   4.455  17.662  0.00  0.00    +0.000 C 
ATOM     15  S   UNL     1       7.808   4.893  18.452  0.00  0.00    +0.000 S 
BRANCH  14  18
ATOM     16  O   UNL     1       6.722   6.264  15.449  0.00  0.00    +0.000 OA
ATOM     17  C   UNL     1       6.670   5.044  15.274  0.00  0.00    +0.000 C 
ATOM     18  N   UNL     1       6.507   4.159  16.321  0.00  0.00    +0.000 N 
ATOM     19  H   UNL     1       6.379   3.185  16.076  0.00  0.00    +0.000 HD
BRANCH  17  20
ATOM     20  C   UNL     1       6.691   4.474  13.946  0.00  0.00    +0.000 A 
ATOM     21  C   UNL     1       7.503   4.786  12.875  0.00  0.00    +0.000 A 
ATOM     22  C   UNL     1       7.087   3.990  11.788  0.00  0.00    +0.000 A 
ATOM     23  C   UNL     1       6.053   3.213  12.261  0.00  0.00    +0.000 A 
ATOM     24  O   UNL     1       5.802   3.492  13.573  0.00  0.00    +0.000 OA
ENDBRANCH  17  20
ENDBRANCH  14  18
ENDBRANCH   1  14
TORSDOF 5
ENDMDL
MODEL 5
REMARK VINA RESULT:      -7.2      1.852      3.651
REMARK  Name = 
REMARK  5 active torsions:
REMARK  status: ('A' for Active; 'I' for Inactive)
REMARK    1  A    between atoms: C_2  and  C_18
REMARK    2  A    between atoms: N_3  and  C_4
REMARK    3  A    between atoms: C_4  and  N_6
REMARK    4  A    between atoms: N_6  and  C_7
REMARK    5  A    between atoms: C_12  and  N_13
REMARK                            x       y       z     vdW  Elec       q    Type
REMARK                         _______ _______ _______ _____ _____    ______ ____
ROOT
ATOM      1  N   UNL     1       3.527   5.576  17.578  0.00  0.00    +0.000 N 
ATOM      2  H   UNL     1       2.933   5.277  16.805  0.00  0.00    +0.000 HD
ENDROOT
BRANCH   1   3
ATOM      3  C   UNL     1       2.873   6.397  18.539  0.00  0.00    +0.000 A 
ATOM      4  C   UNL     1       2.658   7.752  18.235  0.00  0.00    +0.000 A 
ATOM      5  C   UNL     1       1.984   8.599  19.106  0.00  0.00    +0.000 A 
ATOM      6  C   UNL     1       1.492   8.092  20.293  0.00  0.00    +0.000 A 
ATOM      7  C   UNL     1       1.650   6.732  20.592  0.00  0.00    +0.000 A 
ATOM      8  C   UNL     1       2.320   5.836  19.729  0.00  0.00    +0.000 A 
BRANCH   8   9
ATOM      9  N   UNL     1       2.439   4.471  20.046  0.00  0.00    +0.000 N 
ATOM     10  C   UNL     1       1.761   3.425  19.258  0.00  0.00    +0.000 C 
ATOM     11  C   UNL     1       0.863   2.694  20.248  0.00  0.00    +0.000 C 
ATOM     12  C   UNL     1       1.633   2.786  21.550  0.00  0.00    +0.000 C 
ATOM     13  C   UNL     1       2.348   4.138  21.481  0.00  0.00    +0.000 C 
ENDBRANCH   8   9
ENDBRANCH   1   3
BRANCH   1  14
ATOM     14  C   UNL     1       4.844   5.156  17.566  0.00  0.00    +0.000 C 
ATOM     15  S   UNL     1       5.900   5.097  18.874  0.00  0.00    +0.000 S 
BRANCH  14  18
ATOM     16  O   UNL     1       5.431   6.698  15.210  0.00  0.00    +0.000 OA
ATOM     17  C   UNL     1       5.625   5.480  15.240  0.00  0.00    +0.000 C 
ATOM     18  N   UNL     1       5.347   4.722  16.359  0.00  0.00    +0.000 N 
ATOM     19  H   UNL     1       5.445   3.718  16.263  0.00  0.00    +0.000 HD
BRANCH  17  20
ATOM     20  C   UNL     1       6.077   4.761  14.071  0.00  0.00    +0.000 A 
ATOM     21  C   UNL     1       7.239   4.922  13.343  0.00  0.00    +0.000 A 
ATOM     22  C   UNL     1       7.181   4.021  12.259  0.00  0.00    +0.000 A 
ATOM     23  C   UNL     1       5.993   3.338  12.397  0.00  0.00    +0.000 A 
ATOM     24  O   UNL     1       5.312   3.773  13.495  0.00  0.00    +0.000 OA
ENDBRANCH  17  20
ENDBRANCH  14  18
ENDBRANCH   1  14
TORSDOF 5
ENDMDL
MODEL 6
REMARK VINA RESULT:      -7.1      1.780      3.517
REMARK  Name = 
REMARK  5 active torsions:
REMARK  status: ('A' for Active; 'I' for Inactive)
REMARK    1  A    between atoms: C_2  and  C_18
REMARK    2  A    between atoms: N_3  and  C_4
REMARK    3  A    between atoms: C_4  and  N_6
REMARK    4  A    between atoms: N_6  and  C_7
REMARK    5  A    between atoms: C_12  and  N_13
REMARK                            x       y       z     vdW  Elec       q    Type
REMARK                         _______ _______ _______ _____ _____    ______ ____
ROOT
ATOM      1  N   UNL     1       3.494   5.519  17.528  0.00  0.00    +0.000 N 
ATOM      2  H   UNL     1       2.870   5.166  16.802  0.00  0.00    +0.000 HD
ENDROOT
BRANCH   1   3
ATOM      3  C   UNL     1       2.847   6.294  18.532  0.00  0.00    +0.000 A 
ATOM      4  C   UNL     1       2.721   7.680  18.338  0.00  0.00    +0.000 A 
ATOM      5  C   UNL     1       2.059   8.490  19.254  0.00  0.00    +0.000 A 
ATOM      6  C   UNL     1       1.491   7.914  20.373  0.00  0.00    +0.000 A 
ATOM      7  C   UNL     1       1.561   6.528  20.560  0.00  0.00    +0.000 A 
ATOM      8  C   UNL     1       2.215   5.668  19.648  0.00  0.00    +0.000 A 
BRANCH   8   9
ATOM      9  N   UNL     1       2.244   4.278  19.850  0.00  0.00    +0.000 N 
ATOM     10  C   UNL     1       1.011   3.489  20.027  0.00  0.00    +0.000 C 
ATOM     11  C   UNL     1       1.151   2.823  21.390  0.00  0.00    +0.000 C 
ATOM     12  C   UNL     1       2.644   2.601  21.517  0.00  0.00    +0.000 C 
ATOM     13  C   UNL     1       3.275   3.789  20.786  0.00  0.00    +0.000 C 
ENDBRANCH   8   9
ENDBRANCH   1   3
BRANCH   1  14
ATOM     14  C   UNL     1       4.836   5.207  17.421  0.00  0.00    +0.000 C 
ATOM     15  S   UNL     1       5.975   5.196  18.658  0.00  0.00    +0.000 S 
BRANCH  14  18
ATOM     16  O   UNL     1       7.241   6.045  16.083  0.00  0.00    +0.000 OA
ATOM     17  C   UNL     1       6.453   5.261  15.548  0.00  0.00    +0.000 C 
ATOM     18  N   UNL     1       5.292   4.849  16.171  0.00  0.00    +0.000 N 
ATOM     19  H   UNL     1       4.659   4.282  15.621  0.00  0.00    +0.000 HD
BRANCH  17  20
ATOM     20  C   UNL     1       6.660   4.792  14.197  0.00  0.00    +0.000 A 
ATOM     21  C   UNL     1       6.076   3.725  13.545  0.00  0.00    +0.000 A 
ATOM     22  C   UNL     1       6.658   3.650  12.262  0.00  0.00    +0.000 A 
ATOM     23  C   UNL     1       7.553   4.694  12.190  0.00  0.00    +0.000 A 
ATOM     24  O   UNL     1       7.564   5.401  13.356  0.00  0.00    +0.000 OA
ENDBRANCH  17  20
ENDBRANCH  14  18
ENDBRANCH   1  14
TORSDOF 5
ENDMDL
MODEL 7
REMARK VINA RESULT:      -7.1      1.878      3.325
REMARK  Name = 
REMARK  5 active torsions:
REMARK  status: ('A' for Active; 'I' for Inactive)
REMARK    1  A    between atoms: C_2  and  C_18
REMARK    2  A    between atoms: N_3  and  C_4
REMARK    3  A    between atoms: C_4  and  N_6
REMARK    4  A    between atoms: N_6  and  C_7
REMARK    5  A    between atoms: C_12  and  N_13
REMARK                            x       y       z     vdW  Elec       q    Type
REMARK                         _______ _______ _______ _____ _____    ______ ____
ROOT
ATOM      1  N   UNL     1       4.861   4.123  17.643  0.00  0.00    +0.000 N 
ATOM      2  H   UNL     1       4.491   3.208  17.899  0.00  0.00    +0.000 HD
ENDROOT
BRANCH   1   3
ATOM      3  C   UNL     1       4.032   5.218  18.016  0.00  0.00    +0.000 A 
ATOM      4  C   UNL     1       4.267   6.474  17.431  0.00  0.00    +0.000 A 
ATOM      5  C   UNL     1       3.466   7.574  17.713  0.00  0.00    +0.000 A 
ATOM      6  C   UNL     1       2.397   7.426  18.574  0.00  0.00    +0.000 A 
ATOM      7  C   UNL     1       2.114   6.170  19.129  0.00  0.00    +0.000 A 
ATOM      8  C   UNL     1       2.897   5.025  18.859  0.00  0.00    +0.000 A 
BRANCH   8   9
ATOM      9  N   UNL     1       2.571   3.773  19.410  0.00  0.00    +0.000 N 
ATOM     10  C   UNL     1       1.174   3.326  19.558  0.00  0.00    +0.000 C 
ATOM     11  C   UNL     1       0.988   3.067  21.047  0.00  0.00    +0.000 C 
ATOM     12  C   UNL     1       2.360   2.603  21.493  0.00  0.00    +0.000 C 
ATOM     13  C   UNL     1       3.337   3.383  20.610  0.00  0.00    +0.000 C 
ENDBRANCH   8   9
ENDBRANCH   1   3
BRANCH   1  14
ATOM     14  C   UNL     1       6.075   4.156  16.982  0.00  0.00    +0.000 C 
ATOM     15  S   UNL     1       7.557   4.643  17.610  0.00  0.00    +0.000 S 
BRANCH  14  18
ATOM     16  O   UNL     1       6.248   5.733  14.582  0.00  0.00    +0.000 OA
ATOM     17  C   UNL     1       6.168   4.503  14.533  0.00  0.00    +0.000 C 
ATOM     18  N   UNL     1       6.080   3.728  15.672  0.00  0.00    +0.000 N 
ATOM     19  H   UNL     1       5.922   2.737  15.536  0.00  0.00    +0.000 HD
BRANCH  17  20
ATOM     20  C   UNL     1       6.075   3.805  13.271  0.00  0.00    +0.000 A 
ATOM     21  C   UNL     1       4.960   3.303  12.632  0.00  0.00    +0.000 A 
ATOM     22  C   UNL     1       5.405   2.657  11.460  0.00  0.00    +0.000 A 
ATOM     23  C   UNL     1       6.772   2.819  11.434  0.00  0.00    +0.000 A 
ATOM     24  O   UNL     1       7.196   3.519  12.525  0.00  0.00    +0.000 OA
ENDBRANCH  17  20
ENDBRANCH  14  18
ENDBRANCH   1  14
TORSDOF 5
ENDMDL
MODEL 8
REMARK VINA RESULT:      -7.0      3.912      5.373
REMARK  Name = 
REMARK  5 active torsions:
REMARK  status: ('A' for Active; 'I' for Inactive)
REMARK    1  A    between atoms: C_2  and  C_18
REMARK    2  A    between atoms: N_3  and  C_4
REMARK    3  A    between atoms: C_4  and  N_6
REMARK    4  A    between atoms: N_6  and  C_7
REMARK    5  A    between atoms: C_12  and  N_13
REMARK                            x       y       z     vdW  Elec       q    Type
REMARK                         _______ _______ _______ _____ _____    ______ ____
ROOT
ATOM      1  N   UNL     1       7.294   6.988  17.183  0.00  0.00    +0.000 N 
ATOM      2  H   UNL     1       7.330   7.867  16.667  0.00  0.00    +0.000 HD
ENDROOT
BRANCH   1   3
ATOM      3  C   UNL     1       6.556   5.958  16.535  0.00  0.00    +0.000 A 
ATOM      4  C   UNL     1       7.192   5.195  15.541  0.00  0.00    +0.000 A 
ATOM      5  C   UNL     1       6.546   4.143  14.902  0.00  0.00    +0.000 A 
ATOM      6  C   UNL     1       5.253   3.824  15.268  0.00  0.00    +0.000 A 
ATOM      7  C   UNL     1       4.620   4.539  16.292  0.00  0.00    +0.000 A 
ATOM      8  C   UNL     1       5.244   5.608  16.974  0.00  0.00    +0.000 A 
BRANCH   8   9
ATOM      9  N   UNL     1       4.590   6.288  18.016  0.00  0.00    +0.000 N 
ATOM     10  C   UNL     1       4.057   5.581  19.195  0.00  0.00    +0.000 C 
ATOM     11  C   UNL     1       2.566   5.894  19.213  0.00  0.00    +0.000 C 
ATOM     12  C   UNL     1       2.496   7.288  18.622  0.00  0.00    +0.000 C 
ATOM     13  C   UNL     1       3.633   7.331  17.598  0.00  0.00    +0.000 C 
ENDBRANCH   8   9
ENDBRANCH   1   3
BRANCH   1  14
ATOM     14  C   UNL     1       7.941   6.940  18.403  0.00  0.00    +0.000 C 
ATOM     15  S   UNL     1       8.007   5.637  19.464  0.00  0.00    +0.000 S 
BRANCH  14  18
ATOM     16  O   UNL     1       7.592   9.643  17.483  0.00  0.00    +0.000 OA
ATOM     17  C   UNL     1       8.436   9.364  18.337  0.00  0.00    +0.000 C 
ATOM     18  N   UNL     1       8.622   8.074  18.790  0.00  0.00    +0.000 N 
ATOM     19  H   UNL     1       9.401   7.921  19.419  0.00  0.00    +0.000 HD
BRANCH  17  20
ATOM     20  C   UNL     1       9.342  10.365  18.854  0.00  0.00    +0.000 A 
ATOM     21  C   UNL     1      10.214  11.189  18.172  0.00  0.00    +0.000 A 
ATOM     22  C   UNL     1      10.918  11.941  19.134  0.00  0.00    +0.000 A 
ATOM     23  C   UNL     1      10.420  11.553  20.358  0.00  0.00    +0.000 A 
ATOM     24  O   UNL     1       9.459  10.598  20.206  0.00  0.00    +0.000 OA
ENDBRANCH  17  20
ENDBRANCH  14  18
ENDBRANCH   1  14
TORSDOF 5
ENDMDL
MODEL 9
REMARK VINA RESULT:      -7.0      1.409      3.439
REMARK  Name = 
REMARK  5 active torsions:
REMARK  status: ('A' for Active; 'I' for Inactive)
REMARK    1  A    between atoms: C_2  and  C_18
REMARK    2  A    between atoms: N_3  and  C_4
REMARK    3  A    between atoms: C_4  and  N_6
REMARK    4  A    between atoms: N_6  and  C_7
REMARK    5  A    between atoms: C_12  and  N_13
REMARK                            x       y       z     vdW  Elec       q    Type
REMARK                         _______ _______ _______ _____ _____    ______ ____
ROOT
ATOM      1  N   UNL     1       3.649   5.273  17.743  0.00  0.00    +0.000 N 
ATOM      2  H   UNL     1       3.089   4.992  16.938  0.00  0.00    +0.000 HD
ENDROOT
BRANCH   1   3
ATOM      3  C   UNL     1       2.896   5.831  18.815  0.00  0.00    +0.000 A 
ATOM      4  C   UNL     1       2.745   7.227  18.879  0.00  0.00    +0.000 A 
ATOM      5  C   UNL     1       1.984   7.835  19.870  0.00  0.00    +0.000 A 
ATOM      6  C   UNL     1       1.342   7.047  20.805  0.00  0.00    +0.000 A 
ATOM      7  C   UNL     1       1.439   5.651  20.729  0.00  0.00    +0.000 A 
ATOM      8  C   UNL     1       2.193   4.993  19.731  0.00  0.00    +0.000 A 
BRANCH   8   9
ATOM      9  N   UNL     1       2.248   3.590  19.666  0.00  0.00    +0.000 N 
ATOM     10  C   UNL     1       3.336   2.821  20.297  0.00  0.00    +0.000 C 
ATOM     11  C   UNL     1       3.987   2.040  19.164  0.00  0.00    +0.000 C 
ATOM     12  C   UNL     1       2.834   1.770  18.219  0.00  0.00    +0.000 C 
ATOM     13  C   UNL     1       1.930   2.998  18.352  0.00  0.00    +0.000 C 
ENDBRANCH   8   9
ENDBRANCH   1   3
BRANCH   1  14
ATOM     14  C   UNL     1       5.015   5.083  17.664  0.00  0.00    +0.000 C 
ATOM     15  S   UNL     1       6.129   5.214  18.918  0.00  0.00    +0.000 S 
BRANCH  14  18
ATOM     16  O   UNL     1       5.262   6.702  15.299  0.00  0.00    +0.000 OA
ATOM     17  C   UNL     1       5.637   5.527  15.310  0.00  0.00    +0.000 C 
ATOM     18  N   UNL     1       5.524   4.732  16.432  0.00  0.00    +0.000 N 
ATOM     19  H   UNL     1       5.767   3.755  16.323  0.00  0.00    +0.000 HD
BRANCH  17  20
ATOM     20  C   UNL     1       6.139   4.887  14.116  0.00  0.00    +0.000 A 
ATOM     21  C   UNL     1       5.626   3.812  13.420  0.00  0.00    +0.000 A 
ATOM     22  C   UNL     1       6.517   3.533  12.364  0.00  0.00    +0.000 A 
ATOM     23  C   UNL     1       7.520   4.472  12.456  0.00  0.00    +0.000 A 
ATOM     24  O   UNL     1       7.304   5.306  13.513  0.00  0.00    +0.000 OA
ENDBRANCH  17  20
ENDBRANCH  14  18
ENDBRANCH   1  14
TORSDOF 5
ENDMDL
