MODEL 1
REMARK VINA RESULT:      -7.6      0.000      0.000
REMARK  Name = 
REMARK  5 active torsions:
REMARK  status: ('A' for Active; 'I' for Inactive)
REMARK    1  A    between atoms: C_1  and  O_2
REMARK    2  A    between atoms: O_2  and  C_3
REMARK    3  A    between atoms: C_7  and  C_8
REMARK    4  A    between atoms: C_11  and  C_12
REMARK    5  A    between atoms: C_13  and  C_14
REMARK                            x       y       z     vdW  Elec       q    Type
REMARK                         _______ _______ _______ _____ _____    ______ ____
ROOT
ATOM      1  C   UNL     1       5.886   5.300  17.443  0.00  0.00    +0.000 A 
ATOM      2  N   UNL     1       6.644   5.225  16.371  0.00  0.00    +0.000 NA
ATOM      3  N   UNL     1       7.577   6.222  16.488  0.00  0.00    +0.000 NA
ATOM      4  C   UNL     1       7.354   6.861  17.627  0.00  0.00    +0.000 A 
ATOM      5  O   UNL     1       6.260   6.318  18.280  0.00  0.00    +0.000 OA
ENDROOT
BRANCH   1  10
ATOM      6  C   UNL     1       3.595   3.121  19.506  0.00  0.00    +0.000 A 
ATOM      7  C   UNL     1       2.662   2.750  18.534  0.00  0.00    +0.000 A 
ATOM      8  C   UNL     1       2.779   3.215  17.226  0.00  0.00    +0.000 A 
ATOM      9  C   UNL     1       3.835   4.057  16.885  0.00  0.00    +0.000 A 
ATOM     10  C   UNL     1       4.785   4.440  17.843  0.00  0.00    +0.000 A 
ATOM     11  C   UNL     1       4.652   3.966  19.158  0.00  0.00    +0.000 A 
BRANCH   6  13
ATOM     12  C   UNL     1       2.119   2.887  21.351  0.00  0.00    +0.000 C 
ATOM     13  O   UNL     1       3.373   2.590  20.748  0.00  0.00    +0.000 OA
ENDBRANCH   6  13
ENDBRANCH   1  10
BRANCH   4  14
ATOM     14  C   UNL     1       8.151   7.931  18.101  0.00  0.00    +0.000 C 
ATOM     15  C   UNL     1       7.902   9.223  17.843  0.00  0.00    +0.000 C 
BRANCH  15  16
ATOM     16  C   UNL     1       8.747  10.246  18.377  0.00  0.00    +0.000 A 
ATOM     17  C   UNL     1       9.706  10.191  19.383  0.00  0.00    +0.000 A 
ATOM     18  C   UNL     1      10.329  11.444  19.647  0.00  0.00    +0.000 A 
ATOM     19  C   UNL     1       9.829  12.419  18.825  0.00  0.00    +0.000 A 
ATOM     20 BR   UNL     1      10.398  14.203  18.888  0.00  0.00    +0.000 Br
ATOM     21  S   UNL     1       8.648  11.855  17.754  0.00  0.00    +0.000 S 
ENDBRANCH  15  16
ENDBRANCH   4  14
TORSDOF 4
ENDMDL
MODEL 2
REMARK VINA RESULT:      -7.5      1.385      1.388
REMARK  Name = 
REMARK  5 active torsions:
REMARK  status: ('A' for Active; 'I' for Inactive)
REMARK    1  A    between atoms: C_1  and  O_2
REMARK    2  A    between atoms: O_2  and  C_3
REMARK    3  A    between atoms: C_7  and  C_8
REMARK    4  A    between atoms: C_11  and  C_12
REMARK    5  A    between atoms: C_13  and  C_14
REMARK                            x       y       z     vdW  Elec       q    Type
REMARK                         _______ _______ _______ _____ _____    ______ ____
ROOT
ATOM      1  C   UNL     1       5.938   5.900  17.200  0.00  0.00    +0.000 A 
ATOM      2  N   UNL     1       6.789   5.871  16.198  0.00  0.00    +0.000 NA
ATOM      3  N   UNL     1       7.774   6.773  16.502  0.00  0.00    +0.000 NA
ATOM      4  C   UNL     1       7.488   7.313  17.679  0.00  0.00    +0.000 A 
ATOM      5  O   UNL     1       6.299   6.798  18.169  0.00  0.00    +0.000 OA
ENDROOT
BRANCH   1  10
ATOM      6  C   UNL     1       2.624   4.660  18.515  0.00  0.00    +0.000 A 
ATOM      7  C   UNL     1       2.493   3.476  17.786  0.00  0.00    +0.000 A 
ATOM      8  C   UNL     1       3.473   3.095  16.871  0.00  0.00    +0.000 A 
ATOM      9  C   UNL     1       4.591   3.904  16.683  0.00  0.00    +0.000 A 
ATOM     10  C   UNL     1       4.745   5.096  17.407  0.00  0.00    +0.000 A 
ATOM     11  C   UNL     1       3.748   5.467  18.322  0.00  0.00    +0.000 A 
BRANCH   6  13
ATOM     12  C   UNL     1       1.904   5.743  20.502  0.00  0.00    +0.000 C 
ATOM     13  O   UNL     1       1.599   4.914  19.386  0.00  0.00    +0.000 OA
ENDBRANCH   6  13
ENDBRANCH   1  10
BRANCH   4  14
ATOM     14  C   UNL     1       8.308   8.263  18.332  0.00  0.00    +0.000 C 
ATOM     15  C   UNL     1       8.387   9.555  17.978  0.00  0.00    +0.000 C 
BRANCH  15  16
ATOM     16  C   UNL     1       9.227  10.456  18.704  0.00  0.00    +0.000 A 
ATOM     17  C   UNL     1       9.478  10.555  20.069  0.00  0.00    +0.000 A 
ATOM     18  C   UNL     1      10.371  11.612  20.410  0.00  0.00    +0.000 A 
ATOM     19  C   UNL     1      10.780  12.284  19.289  0.00  0.00    +0.000 A 
ATOM     20 BR   UNL     1      11.950  13.747  19.341  0.00  0.00    +0.000 Br
ATOM     21  S   UNL     1      10.124  11.666  17.857  0.00  0.00    +0.000 S 
ENDBRANCH  15  16
ENDBRANCH   4  14
TORSDOF 4
ENDMDL
MODEL 3
REMARK VINA RESULT:      -7.5      1.461      1.835
REMARK  Name = 
REMARK  5 active torsions:
REMARK  status: ('A' for Active; 'I' for Inactive)
REMARK    1  A    between atoms: C_1  and  O_2
REMARK    2  A    between atoms: O_2  and  C_3
REMARK    3  A    between atoms: C_7  and  C_8
REMARK    4  A    between atoms: C_11  and  C_12
REMARK    5  A    between atoms: C_13  and  C_14
REMARK                            x       y       z     vdW  Elec       q    Type
REMARK                         _______ _______ _______ _____ _____    ______ ____
ROOT
ATOM      1  C   UNL     1       6.050   6.569  17.244  0.00  0.00    +0.000 A 
ATOM      2  N   UNL     1       7.104   6.222  16.537  0.00  0.00    +0.000 NA
ATOM      3  N   UNL     1       8.015   7.235  16.682  0.00  0.00    +0.000 NA
ATOM      4  C   UNL     1       7.483   8.155  17.474  0.00  0.00    +0.000 A 
ATOM      5  O   UNL     1       6.204   7.785  17.854  0.00  0.00    +0.000 OA
ENDROOT
BRANCH   1  10
ATOM      6  C   UNL     1       3.583   3.736  17.625  0.00  0.00    +0.000 A 
ATOM      7  C   UNL     1       2.416   4.456  17.894  0.00  0.00    +0.000 A 
ATOM      8  C   UNL     1       2.441   5.848  17.956  0.00  0.00    +0.000 A 
ATOM      9  C   UNL     1       3.640   6.526  17.751  0.00  0.00    +0.000 A 
ATOM     10  C   UNL     1       4.823   5.824  17.477  0.00  0.00    +0.000 A 
ATOM     11  C   UNL     1       4.783   4.422  17.419  0.00  0.00    +0.000 A 
BRANCH   6  13
ATOM     12  C   UNL     1       2.736   1.783  18.677  0.00  0.00    +0.000 C 
ATOM     13  O   UNL     1       3.423   2.378  17.581  0.00  0.00    +0.000 OA
ENDBRANCH   6  13
ENDBRANCH   1  10
BRANCH   4  14
ATOM     14  C   UNL     1       8.157   9.332  17.879  0.00  0.00    +0.000 C 
ATOM     15  C   UNL     1       8.957   9.406  18.953  0.00  0.00    +0.000 C 
BRANCH  15  16
ATOM     16  C   UNL     1       9.617  10.631  19.283  0.00  0.00    +0.000 A 
ATOM     17  C   UNL     1       9.788  11.263  20.511  0.00  0.00    +0.000 A 
ATOM     18  C   UNL     1      10.494  12.497  20.424  0.00  0.00    +0.000 A 
ATOM     19  C   UNL     1      10.848  12.766  19.129  0.00  0.00    +0.000 A 
ATOM     20 BR   UNL     1      11.778  14.311  18.621  0.00  0.00    +0.000 Br
ATOM     21  S   UNL     1      10.359  11.571  18.036  0.00  0.00    +0.000 S 
ENDBRANCH  15  16
ENDBRANCH   4  14
TORSDOF 4
ENDMDL
MODEL 4
REMARK VINA RESULT:      -7.4      1.167      1.248
REMARK  Name = 
REMARK  5 active torsions:
REMARK  status: ('A' for Active; 'I' for Inactive)
REMARK    1  A    between atoms: C_1  and  O_2
REMARK    2  A    between atoms: O_2  and  C_3
REMARK    3  A    between atoms: C_7  and  C_8
REMARK    4  A    between atoms: C_11  and  C_12
REMARK    5  A    between atoms: C_13  and  C_14
REMARK                            x       y       z     vdW  Elec       q    Type
REMARK                         _______ _______ _______ _____ _____    ______ ____
ROOT
ATOM      1  C   UNL     1       5.909   5.837  17.545  0.00  0.00    +0.000 A 
ATOM      2  N   UNL     1       6.906   5.465  16.772  0.00  0.00    +0.000 NA
ATOM      3  N   UNL     1       7.754   6.539  16.693  0.00  0.00    +0.000 NA
ATOM      4  C   UNL     1       7.243   7.520  17.424  0.00  0.00    +0.000 A 
ATOM      5  O   UNL     1       6.039   7.127  17.985  0.00  0.00    +0.000 OA
ENDROOT
BRANCH   1  10
ATOM      6  C   UNL     1       3.131   4.452  19.693  0.00  0.00    +0.000 A 
ATOM      7  C   UNL     1       2.600   3.492  18.827  0.00  0.00    +0.000 A 
ATOM      8  C   UNL     1       3.141   3.309  17.556  0.00  0.00    +0.000 A 
ATOM      9  C   UNL     1       4.218   4.091  17.146  0.00  0.00    +0.000 A 
ATOM     10  C   UNL     1       4.769   5.058  18.000  0.00  0.00    +0.000 A 
ATOM     11  C   UNL     1       4.212   5.232  19.276  0.00  0.00    +0.000 A 
BRANCH   6  13
ATOM     12  C   UNL     1       1.963   3.316  21.421  0.00  0.00    +0.000 C 
ATOM     13  O   UNL     1       2.517   4.525  20.914  0.00  0.00    +0.000 OA
ENDBRANCH   6  13
ENDBRANCH   1  10
BRANCH   4  14
ATOM     14  C   UNL     1       7.869   8.776  17.609  0.00  0.00    +0.000 C 
ATOM     15  C   UNL     1       8.630   9.085  18.669  0.00  0.00    +0.000 C 
BRANCH  15  16
ATOM     16  C   UNL     1       9.245  10.372  18.770  0.00  0.00    +0.000 A 
ATOM     17  C   UNL     1       9.820  11.178  17.792  0.00  0.00    +0.000 A 
ATOM     18  C   UNL     1      10.353  12.398  18.298  0.00  0.00    +0.000 A 
ATOM     19  C   UNL     1      10.161  12.489  19.650  0.00  0.00    +0.000 A 
ATOM     20 BR   UNL     1      10.740  13.949  20.672  0.00  0.00    +0.000 Br
ATOM     21  S   UNL     1       9.354  11.155  20.307  0.00  0.00    +0.000 S 
ENDBRANCH  15  16
ENDBRANCH   4  14
TORSDOF 4
ENDMDL
MODEL 5
REMARK VINA RESULT:      -7.3      2.784      3.942
REMARK  Name = 
REMARK  5 active torsions:
REMARK  status: ('A' for Active; 'I' for Inactive)
REMARK    1  A    between atoms: C_1  and  O_2
REMARK    2  A    between atoms: O_2  and  C_3
REMARK    3  A    between atoms: C_7  and  C_8
REMARK    4  A    between atoms: C_11  and  C_12
REMARK    5  A    between atoms: C_13  and  C_14
REMARK                            x       y       z     vdW  Elec       q    Type
REMARK                         _______ _______ _______ _____ _____    ______ ____
ROOT
ATOM      1  C   UNL     1       7.380   6.398  17.285  0.00  0.00    +0.000 A 
ATOM      2  N   UNL     1       7.873   6.141  18.477  0.00  0.00    +0.000 NA
ATOM      3  N   UNL     1       8.379   7.325  18.948  0.00  0.00    +0.000 NA
ATOM      4  C   UNL     1       8.170   8.256  18.028  0.00  0.00    +0.000 A 
ATOM      5  O   UNL     1       7.542   7.709  16.921  0.00  0.00    +0.000 OA
ENDROOT
BRANCH   1  10
ATOM      6  C   UNL     1       6.449   4.379  14.234  0.00  0.00    +0.000 A 
ATOM      7  C   UNL     1       5.248   3.812  14.667  0.00  0.00    +0.000 A 
ATOM      8  C   UNL     1       4.756   4.082  15.943  0.00  0.00    +0.000 A 
ATOM      9  C   UNL     1       5.470   4.923  16.793  0.00  0.00    +0.000 A 
ATOM     10  C   UNL     1       6.677   5.506  16.378  0.00  0.00    +0.000 A 
ATOM     11  C   UNL     1       7.160   5.222  15.092  0.00  0.00    +0.000 A 
BRANCH   6  13
ATOM     12  C   UNL     1       5.893   3.251  12.220  0.00  0.00    +0.000 C 
ATOM     13  O   UNL     1       6.816   4.042  12.959  0.00  0.00    +0.000 OA
ENDBRANCH   6  13
ENDBRANCH   1  10
BRANCH   4  14
ATOM     14  C   UNL     1       8.527   9.616  18.186  0.00  0.00    +0.000 C 
ATOM     15  C   UNL     1       9.296  10.078  19.183  0.00  0.00    +0.000 C 
BRANCH  15  16
ATOM     16  C   UNL     1       9.626  11.467  19.261  0.00  0.00    +0.000 A 
ATOM     17  C   UNL     1      10.217  12.199  20.286  0.00  0.00    +0.000 A 
ATOM     18  C   UNL     1      10.363  13.584  19.988  0.00  0.00    +0.000 A 
ATOM     19  C   UNL     1       9.884  13.866  18.737  0.00  0.00    +0.000 A 
ATOM     20 BR   UNL     1       9.893  15.589  18.000  0.00  0.00    +0.000 Br
ATOM     21  S   UNL     1       9.280  12.510  17.927  0.00  0.00    +0.000 S 
ENDBRANCH  15  16
ENDBRANCH   4  14
TORSDOF 4
ENDMDL
MODEL 6
REMARK VINA RESULT:      -7.3      5.480      7.266
REMARK  Name = 
REMARK  5 active torsions:
REMARK  status: ('A' for Active; 'I' for Inactive)
REMARK    1  A    between atoms: C_1  and  O_2
REMARK    2  A    between atoms: O_2  and  C_3
REMARK    3  A    between atoms: C_7  and  C_8
REMARK    4  A    between atoms: C_11  and  C_12
REMARK    5  A    between atoms: C_13  and  C_14
REMARK                            x       y       z     vdW  Elec       q    Type
REMARK                         _______ _______ _______ _____ _____    ______ ____
ROOT
ATOM      1  C   UNL     1       3.442   5.252  18.966  0.00  0.00    +0.000 A 
ATOM      2  N   UNL     1       2.792   4.291  19.585  0.00  0.00    +0.000 NA
ATOM      3  N   UNL     1       1.897   4.907  20.420  0.00  0.00    +0.000 NA
ATOM      4  C   UNL     1       2.033   6.217  20.273  0.00  0.00    +0.000 A 
ATOM      5  O   UNL     1       3.033   6.499  19.357  0.00  0.00    +0.000 OA
ENDROOT
BRANCH   1  10
ATOM      6  C   UNL     1       6.469   5.944  16.818  0.00  0.00    +0.000 A 
ATOM      7  C   UNL     1       6.361   4.904  15.892  0.00  0.00    +0.000 A 
ATOM      8  C   UNL     1       5.316   3.987  15.976  0.00  0.00    +0.000 A 
ATOM      9  C   UNL     1       4.373   4.107  16.994  0.00  0.00    +0.000 A 
ATOM     10  C   UNL     1       4.460   5.145  17.933  0.00  0.00    +0.000 A 
ATOM     11  C   UNL     1       5.519   6.060  17.837  0.00  0.00    +0.000 A 
BRANCH   6  13
ATOM     12  C   UNL     1       7.726   7.805  17.591  0.00  0.00    +0.000 C 
ATOM     13  O   UNL     1       7.533   6.782  16.620  0.00  0.00    +0.000 OA
ENDBRANCH   6  13
ENDBRANCH   1  10
BRANCH   4  14
ATOM     14  C   UNL     1       1.241   7.174  20.951  0.00  0.00    +0.000 C 
ATOM     15  C   UNL     1       1.484   8.493  20.939  0.00  0.00    +0.000 C 
BRANCH  15  16
ATOM     16  C   UNL     1       0.622   9.396  21.636  0.00  0.00    +0.000 A 
ATOM     17  C   UNL     1      -0.200   9.190  22.739  0.00  0.00    +0.000 A 
ATOM     18  C   UNL     1      -0.931  10.348  23.131  0.00  0.00    +0.000 A 
ATOM     19  C   UNL     1      -0.637  11.408  22.316  0.00  0.00    +0.000 A 
ATOM     20 BR   UNL     1      -1.415  13.101  22.514  0.00  0.00    +0.000 Br
ATOM     21  S   UNL     1       0.493  11.038  21.112  0.00  0.00    +0.000 S 
ENDBRANCH  15  16
ENDBRANCH   4  14
TORSDOF 4
ENDMDL
MODEL 7
REMARK VINA RESULT:      -7.2      2.855      3.996
REMARK  Name = 
REMARK  5 active torsions:
REMARK  status: ('A' for Active; 'I' for Inactive)
REMARK    1  A    between atoms: C_1  and  O_2
REMARK    2  A    between atoms: O_2  and  C_3
REMARK    3  A    between atoms: C_7  and  C_8
REMARK    4  A    between atoms: C_11  and  C_12
REMARK    5  A    between atoms: C_13  and  C_14
REMARK                            x       y       z     vdW  Elec       q    Type
REMARK                         _______ _______ _______ _____ _____    ______ ____
ROOT
ATOM      1  C   UNL     1       7.332   6.367  17.255  0.00  0.00    +0.000 A 
ATOM      2  N   UNL     1       7.844   6.125  18.443  0.00  0.00    +0.000 NA
ATOM      3  N   UNL     1       8.349   7.316  18.894  0.00  0.00    +0.000 NA
ATOM      4  C   UNL     1       8.122   8.236  17.968  0.00  0.00    +0.000 A 
ATOM      5  O   UNL     1       7.482   7.674  16.876  0.00  0.00    +0.000 OA
ENDROOT
BRANCH   1  10
ATOM      6  C   UNL     1       6.393   4.277  14.255  0.00  0.00    +0.000 A 
ATOM      7  C   UNL     1       5.178   3.744  14.693  0.00  0.00    +0.000 A 
ATOM      8  C   UNL     1       4.680   4.059  15.955  0.00  0.00    +0.000 A 
ATOM      9  C   UNL     1       5.401   4.912  16.788  0.00  0.00    +0.000 A 
ATOM     10  C   UNL     1       6.622   5.461  16.367  0.00  0.00    +0.000 A 
ATOM     11  C   UNL     1       7.111   5.132  15.094  0.00  0.00    +0.000 A 
BRANCH   6  13
ATOM     12  C   UNL     1       5.765   3.278  12.195  0.00  0.00    +0.000 C 
ATOM     13  O   UNL     1       6.766   3.898  12.994  0.00  0.00    +0.000 OA
ENDBRANCH   6  13
ENDBRANCH   1  10
BRANCH   4  14
ATOM     14  C   UNL     1       8.473   9.600  18.108  0.00  0.00    +0.000 C 
ATOM     15  C   UNL     1       9.286  10.070  19.065  0.00  0.00    +0.000 C 
BRANCH  15  16
ATOM     16  C   UNL     1       9.607  11.463  19.125  0.00  0.00    +0.000 A 
ATOM     17  C   UNL     1       9.756  12.400  18.107  0.00  0.00    +0.000 A 
ATOM     18  C   UNL     1      10.105  13.699  18.574  0.00  0.00    +0.000 A 
ATOM     19  C   UNL     1      10.204  13.716  19.940  0.00  0.00    +0.000 A 
ATOM     20 BR   UNL     1      10.659  15.249  20.917  0.00  0.00    +0.000 Br
ATOM     21  S   UNL     1       9.880  12.217  20.656  0.00  0.00    +0.000 S 
ENDBRANCH  15  16
ENDBRANCH   4  14
TORSDOF 4
ENDMDL
MODEL 8
REMARK VINA RESULT:      -7.1      1.982      2.963
REMARK  Name = 
REMARK  5 active torsions:
REMARK  status: ('A' for Active; 'I' for Inactive)
REMARK    1  A    between atoms: C_1  and  O_2
REMARK    2  A    between atoms: O_2  and  C_3
REMARK    3  A    between atoms: C_7  and  C_8
REMARK    4  A    between atoms: C_11  and  C_12
REMARK    5  A    between atoms: C_13  and  C_14
REMARK                            x       y       z     vdW  Elec       q    Type
REMARK                         _______ _______ _______ _____ _____    ______ ____
ROOT
ATOM      1  C   UNL     1       7.409   6.748  17.528  0.00  0.00    +0.000 A 
ATOM      2  N   UNL     1       8.109   6.700  18.641  0.00  0.00    +0.000 NA
ATOM      3  N   UNL     1       8.551   7.976  18.873  0.00  0.00    +0.000 NA
ATOM      4  C   UNL     1       8.100   8.751  17.897  0.00  0.00    +0.000 A 
ATOM      5  O   UNL     1       7.369   8.006  16.987  0.00  0.00    +0.000 OA
ENDROOT
BRANCH   1  10
ATOM      6  C   UNL     1       4.906   4.011  16.824  0.00  0.00    +0.000 A 
ATOM      7  C   UNL     1       5.327   3.608  15.555  0.00  0.00    +0.000 A 
ATOM      8  C   UNL     1       6.410   4.230  14.937  0.00  0.00    +0.000 A 
ATOM      9  C   UNL     1       7.076   5.264  15.591  0.00  0.00    +0.000 A 
ATOM     10  C   UNL     1       6.673   5.683  16.867  0.00  0.00    +0.000 A 
ATOM     11  C   UNL     1       5.579   5.048  17.475  0.00  0.00    +0.000 A 
BRANCH   6  13
ATOM     12  C   UNL     1       3.647   3.371  18.732  0.00  0.00    +0.000 C 
ATOM     13  O   UNL     1       3.839   3.315  17.324  0.00  0.00    +0.000 OA
ENDBRANCH   6  13
ENDBRANCH   1  10
BRANCH   4  14
ATOM     14  C   UNL     1       8.327  10.147  17.828  0.00  0.00    +0.000 C 
ATOM     15  C   UNL     1       9.469  10.740  18.208  0.00  0.00    +0.000 C 
BRANCH  15  16
ATOM     16  C   UNL     1       9.625  12.156  18.087  0.00  0.00    +0.000 A 
ATOM     17  C   UNL     1       8.739  13.190  18.371  0.00  0.00    +0.000 A 
ATOM     18  C   UNL     1       9.264  14.485  18.094  0.00  0.00    +0.000 A 
ATOM     19  C   UNL     1      10.543  14.399  17.614  0.00  0.00    +0.000 A 
ATOM     20 BR   UNL     1      11.558  15.896  17.126  0.00  0.00    +0.000 Br
ATOM     21  S   UNL     1      11.114  12.810  17.501  0.00  0.00    +0.000 S 
ENDBRANCH  15  16
ENDBRANCH   4  14
TORSDOF 4
ENDMDL
MODEL 9
REMARK VINA RESULT:      -7.1      0.995      1.070
REMARK  Name = 
REMARK  5 active torsions:
REMARK  status: ('A' for Active; 'I' for Inactive)
REMARK    1  A    between atoms: C_1  and  O_2
REMARK    2  A    between atoms: O_2  and  C_3
REMARK    3  A    between atoms: C_7  and  C_8
REMARK    4  A    between atoms: C_11  and  C_12
REMARK    5  A    between atoms: C_13  and  C_14
REMARK                            x       y       z     vdW  Elec       q    Type
REMARK                         _______ _______ _______ _____ _____    ______ ____
ROOT
ATOM      1  C   UNL     1       5.926   6.181  17.627  0.00  0.00    +0.000 A 
ATOM      2  N   UNL     1       6.900   5.771  16.844  0.00  0.00    +0.000 NA
ATOM      3  N   UNL     1       7.781   6.816  16.745  0.00  0.00    +0.000 NA
ATOM      4  C   UNL     1       7.313   7.818  17.475  0.00  0.00    +0.000 A 
ATOM      5  O   UNL     1       6.105   7.470  18.055  0.00  0.00    +0.000 OA
ENDROOT
BRANCH   1  10
ATOM      6  C   UNL     1       3.749   3.712  19.476  0.00  0.00    +0.000 A 
ATOM      7  C   UNL     1       2.498   4.037  18.945  0.00  0.00    +0.000 A 
ATOM      8  C   UNL     1       2.371   5.055  18.003  0.00  0.00    +0.000 A 
ATOM      9  C   UNL     1       3.501   5.755  17.588  0.00  0.00    +0.000 A 
ATOM     10  C   UNL     1       4.767   5.444  18.104  0.00  0.00    +0.000 A 
ATOM     11  C   UNL     1       4.879   4.418  19.054  0.00  0.00    +0.000 A 
BRANCH   6  13
ATOM     12  C   UNL     1       2.669   2.679  21.321  0.00  0.00    +0.000 C 
ATOM     13  O   UNL     1       3.740   2.688  20.384  0.00  0.00    +0.000 OA
ENDBRANCH   6  13
ENDBRANCH   1  10
BRANCH   4  14
ATOM     14  C   UNL     1       7.983   9.054  17.641  0.00  0.00    +0.000 C 
ATOM     15  C   UNL     1       8.723   9.367  18.715  0.00  0.00    +0.000 C 
BRANCH  15  16
ATOM     16  C   UNL     1       9.385  10.632  18.796  0.00  0.00    +0.000 A 
ATOM     17  C   UNL     1      10.489  11.027  19.546  0.00  0.00    +0.000 A 
ATOM     18  C   UNL     1      10.839  12.396  19.369  0.00  0.00    +0.000 A 
ATOM     19  C   UNL     1       9.993  13.004  18.480  0.00  0.00    +0.000 A 
ATOM     20 BR   UNL     1      10.132  14.810  18.003  0.00  0.00    +0.000 Br
ATOM     21  S   UNL     1       8.809  11.966  17.860  0.00  0.00    +0.000 S 
ENDBRANCH  15  16
ENDBRANCH   4  14
TORSDOF 4
ENDMDL
