MODEL 1
REMARK VINA RESULT:      -8.2      0.000      0.000
REMARK  Name = 
REMARK  6 active torsions:
REMARK  status: ('A' for Active; 'I' for Inactive)
REMARK    1  A    between atoms: C_1  and  S_2
REMARK    2  A    between atoms: S_2  and  C_5
REMARK    3  A    between atoms: C_11  and  C_12
REMARK    4  A    between atoms: C_17  and  O_18
REMARK    5  A    between atoms: O_18  and  C_19
REMARK    6  A    between atoms: C_19  and  C_20
REMARK                            x       y       z     vdW  Elec       q    Type
REMARK                         _______ _______ _______ _____ _____    ______ ____
ROOT
ATOM      1  C   UNL     1       1.641   8.839  19.492  0.00  0.00    +0.000 A 
ATOM      2  C   UNL     1       2.242   9.094  18.262  0.00  0.00    +0.000 A 
ATOM      3  C   UNL     1       2.909   8.056  17.608  0.00  0.00    +0.000 A 
ATOM      4  C   UNL     1       2.896   6.786  18.183  0.00  0.00    +0.000 A 
ATOM      5  N   UNL     1       3.563   5.723  17.499  0.00  0.00    +0.000 N 
ATOM      6  N   UNL     1       4.622   5.973  16.672  0.00  0.00    +0.000 NA
ATOM      7  C   UNL     1       5.132   4.759  16.389  0.00  0.00    +0.000 A 
ATOM      8  C   UNL     1       4.302   3.729  16.903  0.00  0.00    +0.000 A 
ATOM      9  C   UNL     1       3.297   4.364  17.600  0.00  0.00    +0.000 A 
ATOM     10  N   UNL     1       2.285   6.527  19.375  0.00  0.00    +0.000 NA
ATOM     11  C   UNL     1       1.677   7.557  20.008  0.00  0.00    +0.000 A 
ENDROOT
BRANCH   1  13
ATOM     12  C   UNL     1       1.227  11.597  19.523  0.00  0.00    +0.000 C 
ATOM     13  S   UNL     1       0.750  10.097  20.344  0.00  0.00    +0.000 S 
ATOM     14  O   UNL     1       1.255  10.150  21.698  0.00  0.00    +0.000 OA
ATOM     15  O   UNL     1      -0.660   9.875  20.083  0.00  0.00    +0.000 OA
ENDBRANCH   1  13
BRANCH   7  16
ATOM     16  C   UNL     1       6.409   4.554  15.617  0.00  0.00    +0.000 C 
ATOM     17  F   UNL     1       6.710   5.581  14.776  0.00  0.00    +0.000 F 
ATOM     18  F   UNL     1       7.474   4.413  16.453  0.00  0.00    +0.000 F 
ATOM     19  F   UNL     1       6.365   3.426  14.858  0.00  0.00    +0.000 F 
ENDBRANCH   7  16
BRANCH   9  20
ATOM     20  O   UNL     1       2.199   3.928  18.226  0.00  0.00    +0.000 OA
BRANCH  20  21
ATOM     21  C   UNL     1       2.093   2.524  18.426  0.00  0.00    +0.000 C 
BRANCH  21  22
ATOM     22  C   UNL     1       1.828   2.286  19.905  0.00  0.00    +0.000 C 
ATOM     23  C   UNL     1       3.012   2.614  20.850  0.00  0.00    +0.000 C 
ATOM     24  C   UNL     1       1.968   3.103  21.873  0.00  0.00    +0.000 C 
ATOM     25  C   UNL     1       1.022   3.362  20.682  0.00  0.00    +0.000 C 
ENDBRANCH  21  22
ENDBRANCH  20  21
ENDBRANCH   9  20
TORSDOF 5
ENDMDL
MODEL 2
REMARK VINA RESULT:      -8.1      0.799      1.432
REMARK  Name = 
REMARK  6 active torsions:
REMARK  status: ('A' for Active; 'I' for Inactive)
REMARK    1  A    between atoms: C_1  and  S_2
REMARK    2  A    between atoms: S_2  and  C_5
REMARK    3  A    between atoms: C_11  and  C_12
REMARK    4  A    between atoms: C_17  and  O_18
REMARK    5  A    between atoms: O_18  and  C_19
REMARK    6  A    between atoms: C_19  and  C_20
REMARK                            x       y       z     vdW  Elec       q    Type
REMARK                         _______ _______ _______ _____ _____    ______ ____
ROOT
ATOM      1  C   UNL     1       1.432   8.711  19.794  0.00  0.00    +0.000 A 
ATOM      2  C   UNL     1       1.997   9.097  18.580  0.00  0.00    +0.000 A 
ATOM      3  C   UNL     1       2.734   8.163  17.851  0.00  0.00    +0.000 A 
ATOM      4  C   UNL     1       2.828   6.859  18.335  0.00  0.00    +0.000 A 
ATOM      5  N   UNL     1       3.567   5.901  17.574  0.00  0.00    +0.000 N 
ATOM      6  N   UNL     1       4.593   6.291  16.759  0.00  0.00    +0.000 NA
ATOM      7  C   UNL     1       5.193   5.143  16.388  0.00  0.00    +0.000 A 
ATOM      8  C   UNL     1       4.452   4.018  16.834  0.00  0.00    +0.000 A 
ATOM      9  C   UNL     1       3.410   4.522  17.581  0.00  0.00    +0.000 A 
ATOM     10  N   UNL     1       2.254   6.470  19.510  0.00  0.00    +0.000 NA
ATOM     11  C   UNL     1       1.575   7.403  20.218  0.00  0.00    +0.000 A 
ENDROOT
BRANCH   1  13
ATOM     12  C   UNL     1      -0.405   8.792  21.891  0.00  0.00    +0.000 C 
ATOM     13  S   UNL     1       0.456   9.832  20.738  0.00  0.00    +0.000 S 
ATOM     14  O   UNL     1      -0.522  10.417  19.848  0.00  0.00    +0.000 OA
ATOM     15  O   UNL     1       1.372  10.669  21.491  0.00  0.00    +0.000 OA
ENDBRANCH   1  13
BRANCH   7  16
ATOM     16  C   UNL     1       6.473   5.094  15.595  0.00  0.00    +0.000 C 
ATOM     17  F   UNL     1       7.037   3.857  15.546  0.00  0.00    +0.000 F 
ATOM     18  F   UNL     1       6.269   5.479  14.306  0.00  0.00    +0.000 F 
ATOM     19  F   UNL     1       7.414   5.934  16.103  0.00  0.00    +0.000 F 
ENDBRANCH   7  16
BRANCH   9  20
ATOM     20  O   UNL     1       2.357   3.959  18.183  0.00  0.00    +0.000 OA
BRANCH  20  21
ATOM     21  C   UNL     1       2.402   2.548  18.360  0.00  0.00    +0.000 C 
BRANCH  21  22
ATOM     22  C   UNL     1       1.982   2.248  19.791  0.00  0.00    +0.000 C 
ATOM     23  C   UNL     1       2.978   2.714  20.884  0.00  0.00    +0.000 C 
ATOM     24  C   UNL     1       1.753   3.039  21.762  0.00  0.00    +0.000 C 
ATOM     25  C   UNL     1       0.943   3.190  20.458  0.00  0.00    +0.000 C 
ENDBRANCH  21  22
ENDBRANCH  20  21
ENDBRANCH   9  20
TORSDOF 5
ENDMDL
MODEL 3
REMARK VINA RESULT:      -7.9      1.419      2.023
REMARK  Name = 
REMARK  6 active torsions:
REMARK  status: ('A' for Active; 'I' for Inactive)
REMARK    1  A    between atoms: C_1  and  S_2
REMARK    2  A    between atoms: S_2  and  C_5
REMARK    3  A    between atoms: C_11  and  C_12
REMARK    4  A    between atoms: C_17  and  O_18
REMARK    5  A    between atoms: O_18  and  C_19
REMARK    6  A    between atoms: C_19  and  C_20
REMARK                            x       y       z     vdW  Elec       q    Type
REMARK                         _______ _______ _______ _____ _____    ______ ____
ROOT
ATOM      1  C   UNL     1       1.076   9.228  19.071  0.00  0.00    +0.000 A 
ATOM      2  C   UNL     1       1.676   9.023  17.831  0.00  0.00    +0.000 A 
ATOM      3  C   UNL     1       2.642   8.024  17.705  0.00  0.00    +0.000 A 
ATOM      4  C   UNL     1       2.928   7.225  18.811  0.00  0.00    +0.000 A 
ATOM      5  N   UNL     1       3.903   6.190  18.670  0.00  0.00    +0.000 N 
ATOM      6  N   UNL     1       4.915   6.297  17.757  0.00  0.00    +0.000 NA
ATOM      7  C   UNL     1       5.751   5.282  18.050  0.00  0.00    +0.000 A 
ATOM      8  C   UNL     1       5.191   4.435  19.041  0.00  0.00    +0.000 A 
ATOM      9  C   UNL     1       4.004   5.026  19.418  0.00  0.00    +0.000 A 
ATOM     10  N   UNL     1       2.322   7.405  20.020  0.00  0.00    +0.000 NA
ATOM     11  C   UNL     1       1.416   8.404  20.129  0.00  0.00    +0.000 A 
ENDROOT
BRANCH   1  13
ATOM     12  C   UNL     1       0.638  11.978  18.918  0.00  0.00    +0.000 C 
ATOM     13  S   UNL     1      -0.180  10.444  19.283  0.00  0.00    +0.000 S 
ATOM     14  O   UNL     1      -0.546  10.456  20.682  0.00  0.00    +0.000 OA
ATOM     15  O   UNL     1      -1.176  10.216  18.254  0.00  0.00    +0.000 OA
ENDBRANCH   1  13
BRANCH   7  16
ATOM     16  C   UNL     1       7.090   5.091  17.386  0.00  0.00    +0.000 C 
ATOM     17  F   UNL     1       8.058   4.641  18.229  0.00  0.00    +0.000 F 
ATOM     18  F   UNL     1       7.012   4.190  16.369  0.00  0.00    +0.000 F 
ATOM     19  F   UNL     1       7.551   6.248  16.840  0.00  0.00    +0.000 F 
ENDBRANCH   7  16
BRANCH   9  20
ATOM     20  O   UNL     1       3.020   4.659  20.246  0.00  0.00    +0.000 OA
BRANCH  20  21
ATOM     21  C   UNL     1       3.131   3.370  20.837  0.00  0.00    +0.000 C 
BRANCH  21  22
ATOM     22  C   UNL     1       1.983   2.520  20.313  0.00  0.00    +0.000 C 
ATOM     23  C   UNL     1       0.739   3.311  19.835  0.00  0.00    +0.000 C 
ATOM     24  C   UNL     1       0.573   2.248  18.732  0.00  0.00    +0.000 C 
ATOM     25  C   UNL     1       2.086   1.974  18.863  0.00  0.00    +0.000 C 
ENDBRANCH  21  22
ENDBRANCH  20  21
ENDBRANCH   9  20
TORSDOF 5
ENDMDL
MODEL 4
REMARK VINA RESULT:      -7.8      3.351      4.974
REMARK  Name = 
REMARK  6 active torsions:
REMARK  status: ('A' for Active; 'I' for Inactive)
REMARK    1  A    between atoms: C_1  and  S_2
REMARK    2  A    between atoms: S_2  and  C_5
REMARK    3  A    between atoms: C_11  and  C_12
REMARK    4  A    between atoms: C_17  and  O_18
REMARK    5  A    between atoms: O_18  and  C_19
REMARK    6  A    between atoms: C_19  and  C_20
REMARK                            x       y       z     vdW  Elec       q    Type
REMARK                         _______ _______ _______ _____ _____    ______ ____
ROOT
ATOM      1  C   UNL     1       1.098  10.046  19.361  0.00  0.00    +0.000 A 
ATOM      2  C   UNL     1       0.968   9.413  20.595  0.00  0.00    +0.000 A 
ATOM      3  C   UNL     1       1.428   8.102  20.733  0.00  0.00    +0.000 A 
ATOM      4  C   UNL     1       2.058   7.496  19.646  0.00  0.00    +0.000 A 
ATOM      5  N   UNL     1       2.546   6.162  19.799  0.00  0.00    +0.000 N 
ATOM      6  N   UNL     1       1.968   5.299  20.688  0.00  0.00    +0.000 NA
ATOM      7  C   UNL     1       2.516   4.100  20.410  0.00  0.00    +0.000 A 
ATOM      8  C   UNL     1       3.559   4.230  19.457  0.00  0.00    +0.000 A 
ATOM      9  C   UNL     1       3.571   5.557  19.086  0.00  0.00    +0.000 A 
ATOM     10  N   UNL     1       2.211   8.123  18.444  0.00  0.00    +0.000 NA
ATOM     11  C   UNL     1       1.723   9.381  18.323  0.00  0.00    +0.000 A 
ENDROOT
BRANCH   1  13
ATOM     12  C   UNL     1       0.404  12.339  20.791  0.00  0.00    +0.000 C 
ATOM     13  S   UNL     1       0.574  11.713  19.138  0.00  0.00    +0.000 S 
ATOM     14  O   UNL     1      -0.741  11.681  18.536  0.00  0.00    +0.000 OA
ATOM     15  O   UNL     1       1.667  12.424  18.503  0.00  0.00    +0.000 OA
ENDBRANCH   1  13
BRANCH   7  16
ATOM     16  C   UNL     1       2.068   2.813  21.052  0.00  0.00    +0.000 C 
ATOM     17  F   UNL     1       2.999   2.261  21.876  0.00  0.00    +0.000 F 
ATOM     18  F   UNL     1       0.948   3.000  21.802  0.00  0.00    +0.000 F 
ATOM     19  F   UNL     1       1.755   1.869  20.124  0.00  0.00    +0.000 F 
ENDBRANCH   7  16
BRANCH   9  20
ATOM     20  O   UNL     1       4.368   6.279  18.291  0.00  0.00    +0.000 OA
BRANCH  20  21
ATOM     21  C   UNL     1       5.011   5.583  17.230  0.00  0.00    +0.000 C 
BRANCH  21  22
ATOM     22  C   UNL     1       6.502   5.869  17.326  0.00  0.00    +0.000 C 
ATOM     23  C   UNL     1       6.882   7.367  17.435  0.00  0.00    +0.000 C 
ATOM     24  C   UNL     1       8.026   6.936  18.374  0.00  0.00    +0.000 C 
ATOM     25  C   UNL     1       7.191   5.682  18.705  0.00  0.00    +0.000 C 
ENDBRANCH  21  22
ENDBRANCH  20  21
ENDBRANCH   9  20
TORSDOF 5
ENDMDL
MODEL 5
REMARK VINA RESULT:      -7.8      2.748      4.608
REMARK  Name = 
REMARK  6 active torsions:
REMARK  status: ('A' for Active; 'I' for Inactive)
REMARK    1  A    between atoms: C_1  and  S_2
REMARK    2  A    between atoms: S_2  and  C_5
REMARK    3  A    between atoms: C_11  and  C_12
REMARK    4  A    between atoms: C_17  and  O_18
REMARK    5  A    between atoms: O_18  and  C_19
REMARK    6  A    between atoms: C_19  and  C_20
REMARK                            x       y       z     vdW  Elec       q    Type
REMARK                         _______ _______ _______ _____ _____    ______ ____
ROOT
ATOM      1  C   UNL     1       1.271   9.681  19.654  0.00  0.00    +0.000 A 
ATOM      2  C   UNL     1       1.253   8.730  20.672  0.00  0.00    +0.000 A 
ATOM      3  C   UNL     1       1.643   7.422  20.381  0.00  0.00    +0.000 A 
ATOM      4  C   UNL     1       2.095   7.129  19.095  0.00  0.00    +0.000 A 
ATOM      5  N   UNL     1       2.513   5.792  18.809  0.00  0.00    +0.000 N 
ATOM      6  N   UNL     1       1.994   4.731  19.496  0.00  0.00    +0.000 NA
ATOM      7  C   UNL     1       2.427   3.644  18.828  0.00  0.00    +0.000 A 
ATOM      8  C   UNL     1       3.352   4.008  17.815  0.00  0.00    +0.000 A 
ATOM      9  C   UNL     1       3.403   5.385  17.825  0.00  0.00    +0.000 A 
ATOM     10  N   UNL     1       2.140   8.064  18.103  0.00  0.00    +0.000 NA
ATOM     11  C   UNL     1       1.722   9.317  18.399  0.00  0.00    +0.000 A 
ENDROOT
BRANCH   1  13
ATOM     12  C   UNL     1      -0.926  11.398  19.714  0.00  0.00    +0.000 C 
ATOM     13  S   UNL     1       0.831  11.357  19.970  0.00  0.00    +0.000 S 
ATOM     14  O   UNL     1       1.449  12.171  18.947  0.00  0.00    +0.000 OA
ATOM     15  O   UNL     1       1.082  11.609  21.376  0.00  0.00    +0.000 OA
ENDBRANCH   1  13
BRANCH   7  16
ATOM     16  C   UNL     1       1.980   2.241  19.146  0.00  0.00    +0.000 C 
ATOM     17  F   UNL     1       2.874   1.285  18.774  0.00  0.00    +0.000 F 
ATOM     18  F   UNL     1       1.773   2.080  20.481  0.00  0.00    +0.000 F 
ATOM     19  F   UNL     1       0.803   1.936  18.536  0.00  0.00    +0.000 F 
ENDBRANCH   7  16
BRANCH   9  20
ATOM     20  O   UNL     1       4.141   6.279  17.159  0.00  0.00    +0.000 OA
BRANCH  20  21
ATOM     21  C   UNL     1       5.507   6.392  17.540  0.00  0.00    +0.000 C 
BRANCH  21  22
ATOM     22  C   UNL     1       6.355   5.961  16.353  0.00  0.00    +0.000 C 
ATOM     23  C   UNL     1       7.022   4.568  16.489  0.00  0.00    +0.000 C 
ATOM     24  C   UNL     1       6.787   4.386  14.976  0.00  0.00    +0.000 C 
ATOM     25  C   UNL     1       5.626   5.395  15.104  0.00  0.00    +0.000 C 
ENDBRANCH  21  22
ENDBRANCH  20  21
ENDBRANCH   9  20
TORSDOF 5
ENDMDL
MODEL 6
REMARK VINA RESULT:      -7.8      2.642      4.522
REMARK  Name = 
REMARK  6 active torsions:
REMARK  status: ('A' for Active; 'I' for Inactive)
REMARK    1  A    between atoms: C_1  and  S_2
REMARK    2  A    between atoms: S_2  and  C_5
REMARK    3  A    between atoms: C_11  and  C_12
REMARK    4  A    between atoms: C_17  and  O_18
REMARK    5  A    between atoms: O_18  and  C_19
REMARK    6  A    between atoms: C_19  and  C_20
REMARK                            x       y       z     vdW  Elec       q    Type
REMARK                         _______ _______ _______ _____ _____    ______ ____
ROOT
ATOM      1  C   UNL     1       1.237   9.692  19.712  0.00  0.00    +0.000 A 
ATOM      2  C   UNL     1       1.223   8.729  20.718  0.00  0.00    +0.000 A 
ATOM      3  C   UNL     1       1.628   7.428  20.414  0.00  0.00    +0.000 A 
ATOM      4  C   UNL     1       2.091   7.155  19.128  0.00  0.00    +0.000 A 
ATOM      5  N   UNL     1       2.525   5.827  18.828  0.00  0.00    +0.000 N 
ATOM      6  N   UNL     1       2.013   4.751  19.499  0.00  0.00    +0.000 NA
ATOM      7  C   UNL     1       2.462   3.677  18.821  0.00  0.00    +0.000 A 
ATOM      8  C   UNL     1       3.389   4.063  17.819  0.00  0.00    +0.000 A 
ATOM      9  C   UNL     1       3.426   5.440  17.845  0.00  0.00    +0.000 A 
ATOM     10  N   UNL     1       2.132   8.102  18.147  0.00  0.00    +0.000 NA
ATOM     11  C   UNL     1       1.699   9.347  18.455  0.00  0.00    +0.000 A 
ENDROOT
BRANCH   1  13
ATOM     12  C   UNL     1       1.614  12.297  18.791  0.00  0.00    +0.000 C 
ATOM     13  S   UNL     1       0.777  11.358  20.045  0.00  0.00    +0.000 S 
ATOM     14  O   UNL     1       1.343  11.721  21.326  0.00  0.00    +0.000 OA
ATOM     15  O   UNL     1      -0.649  11.466  19.804  0.00  0.00    +0.000 OA
ENDBRANCH   1  13
BRANCH   7  16
ATOM     16  C   UNL     1       2.028   2.266  19.119  0.00  0.00    +0.000 C 
ATOM     17  F   UNL     1       0.844   1.925  18.541  0.00  0.00    +0.000 F 
ATOM     18  F   UNL     1       2.948   1.364  18.682  0.00  0.00    +0.000 F 
ATOM     19  F   UNL     1       1.887   2.053  20.456  0.00  0.00    +0.000 F 
ENDBRANCH   7  16
BRANCH   9  20
ATOM     20  O   UNL     1       4.157   6.350  17.194  0.00  0.00    +0.000 OA
BRANCH  20  21
ATOM     21  C   UNL     1       5.534   6.429  17.541  0.00  0.00    +0.000 C 
BRANCH  21  22
ATOM     22  C   UNL     1       6.342   5.950  16.344  0.00  0.00    +0.000 C 
ATOM     23  C   UNL     1       6.915   4.515  16.466  0.00  0.00    +0.000 C 
ATOM     24  C   UNL     1       6.654   4.358  14.955  0.00  0.00    +0.000 C 
ATOM     25  C   UNL     1       5.565   5.441  15.099  0.00  0.00    +0.000 C 
ENDBRANCH  21  22
ENDBRANCH  20  21
ENDBRANCH   9  20
TORSDOF 5
ENDMDL
MODEL 7
REMARK VINA RESULT:      -7.8      3.141      4.861
REMARK  Name = 
REMARK  6 active torsions:
REMARK  status: ('A' for Active; 'I' for Inactive)
REMARK    1  A    between atoms: C_1  and  S_2
REMARK    2  A    between atoms: S_2  and  C_5
REMARK    3  A    between atoms: C_11  and  C_12
REMARK    4  A    between atoms: C_17  and  O_18
REMARK    5  A    between atoms: O_18  and  C_19
REMARK    6  A    between atoms: C_19  and  C_20
REMARK                            x       y       z     vdW  Elec       q    Type
REMARK                         _______ _______ _______ _____ _____    ______ ____
ROOT
ATOM      1  C   UNL     1       1.006  10.047  19.497  0.00  0.00    +0.000 A 
ATOM      2  C   UNL     1       0.920   9.393  20.723  0.00  0.00    +0.000 A 
ATOM      3  C   UNL     1       1.398   8.085  20.827  0.00  0.00    +0.000 A 
ATOM      4  C   UNL     1       2.001   7.503  19.713  0.00  0.00    +0.000 A 
ATOM      5  N   UNL     1       2.507   6.172  19.830  0.00  0.00    +0.000 N 
ATOM      6  N   UNL     1       1.965   5.289  20.721  0.00  0.00    +0.000 NA
ATOM      7  C   UNL     1       2.518   4.101  20.409  0.00  0.00    +0.000 A 
ATOM      8  C   UNL     1       3.530   4.257  19.427  0.00  0.00    +0.000 A 
ATOM      9  C   UNL     1       3.518   5.590  19.077  0.00  0.00    +0.000 A 
ATOM     10  N   UNL     1       2.112   8.151  18.517  0.00  0.00    +0.000 NA
ATOM     11  C   UNL     1       1.607   9.405  18.431  0.00  0.00    +0.000 A 
ENDROOT
BRANCH   1  13
ATOM     12  C   UNL     1       1.830  12.537  18.547  0.00  0.00    +0.000 C 
ATOM     13  S   UNL     1       0.458  11.711  19.316  0.00  0.00    +0.000 S 
ATOM     14  O   UNL     1       0.292  12.264  20.642  0.00  0.00    +0.000 OA
ATOM     15  O   UNL     1      -0.641  11.700  18.370  0.00  0.00    +0.000 OA
ENDBRANCH   1  13
BRANCH   7  16
ATOM     16  C   UNL     1       2.102   2.799  21.043  0.00  0.00    +0.000 C 
ATOM     17  F   UNL     1       3.062   2.246  21.832  0.00  0.00    +0.000 F 
ATOM     18  F   UNL     1       1.001   2.962  21.826  0.00  0.00    +0.000 F 
ATOM     19  F   UNL     1       1.775   1.866  20.109  0.00  0.00    +0.000 F 
ENDBRANCH   7  16
BRANCH   9  20
ATOM     20  O   UNL     1       4.283   6.333  18.271  0.00  0.00    +0.000 OA
BRANCH  20  21
ATOM     21  C   UNL     1       5.534   5.777  17.886  0.00  0.00    +0.000 C 
BRANCH  21  22
ATOM     22  C   UNL     1       5.471   5.482  16.395  0.00  0.00    +0.000 C 
ATOM     23  C   UNL     1       6.832   5.163  15.726  0.00  0.00    +0.000 C 
ATOM     24  C   UNL     1       6.079   4.156  14.835  0.00  0.00    +0.000 C 
ATOM     25  C   UNL     1       5.018   4.064  15.952  0.00  0.00    +0.000 C 
ENDBRANCH  21  22
ENDBRANCH  20  21
ENDBRANCH   9  20
TORSDOF 5
ENDMDL
MODEL 8
REMARK VINA RESULT:      -7.8      3.232      5.043
REMARK  Name = 
REMARK  6 active torsions:
REMARK  status: ('A' for Active; 'I' for Inactive)
REMARK    1  A    between atoms: C_1  and  S_2
REMARK    2  A    between atoms: S_2  and  C_5
REMARK    3  A    between atoms: C_11  and  C_12
REMARK    4  A    between atoms: C_17  and  O_18
REMARK    5  A    between atoms: O_18  and  C_19
REMARK    6  A    between atoms: C_19  and  C_20
REMARK                            x       y       z     vdW  Elec       q    Type
REMARK                         _______ _______ _______ _____ _____    ______ ____
ROOT
ATOM      1  C   UNL     1       1.050  10.011  19.343  0.00  0.00    +0.000 A 
ATOM      2  C   UNL     1       0.945   9.397  20.589  0.00  0.00    +0.000 A 
ATOM      3  C   UNL     1       1.410   8.090  20.740  0.00  0.00    +0.000 A 
ATOM      4  C   UNL     1       2.020   7.467  19.652  0.00  0.00    +0.000 A 
ATOM      5  N   UNL     1       2.512   6.136  19.818  0.00  0.00    +0.000 N 
ATOM      6  N   UNL     1       1.952   5.287  20.732  0.00  0.00    +0.000 NA
ATOM      7  C   UNL     1       2.497   4.085  20.464  0.00  0.00    +0.000 A 
ATOM      8  C   UNL     1       3.522   4.200  19.489  0.00  0.00    +0.000 A 
ATOM      9  C   UNL     1       3.525   5.520  19.096  0.00  0.00    +0.000 A 
ATOM     10  N   UNL     1       2.149   8.074  18.438  0.00  0.00    +0.000 NA
ATOM     11  C   UNL     1       1.657   9.329  18.305  0.00  0.00    +0.000 A 
ENDROOT
BRANCH   1  13
ATOM     12  C   UNL     1       0.315  12.305  20.749  0.00  0.00    +0.000 C 
ATOM     13  S   UNL     1       0.520  11.673  19.102  0.00  0.00    +0.000 S 
ATOM     14  O   UNL     1      -0.783  11.629  18.476  0.00  0.00    +0.000 OA
ATOM     15  O   UNL     1       1.620  12.389  18.484  0.00  0.00    +0.000 OA
ENDBRANCH   1  13
BRANCH   7  16
ATOM     16  C   UNL     1       2.063   2.808  21.135  0.00  0.00    +0.000 C 
ATOM     17  F   UNL     1       1.016   2.969  21.988  0.00  0.00    +0.000 F 
ATOM     18  F   UNL     1       1.680   1.875  20.221  0.00  0.00    +0.000 F 
ATOM     19  F   UNL     1       3.072   2.248  21.855  0.00  0.00    +0.000 F 
ENDBRANCH   7  16
BRANCH   9  20
ATOM     20  O   UNL     1       4.306   6.230  18.274  0.00  0.00    +0.000 OA
BRANCH  20  21
ATOM     21  C   UNL     1       5.624   5.739  18.062  0.00  0.00    +0.000 C 
BRANCH  21  22
ATOM     22  C   UNL     1       5.621   4.953  16.760  0.00  0.00    +0.000 C 
ATOM     23  C   UNL     1       5.420   5.801  15.477  0.00  0.00    +0.000 C 
ATOM     24  C   UNL     1       6.395   4.837  14.772  0.00  0.00    +0.000 C 
ATOM     25  C   UNL     1       6.991   4.531  16.162  0.00  0.00    +0.000 C 
ENDBRANCH  21  22
ENDBRANCH  20  21
ENDBRANCH   9  20
TORSDOF 5
ENDMDL
MODEL 9
REMARK VINA RESULT:      -7.8      3.171      4.895
REMARK  Name = 
REMARK  6 active torsions:
REMARK  status: ('A' for Active; 'I' for Inactive)
REMARK    1  A    between atoms: C_1  and  S_2
REMARK    2  A    between atoms: S_2  and  C_5
REMARK    3  A    between atoms: C_11  and  C_12
REMARK    4  A    between atoms: C_17  and  O_18
REMARK    5  A    between atoms: O_18  and  C_19
REMARK    6  A    between atoms: C_19  and  C_20
REMARK                            x       y       z     vdW  Elec       q    Type
REMARK                         _______ _______ _______ _____ _____    ______ ____
ROOT
ATOM      1  C   UNL     1       1.050   9.956  19.483  0.00  0.00    +0.000 A 
ATOM      2  C   UNL     1       0.960   9.306  20.712  0.00  0.00    +0.000 A 
ATOM      3  C   UNL     1       1.426   7.995  20.818  0.00  0.00    +0.000 A 
ATOM      4  C   UNL     1       2.022   7.404  19.705  0.00  0.00    +0.000 A 
ATOM      5  N   UNL     1       2.517   6.069  19.825  0.00  0.00    +0.000 N 
ATOM      6  N   UNL     1       1.968   5.194  20.720  0.00  0.00    +0.000 NA
ATOM      7  C   UNL     1       2.509   4.000  20.410  0.00  0.00    +0.000 A 
ATOM      8  C   UNL     1       3.522   4.144  19.426  0.00  0.00    +0.000 A 
ATOM      9  C   UNL     1       3.521   5.475  19.073  0.00  0.00    +0.000 A 
ATOM     10  N   UNL     1       2.137   8.048  18.507  0.00  0.00    +0.000 NA
ATOM     11  C   UNL     1       1.644   9.305  18.418  0.00  0.00    +0.000 A 
ENDROOT
BRANCH   1  13
ATOM     12  C   UNL     1      -0.998  11.495  18.381  0.00  0.00    +0.000 C 
ATOM     13  S   UNL     1       0.517  11.624  19.298  0.00  0.00    +0.000 S 
ATOM     14  O   UNL     1       1.486  12.303  18.465  0.00  0.00    +0.000 OA
ATOM     15  O   UNL     1       0.195  12.122  20.622  0.00  0.00    +0.000 OA
ENDBRANCH   1  13
BRANCH   7  16
ATOM     16  C   UNL     1       2.083   2.703  21.048  0.00  0.00    +0.000 C 
ATOM     17  F   UNL     1       3.032   2.153  21.852  0.00  0.00    +0.000 F 
ATOM     18  F   UNL     1       0.973   2.874  21.817  0.00  0.00    +0.000 F 
ATOM     19  F   UNL     1       1.764   1.764  20.118  0.00  0.00    +0.000 F 
ENDBRANCH   7  16
BRANCH   9  20
ATOM     20  O   UNL     1       4.291   6.209  18.263  0.00  0.00    +0.000 OA
BRANCH  20  21
ATOM     21  C   UNL     1       5.687   5.937  18.289  0.00  0.00    +0.000 C 
BRANCH  21  22
ATOM     22  C   UNL     1       6.129   5.644  16.863  0.00  0.00    +0.000 C 
ATOM     23  C   UNL     1       5.836   4.207  16.363  0.00  0.00    +0.000 C 
ATOM     24  C   UNL     1       5.558   4.821  14.977  0.00  0.00    +0.000 C 
ATOM     25  C   UNL     1       5.222   6.140  15.704  0.00  0.00    +0.000 C 
ENDBRANCH  21  22
ENDBRANCH  20  21
ENDBRANCH   9  20
TORSDOF 5
ENDMDL
