MODEL 1
REMARK VINA RESULT:      -5.0      0.000      0.000
REMARK  Name = 
REMARK  10 active torsions:
REMARK  status: ('A' for Active; 'I' for Inactive)
REMARK    1  A    between atoms: C_1  and  O_2
REMARK    2  A    between atoms: O_2  and  C_3
REMARK    3  A    between atoms: C_3  and  C_5
REMARK    4  A    between atoms: C_6  and  C_7
REMARK    5  A    between atoms: N_8  and  C_9
REMARK    6  A    between atoms: C_10  and  C_11
REMARK    7  A    between atoms: C_12  and  C_13
REMARK    8  A    between atoms: C_13  and  O_15
REMARK    9  A    between atoms: O_15  and  C_16
REMARK   10  A    between atoms: C_17  and  C_18
REMARK                            x       y       z     vdW  Elec       q    Type
REMARK                         _______ _______ _______ _____ _____    ______ ____
ROOT
ATOM      1  C   UNL     1      -1.892  12.343  21.390  0.00  0.00    +0.000 C 
ATOM      2  C   UNL     1      -1.879  12.047  20.062  0.00  0.00    +0.000 C 
ATOM      3  C   UNL     1      -0.596  11.800  19.281  0.00  0.00    +0.000 C 
ATOM      4  N   UNL     1      -3.092  11.987  19.319  0.00  0.00    +0.000 N 
ATOM      5  C   UNL     1      -3.116  11.390  17.964  0.00  0.00    +0.000 C 
ATOM      6  C   UNL     1      -4.305  12.479  19.875  0.00  0.00    +0.000 C 
ATOM      7  C   UNL     1      -5.503  12.656  18.954  0.00  0.00    +0.000 C 
ATOM      8  C   UNL     1      -4.397  12.784  21.200  0.00  0.00    +0.000 C 
ATOM      9  C   UNL     1      -3.201  12.628  22.135  0.00  0.00    +0.000 C 
ENDROOT
BRANCH   9  10
ATOM     10  C   UNL     1      -3.054  13.816  23.099  0.00  0.00    +0.000 A 
ATOM     11  C   UNL     1      -2.730  15.086  22.589  0.00  0.00    +0.000 A 
ATOM     12  C   UNL     1      -2.641  16.157  23.460  0.00  0.00    +0.000 A 
ATOM     13  N   UNL     1      -2.834  16.055  24.790  0.00  0.00    +0.000 NA
ATOM     14  C   UNL     1      -3.135  14.827  25.267  0.00  0.00    +0.000 A 
ATOM     15  C   UNL     1      -3.262  13.696  24.476  0.00  0.00    +0.000 A 
ENDBRANCH   9  10
BRANCH   1  16
ATOM     16  C   UNL     1      -0.634  12.421  22.191  0.00  0.00    +0.000 C 
ATOM     17  O   UNL     1       0.255  13.241  22.017  0.00  0.00    +0.000 OA
BRANCH  16  19
ATOM     18  C   UNL     1      -0.319  10.150  22.712  0.00  0.00    +0.000 C 
ATOM     19  O   UNL     1      -0.633  11.473  23.166  0.00  0.00    +0.000 OA
ENDBRANCH  16  19
ENDBRANCH   1  16
BRANCH   8  20
ATOM     20  C   UNL     1      -5.687  13.281  21.769  0.00  0.00    +0.000 C 
ATOM     21  O   UNL     1      -6.085  14.434  21.688  0.00  0.00    +0.000 OA
BRANCH  20  22
ATOM     22  O   UNL     1      -6.370  12.283  22.385  0.00  0.00    +0.000 OA
ATOM     23  C   UNL     1      -7.764  12.256  22.061  0.00  0.00    +0.000 C 
ENDBRANCH  20  22
ENDBRANCH   8  20
TORSDOF 5
ENDMDL
MODEL 2
REMARK VINA RESULT:      -4.9      2.805      5.586
REMARK  Name = 
REMARK  10 active torsions:
REMARK  status: ('A' for Active; 'I' for Inactive)
REMARK    1  A    between atoms: C_1  and  O_2
REMARK    2  A    between atoms: O_2  and  C_3
REMARK    3  A    between atoms: C_3  and  C_5
REMARK    4  A    between atoms: C_6  and  C_7
REMARK    5  A    between atoms: N_8  and  C_9
REMARK    6  A    between atoms: C_10  and  C_11
REMARK    7  A    between atoms: C_12  and  C_13
REMARK    8  A    between atoms: C_13  and  O_15
REMARK    9  A    between atoms: O_15  and  C_16
REMARK   10  A    between atoms: C_17  and  C_18
REMARK                            x       y       z     vdW  Elec       q    Type
REMARK                         _______ _______ _______ _____ _____    ______ ____
ROOT
ATOM      1  C   UNL     1      -1.348  12.996  20.329  0.00  0.00    +0.000 C 
ATOM      2  C   UNL     1      -2.530  13.442  20.833  0.00  0.00    +0.000 C 
ATOM      3  C   UNL     1      -2.628  14.270  22.107  0.00  0.00    +0.000 C 
ATOM      4  N   UNL     1      -3.762  13.118  20.195  0.00  0.00    +0.000 N 
ATOM      5  C   UNL     1      -5.009  13.826  20.561  0.00  0.00    +0.000 C 
ATOM      6  C   UNL     1      -3.809  12.124  19.179  0.00  0.00    +0.000 C 
ATOM      7  C   UNL     1      -5.170  11.612  18.731  0.00  0.00    +0.000 C 
ATOM      8  C   UNL     1      -2.665  11.638  18.618  0.00  0.00    +0.000 C 
ATOM      9  C   UNL     1      -1.291  12.128  19.067  0.00  0.00    +0.000 C 
ENDROOT
BRANCH   9  10
ATOM     10  C   UNL     1      -0.283  10.978  19.217  0.00  0.00    +0.000 A 
ATOM     11  C   UNL     1      -0.417  10.075  20.286  0.00  0.00    +0.000 A 
ATOM     12  C   UNL     1       0.472   9.019  20.388  0.00  0.00    +0.000 A 
ATOM     13  N   UNL     1       1.484   8.809  19.523  0.00  0.00    +0.000 NA
ATOM     14  C   UNL     1       1.607   9.692  18.508  0.00  0.00    +0.000 A 
ATOM     15  C   UNL     1       0.760  10.771  18.309  0.00  0.00    +0.000 A 
ENDBRANCH   9  10
BRANCH   1  16
ATOM     16  C   UNL     1      -0.044  13.314  20.984  0.00  0.00    +0.000 C 
ATOM     17  O   UNL     1       0.319  12.876  22.064  0.00  0.00    +0.000 OA
BRANCH  16  19
ATOM     18  C   UNL     1       2.091  13.802  20.128  0.00  0.00    +0.000 C 
ATOM     19  O   UNL     1       0.698  14.132  20.190  0.00  0.00    +0.000 OA
ENDBRANCH  16  19
ENDBRANCH   1  16
BRANCH   8  20
ATOM     20  C   UNL     1      -2.738  10.608  17.538  0.00  0.00    +0.000 C 
ATOM     21  O   UNL     1      -3.006   9.428  17.717  0.00  0.00    +0.000 OA
BRANCH  20  22
ATOM     22  O   UNL     1      -2.473  11.150  16.322  0.00  0.00    +0.000 OA
ATOM     23  C   UNL     1      -2.985  10.382  15.227  0.00  0.00    +0.000 C 
ENDBRANCH  20  22
ENDBRANCH   8  20
TORSDOF 5
ENDMDL
MODEL 3
REMARK VINA RESULT:      -4.9      1.671      2.159
REMARK  Name = 
REMARK  10 active torsions:
REMARK  status: ('A' for Active; 'I' for Inactive)
REMARK    1  A    between atoms: C_1  and  O_2
REMARK    2  A    between atoms: O_2  and  C_3
REMARK    3  A    between atoms: C_3  and  C_5
REMARK    4  A    between atoms: C_6  and  C_7
REMARK    5  A    between atoms: N_8  and  C_9
REMARK    6  A    between atoms: C_10  and  C_11
REMARK    7  A    between atoms: C_12  and  C_13
REMARK    8  A    between atoms: C_13  and  O_15
REMARK    9  A    between atoms: O_15  and  C_16
REMARK   10  A    between atoms: C_17  and  C_18
REMARK                            x       y       z     vdW  Elec       q    Type
REMARK                         _______ _______ _______ _____ _____    ______ ____
ROOT
ATOM      1  C   UNL     1      -0.696  11.397  20.494  0.00  0.00    +0.000 C 
ATOM      2  C   UNL     1      -0.777  10.871  19.243  0.00  0.00    +0.000 C 
ATOM      3  C   UNL     1       0.420  10.273  18.517  0.00  0.00    +0.000 C 
ATOM      4  N   UNL     1      -2.008  10.887  18.526  0.00  0.00    +0.000 N 
ATOM      5  C   UNL     1      -2.177  10.071  17.302  0.00  0.00    +0.000 C 
ATOM      6  C   UNL     1      -3.102  11.670  18.987  0.00  0.00    +0.000 C 
ATOM      7  C   UNL     1      -4.283  11.881  18.051  0.00  0.00    +0.000 C 
ATOM      8  C   UNL     1      -3.097  12.218  20.234  0.00  0.00    +0.000 C 
ATOM      9  C   UNL     1      -1.914  12.030  21.179  0.00  0.00    +0.000 C 
ENDROOT
BRANCH   9  10
ATOM     10  C   UNL     1      -1.538  13.328  21.910  0.00  0.00    +0.000 A 
ATOM     11  C   UNL     1      -1.639  13.388  23.311  0.00  0.00    +0.000 A 
ATOM     12  C   UNL     1      -1.259  14.548  23.963  0.00  0.00    +0.000 A 
ATOM     13  N   UNL     1      -0.807  15.647  23.328  0.00  0.00    +0.000 NA
ATOM     14  C   UNL     1      -0.727  15.579  21.980  0.00  0.00    +0.000 A 
ATOM     15  C   UNL     1      -1.067  14.460  21.238  0.00  0.00    +0.000 A 
ENDBRANCH   9  10
BRANCH   1  16
ATOM     16  C   UNL     1       0.583  11.401  21.265  0.00  0.00    +0.000 C 
ATOM     17  O   UNL     1       1.536  12.128  21.031  0.00  0.00    +0.000 OA
BRANCH  16  19
ATOM     18  C   UNL     1       1.184   9.261  22.030  0.00  0.00    +0.000 C 
ATOM     19  O   UNL     1       0.524  10.507  22.287  0.00  0.00    +0.000 OA
ENDBRANCH  16  19
ENDBRANCH   1  16
BRANCH   8  20
ATOM     20  C   UNL     1      -4.266  13.021  20.706  0.00  0.00    +0.000 C 
ATOM     21  O   UNL     1      -4.482  14.184  20.398  0.00  0.00    +0.000 OA
BRANCH  20  22
ATOM     22  O   UNL     1      -5.069  12.290  21.521  0.00  0.00    +0.000 OA
ATOM     23  C   UNL     1      -6.441  12.275  21.112  0.00  0.00    +0.000 C 
ENDBRANCH  20  22
ENDBRANCH   8  20
TORSDOF 5
ENDMDL
MODEL 4
REMARK VINA RESULT:      -4.9      1.734      2.004
REMARK  Name = 
REMARK  10 active torsions:
REMARK  status: ('A' for Active; 'I' for Inactive)
REMARK    1  A    between atoms: C_1  and  O_2
REMARK    2  A    between atoms: O_2  and  C_3
REMARK    3  A    between atoms: C_3  and  C_5
REMARK    4  A    between atoms: C_6  and  C_7
REMARK    5  A    between atoms: N_8  and  C_9
REMARK    6  A    between atoms: C_10  and  C_11
REMARK    7  A    between atoms: C_12  and  C_13
REMARK    8  A    between atoms: C_13  and  O_15
REMARK    9  A    between atoms: O_15  and  C_16
REMARK   10  A    between atoms: C_17  and  C_18
REMARK                            x       y       z     vdW  Elec       q    Type
REMARK                         _______ _______ _______ _____ _____    ______ ____
ROOT
ATOM      1  C   UNL     1      -0.688  11.374  20.504  0.00  0.00    +0.000 C 
ATOM      2  C   UNL     1      -0.793  10.842  19.257  0.00  0.00    +0.000 C 
ATOM      3  C   UNL     1       0.386  10.225  18.517  0.00  0.00    +0.000 C 
ATOM      4  N   UNL     1      -2.033  10.870  18.557  0.00  0.00    +0.000 N 
ATOM      5  C   UNL     1      -2.229  10.049  17.340  0.00  0.00    +0.000 C 
ATOM      6  C   UNL     1      -3.111  11.669  19.029  0.00  0.00    +0.000 C 
ATOM      7  C   UNL     1      -4.302  11.890  18.108  0.00  0.00    +0.000 C 
ATOM      8  C   UNL     1      -3.081  12.225  20.273  0.00  0.00    +0.000 C 
ATOM      9  C   UNL     1      -1.887  12.027  21.202  0.00  0.00    +0.000 C 
ENDROOT
BRANCH   9  10
ATOM     10  C   UNL     1      -1.485  13.324  21.920  0.00  0.00    +0.000 A 
ATOM     11  C   UNL     1      -1.043  14.425  21.166  0.00  0.00    +0.000 A 
ATOM     12  C   UNL     1      -0.723  15.602  21.819  0.00  0.00    +0.000 A 
ATOM     13  N   UNL     1      -0.796  15.757  23.156  0.00  0.00    +0.000 NA
ATOM     14  C   UNL     1      -1.212  14.687  23.869  0.00  0.00    +0.000 A 
ATOM     15  C   UNL     1      -1.570  13.472  23.308  0.00  0.00    +0.000 A 
ENDBRANCH   9  10
BRANCH   1  16
ATOM     16  C   UNL     1       0.602  11.367  21.257  0.00  0.00    +0.000 C 
ATOM     17  O   UNL     1       1.560  12.083  21.007  0.00  0.00    +0.000 OA
BRANCH  16  19
ATOM     18  C   UNL     1       1.208   9.229  22.025  0.00  0.00    +0.000 C 
ATOM     19  O   UNL     1       0.548  10.475  22.282  0.00  0.00    +0.000 OA
ENDBRANCH  16  19
ENDBRANCH   1  16
BRANCH   8  20
ATOM     20  C   UNL     1      -4.234  13.045  20.756  0.00  0.00    +0.000 C 
ATOM     21  O   UNL     1      -4.456  14.199  20.420  0.00  0.00    +0.000 OA
BRANCH  20  22
ATOM     22  O   UNL     1      -5.012  12.341  21.617  0.00  0.00    +0.000 OA
ATOM     23  C   UNL     1      -5.305  13.042  22.830  0.00  0.00    +0.000 C 
ENDBRANCH  20  22
ENDBRANCH   8  20
TORSDOF 5
ENDMDL
MODEL 5
REMARK VINA RESULT:      -4.9      2.785      5.457
REMARK  Name = 
REMARK  10 active torsions:
REMARK  status: ('A' for Active; 'I' for Inactive)
REMARK    1  A    between atoms: C_1  and  O_2
REMARK    2  A    between atoms: O_2  and  C_3
REMARK    3  A    between atoms: C_3  and  C_5
REMARK    4  A    between atoms: C_6  and  C_7
REMARK    5  A    between atoms: N_8  and  C_9
REMARK    6  A    between atoms: C_10  and  C_11
REMARK    7  A    between atoms: C_12  and  C_13
REMARK    8  A    between atoms: C_13  and  O_15
REMARK    9  A    between atoms: O_15  and  C_16
REMARK   10  A    between atoms: C_17  and  C_18
REMARK                            x       y       z     vdW  Elec       q    Type
REMARK                         _______ _______ _______ _____ _____    ______ ____
ROOT
ATOM      1  C   UNL     1      -1.619  12.920  20.418  0.00  0.00    +0.000 C 
ATOM      2  C   UNL     1      -2.828  13.349  20.870  0.00  0.00    +0.000 C 
ATOM      3  C   UNL     1      -2.997  14.151  22.152  0.00  0.00    +0.000 C 
ATOM      4  N   UNL     1      -4.023  13.027  20.164  0.00  0.00    +0.000 N 
ATOM      5  C   UNL     1      -5.293  13.720  20.479  0.00  0.00    +0.000 C 
ATOM      6  C   UNL     1      -4.011  12.052  19.129  0.00  0.00    +0.000 C 
ATOM      7  C   UNL     1      -5.344  11.540  18.604  0.00  0.00    +0.000 C 
ATOM      8  C   UNL     1      -2.837  11.586  18.617  0.00  0.00    +0.000 C 
ATOM      9  C   UNL     1      -1.491  12.076  19.144  0.00  0.00    +0.000 C 
ENDROOT
BRANCH   9  10
ATOM     10  C   UNL     1      -0.482  10.931  19.324  0.00  0.00    +0.000 A 
ATOM     11  C   UNL     1       0.602  10.818  18.436  0.00  0.00    +0.000 A 
ATOM     12  C   UNL     1       1.527   9.808  18.632  0.00  0.00    +0.000 A 
ATOM     13  N   UNL     1       1.444   8.902  19.627  0.00  0.00    +0.000 NA
ATOM     14  C   UNL     1       0.391   9.018  20.465  0.00  0.00    +0.000 A 
ATOM     15  C   UNL     1      -0.579  10.002  20.363  0.00  0.00    +0.000 A 
ENDBRANCH   9  10
BRANCH   1  16
ATOM     16  C   UNL     1      -0.352  13.235  21.143  0.00  0.00    +0.000 C 
ATOM     17  O   UNL     1      -0.013  12.736  22.205  0.00  0.00    +0.000 OA
BRANCH  16  19
ATOM     18  C   UNL     1       0.390  15.459  20.969  0.00  0.00    +0.000 C 
ATOM     19  O   UNL     1       0.389  14.129  20.435  0.00  0.00    +0.000 OA
ENDBRANCH  16  19
ENDBRANCH   1  16
BRANCH   8  20
ATOM     20  C   UNL     1      -2.847  10.575  17.516  0.00  0.00    +0.000 C 
ATOM     21  O   UNL     1      -3.127   9.393  17.658  0.00  0.00    +0.000 OA
BRANCH  20  22
ATOM     22  O   UNL     1      -2.510  11.138  16.328  0.00  0.00    +0.000 OA
ATOM     23  C   UNL     1      -3.207  10.580  15.209  0.00  0.00    +0.000 C 
ENDBRANCH  20  22
ENDBRANCH   8  20
TORSDOF 5
ENDMDL
MODEL 6
REMARK VINA RESULT:      -4.8      2.084      2.936
REMARK  Name = 
REMARK  10 active torsions:
REMARK  status: ('A' for Active; 'I' for Inactive)
REMARK    1  A    between atoms: C_1  and  O_2
REMARK    2  A    between atoms: O_2  and  C_3
REMARK    3  A    between atoms: C_3  and  C_5
REMARK    4  A    between atoms: C_6  and  C_7
REMARK    5  A    between atoms: N_8  and  C_9
REMARK    6  A    between atoms: C_10  and  C_11
REMARK    7  A    between atoms: C_12  and  C_13
REMARK    8  A    between atoms: C_13  and  O_15
REMARK    9  A    between atoms: O_15  and  C_16
REMARK   10  A    between atoms: C_17  and  C_18
REMARK                            x       y       z     vdW  Elec       q    Type
REMARK                         _______ _______ _______ _____ _____    ______ ____
ROOT
ATOM      1  C   UNL     1      -2.978  12.038  19.371  0.00  0.00    +0.000 C 
ATOM      2  C   UNL     1      -4.017  11.778  18.531  0.00  0.00    +0.000 C 
ATOM      3  C   UNL     1      -3.829  11.468  17.053  0.00  0.00    +0.000 C 
ATOM      4  N   UNL     1      -5.360  11.820  19.002  0.00  0.00    +0.000 N 
ATOM      5  C   UNL     1      -6.462  11.265  18.185  0.00  0.00    +0.000 C 
ATOM      6  C   UNL     1      -5.662  12.377  20.276  0.00  0.00    +0.000 C 
ATOM      7  C   UNL     1      -7.119  12.659  20.614  0.00  0.00    +0.000 C 
ATOM      8  C   UNL     1      -4.675  12.651  21.174  0.00  0.00    +0.000 C 
ATOM      9  C   UNL     1      -3.208  12.390  20.846  0.00  0.00    +0.000 C 
ENDROOT
BRANCH   9  10
ATOM     10  C   UNL     1      -2.294  13.538  21.301  0.00  0.00    +0.000 A 
ATOM     11  C   UNL     1      -1.303  13.293  22.268  0.00  0.00    +0.000 A 
ATOM     12  C   UNL     1      -0.459  14.325  22.640  0.00  0.00    +0.000 A 
ATOM     13  N   UNL     1      -0.538  15.573  22.138  0.00  0.00    +0.000 NA
ATOM     14  C   UNL     1      -1.503  15.796  21.218  0.00  0.00    +0.000 A 
ATOM     15  C   UNL     1      -2.386  14.827  20.768  0.00  0.00    +0.000 A 
ENDBRANCH   9  10
BRANCH   1  16
ATOM     16  C   UNL     1      -1.561  12.010  18.902  0.00  0.00    +0.000 C 
ATOM     17  O   UNL     1      -1.037  12.871  18.213  0.00  0.00    +0.000 OA
BRANCH  16  19
ATOM     18  C   UNL     1       0.443  11.118  19.749  0.00  0.00    +0.000 C 
ATOM     19  O   UNL     1      -0.926  10.906  19.379  0.00  0.00    +0.000 OA
ENDBRANCH  16  19
ENDBRANCH   1  16
BRANCH   8  20
ATOM     20  C   UNL     1      -5.016  13.218  22.515  0.00  0.00    +0.000 C 
ATOM     21  O   UNL     1      -5.273  14.394  22.729  0.00  0.00    +0.000 OA
BRANCH  20  22
ATOM     22  O   UNL     1      -5.012  12.254  23.472  0.00  0.00    +0.000 OA
ATOM     23  C   UNL     1      -4.181  12.565  24.595  0.00  0.00    +0.000 C 
ENDBRANCH  20  22
ENDBRANCH   8  20
TORSDOF 5
ENDMDL
MODEL 7
REMARK VINA RESULT:      -4.7      2.725      5.305
REMARK  Name = 
REMARK  10 active torsions:
REMARK  status: ('A' for Active; 'I' for Inactive)
REMARK    1  A    between atoms: C_1  and  O_2
REMARK    2  A    between atoms: O_2  and  C_3
REMARK    3  A    between atoms: C_3  and  C_5
REMARK    4  A    between atoms: C_6  and  C_7
REMARK    5  A    between atoms: N_8  and  C_9
REMARK    6  A    between atoms: C_10  and  C_11
REMARK    7  A    between atoms: C_12  and  C_13
REMARK    8  A    between atoms: C_13  and  O_15
REMARK    9  A    between atoms: O_15  and  C_16
REMARK   10  A    between atoms: C_17  and  C_18
REMARK                            x       y       z     vdW  Elec       q    Type
REMARK                         _______ _______ _______ _____ _____    ______ ____
ROOT
ATOM      1  C   UNL     1      -2.600  13.111  20.271  0.00  0.00    +0.000 C 
ATOM      2  C   UNL     1      -3.912  13.278  20.590  0.00  0.00    +0.000 C 
ATOM      3  C   UNL     1      -4.373  14.024  21.834  0.00  0.00    +0.000 C 
ATOM      4  N   UNL     1      -4.936  12.720  19.772  0.00  0.00    +0.000 N 
ATOM      5  C   UNL     1      -6.347  13.134  19.945  0.00  0.00    +0.000 C 
ATOM      6  C   UNL     1      -4.617  11.773  18.761  0.00  0.00    +0.000 C 
ATOM      7  C   UNL     1      -5.755  10.998  18.112  0.00  0.00    +0.000 C 
ATOM      8  C   UNL     1      -3.326  11.561  18.379  0.00  0.00    +0.000 C 
ATOM      9  C   UNL     1      -2.171  12.317  19.031  0.00  0.00    +0.000 C 
ENDROOT
BRANCH   9  10
ATOM     10  C   UNL     1      -0.972  11.404  19.332  0.00  0.00    +0.000 A 
ATOM     11  C   UNL     1      -1.109  10.371  20.276  0.00  0.00    +0.000 A 
ATOM     12  C   UNL     1      -0.035   9.529  20.509  0.00  0.00    +0.000 A 
ATOM     13  N   UNL     1       1.156   9.649  19.890  0.00  0.00    +0.000 NA
ATOM     14  C   UNL     1       1.275  10.654  18.994  0.00  0.00    +0.000 A 
ATOM     15  C   UNL     1       0.256  11.539  18.679  0.00  0.00    +0.000 A 
ENDBRANCH   9  10
BRANCH   1  16
ATOM     16  C   UNL     1      -1.507  13.678  21.115  0.00  0.00    +0.000 C 
ATOM     17  O   UNL     1      -0.801  14.623  20.800  0.00  0.00    +0.000 OA
BRANCH  16  19
ATOM     18  C   UNL     1      -1.118  13.842  23.428  0.00  0.00    +0.000 C 
ATOM     19  O   UNL     1      -1.431  13.015  22.300  0.00  0.00    +0.000 OA
ENDBRANCH  16  19
ENDBRANCH   1  16
BRANCH   8  20
ATOM     20  C   UNL     1      -3.014  10.574  17.300  0.00  0.00    +0.000 C 
ATOM     21  O   UNL     1      -3.017   9.360  17.445  0.00  0.00    +0.000 OA
BRANCH  20  22
ATOM     22  O   UNL     1      -2.732  11.199  16.129  0.00  0.00    +0.000 OA
ATOM     23  C   UNL     1      -3.074  10.430  14.971  0.00  0.00    +0.000 C 
ENDBRANCH  20  22
ENDBRANCH   8  20
TORSDOF 5
ENDMDL
MODEL 8
REMARK VINA RESULT:      -4.7      2.767      5.260
REMARK  Name = 
REMARK  10 active torsions:
REMARK  status: ('A' for Active; 'I' for Inactive)
REMARK    1  A    between atoms: C_1  and  O_2
REMARK    2  A    between atoms: O_2  and  C_3
REMARK    3  A    between atoms: C_3  and  C_5
REMARK    4  A    between atoms: C_6  and  C_7
REMARK    5  A    between atoms: N_8  and  C_9
REMARK    6  A    between atoms: C_10  and  C_11
REMARK    7  A    between atoms: C_12  and  C_13
REMARK    8  A    between atoms: C_13  and  O_15
REMARK    9  A    between atoms: O_15  and  C_16
REMARK   10  A    between atoms: C_17  and  C_18
REMARK                            x       y       z     vdW  Elec       q    Type
REMARK                         _______ _______ _______ _____ _____    ______ ____
ROOT
ATOM      1  C   UNL     1      -2.924  13.091  20.410  0.00  0.00    +0.000 C 
ATOM      2  C   UNL     1      -4.219  13.166  20.819  0.00  0.00    +0.000 C 
ATOM      3  C   UNL     1      -4.640  13.841  22.117  0.00  0.00    +0.000 C 
ATOM      4  N   UNL     1      -5.260  12.572  20.050  0.00  0.00    +0.000 N 
ATOM      5  C   UNL     1      -6.679  12.891  20.329  0.00  0.00    +0.000 C 
ATOM      6  C   UNL     1      -4.953  11.679  18.986  0.00  0.00    +0.000 C 
ATOM      7  C   UNL     1      -6.083  10.856  18.385  0.00  0.00    +0.000 C 
ATOM      8  C   UNL     1      -3.680  11.561  18.514  0.00  0.00    +0.000 C 
ATOM      9  C   UNL     1      -2.532  12.366  19.117  0.00  0.00    +0.000 C 
ENDROOT
BRANCH   9  10
ATOM     10  C   UNL     1      -1.263  11.521  19.307  0.00  0.00    +0.000 A 
ATOM     11  C   UNL     1      -0.097  11.853  18.595  0.00  0.00    +0.000 A 
ATOM     12  C   UNL     1       1.052  11.111  18.805  0.00  0.00    +0.000 A 
ATOM     13  N   UNL     1       1.120  10.063  19.649  0.00  0.00    +0.000 NA
ATOM     14  C   UNL     1      -0.012   9.748  20.317  0.00  0.00    +0.000 A 
ATOM     15  C   UNL     1      -1.207  10.439  20.190  0.00  0.00    +0.000 A 
ENDBRANCH   9  10
BRANCH   1  16
ATOM     16  C   UNL     1      -1.813  13.697  21.202  0.00  0.00    +0.000 C 
ATOM     17  O   UNL     1      -1.336  13.216  22.218  0.00  0.00    +0.000 OA
BRANCH  16  19
ATOM     18  C   UNL     1       0.042  15.017  20.612  0.00  0.00    +0.000 C 
ATOM     19  O   UNL     1      -1.381  14.844  20.611  0.00  0.00    +0.000 OA
ENDBRANCH  16  19
ENDBRANCH   1  16
BRANCH   8  20
ATOM     20  C   UNL     1      -3.382  10.631  17.382  0.00  0.00    +0.000 C 
ATOM     21  O   UNL     1      -3.218   9.425  17.497  0.00  0.00    +0.000 OA
BRANCH  20  22
ATOM     22  O   UNL     1      -3.322  11.298  16.201  0.00  0.00    +0.000 OA
ATOM     23  C   UNL     1      -2.965  10.467  15.091  0.00  0.00    +0.000 C 
ENDBRANCH  20  22
ENDBRANCH   8  20
TORSDOF 5
ENDMDL
MODEL 9
REMARK VINA RESULT:      -4.7      1.478      4.630
REMARK  Name = 
REMARK  10 active torsions:
REMARK  status: ('A' for Active; 'I' for Inactive)
REMARK    1  A    between atoms: C_1  and  O_2
REMARK    2  A    between atoms: O_2  and  C_3
REMARK    3  A    between atoms: C_3  and  C_5
REMARK    4  A    between atoms: C_6  and  C_7
REMARK    5  A    between atoms: N_8  and  C_9
REMARK    6  A    between atoms: C_10  and  C_11
REMARK    7  A    between atoms: C_12  and  C_13
REMARK    8  A    between atoms: C_13  and  O_15
REMARK    9  A    between atoms: O_15  and  C_16
REMARK   10  A    between atoms: C_17  and  C_18
REMARK                            x       y       z     vdW  Elec       q    Type
REMARK                         _______ _______ _______ _____ _____    ______ ____
ROOT
ATOM      1  C   UNL     1      -3.887  12.557  19.671  0.00  0.00    +0.000 C 
ATOM      2  C   UNL     1      -3.727  11.579  18.739  0.00  0.00    +0.000 C 
ATOM      3  C   UNL     1      -4.894  10.950  17.991  0.00  0.00    +0.000 C 
ATOM      4  N   UNL     1      -2.433  11.065  18.439  0.00  0.00    +0.000 N 
ATOM      5  C   UNL     1      -2.217  10.222  17.242  0.00  0.00    +0.000 C 
ATOM      6  C   UNL     1      -1.323  11.371  19.274  0.00  0.00    +0.000 C 
ATOM      7  C   UNL     1      -0.038  10.580  19.084  0.00  0.00    +0.000 C 
ATOM      8  C   UNL     1      -1.405  12.347  20.221  0.00  0.00    +0.000 C 
ATOM      9  C   UNL     1      -2.692  13.139  20.436  0.00  0.00    +0.000 C 
ENDROOT
BRANCH   9  10
ATOM     10  C   UNL     1      -3.016  13.333  21.926  0.00  0.00    +0.000 A 
ATOM     11  C   UNL     1      -3.137  14.634  22.445  0.00  0.00    +0.000 A 
ATOM     12  C   UNL     1      -3.469  14.796  23.778  0.00  0.00    +0.000 A 
ATOM     13  N   UNL     1      -3.673  13.770  24.627  0.00  0.00    +0.000 NA
ATOM     14  C   UNL     1      -3.543  12.526  24.116  0.00  0.00    +0.000 A 
ATOM     15  C   UNL     1      -3.229  12.258  22.794  0.00  0.00    +0.000 A 
ENDBRANCH   9  10
BRANCH   1  16
ATOM     16  C   UNL     1      -5.233  13.109  20.010  0.00  0.00    +0.000 C 
ATOM     17  O   UNL     1      -5.648  14.202  19.658  0.00  0.00    +0.000 OA
BRANCH  16  19
ATOM     18  C   UNL     1      -6.745  12.777  21.780  0.00  0.00    +0.000 C 
ATOM     19  O   UNL     1      -5.945  12.206  20.736  0.00  0.00    +0.000 OA
ENDBRANCH  16  19
ENDBRANCH   1  16
BRANCH   8  20
ATOM     20  C   UNL     1      -0.220  12.667  21.075  0.00  0.00    +0.000 C 
ATOM     21  O   UNL     1       0.134  12.014  22.046  0.00  0.00    +0.000 OA
BRANCH  20  22
ATOM     22  O   UNL     1       0.422  13.776  20.629  0.00  0.00    +0.000 OA
ATOM     23  C   UNL     1       1.821  13.575  20.396  0.00  0.00    +0.000 C 
ENDBRANCH  20  22
ENDBRANCH   8  20
TORSDOF 5
ENDMDL
