MODEL 1
REMARK VINA RESULT:      -6.9      0.000      0.000
REMARK  Name = 
REMARK  4 active torsions:
REMARK  status: ('A' for Active; 'I' for Inactive)
REMARK    1  A    between atoms: C_1  and  C_2
REMARK    2  A    between atoms: C_2  and  C_3
REMARK    3  A    between atoms: C_3  and  N_4
REMARK    4  A    between atoms: C_8  and  C_9
REMARK                            x       y       z     vdW  Elec       q    Type
REMARK                         _______ _______ _______ _____ _____    ______ ____
ROOT
ATOM      1  N   UNL     1       6.313   6.129  17.208  0.00  0.00    +0.000 NA
ATOM      2  C   UNL     1       6.751   4.925  16.457  0.00  0.00    +0.000 C 
ATOM      3  C   UNL     1       5.583   4.326  15.675  0.00  0.00    +0.000 C 
ATOM      4  C   UNL     1       4.474   3.918  16.637  0.00  0.00    +0.000 C 
ATOM      5  C   UNL     1       4.029   5.137  17.462  0.00  0.00    +0.000 C 
ATOM      6  C   UNL     1       5.248   5.764  18.178  0.00  0.00    +0.000 C 
ENDROOT
BRANCH   5   7
ATOM      7  C   UNL     1       2.943   4.732  18.444  0.00  0.00    +0.000 A 
ATOM      8  C   UNL     1       2.804   5.388  19.685  0.00  0.00    +0.000 A 
ATOM      9  C   UNL     1       1.817   4.994  20.591  0.00  0.00    +0.000 A 
ATOM     10  C   UNL     1       0.955   3.943  20.274  0.00  0.00    +0.000 A 
ATOM     11  C   UNL     1       1.079   3.285  19.048  0.00  0.00    +0.000 A 
ATOM     12  C   UNL     1       2.067   3.675  18.136  0.00  0.00    +0.000 A 
ENDBRANCH   5   7
BRANCH   1  13
ATOM     13  C   UNL     1       7.439   6.767  17.932  0.00  0.00    +0.000 C 
BRANCH  13  15
ATOM     14  C   UNL     1       8.579   8.964  18.477  0.00  0.00    +0.000 C 
ATOM     15  C   UNL     1       7.685   8.225  17.488  0.00  0.00    +0.000 C 
ENDBRANCH  13  15
ENDBRANCH   1  13
TORSDOF 3
ENDMDL
MODEL 2
REMARK VINA RESULT:      -6.8      1.837      3.141
REMARK  Name = 
REMARK  4 active torsions:
REMARK  status: ('A' for Active; 'I' for Inactive)
REMARK    1  A    between atoms: C_1  and  C_2
REMARK    2  A    between atoms: C_2  and  C_3
REMARK    3  A    between atoms: C_3  and  N_4
REMARK    4  A    between atoms: C_8  and  C_9
REMARK                            x       y       z     vdW  Elec       q    Type
REMARK                         _______ _______ _______ _____ _____    ______ ____
ROOT
ATOM      1  N   UNL     1       5.757   4.588  16.306  0.00  0.00    +0.000 NA
ATOM      2  C   UNL     1       5.386   5.922  15.771  0.00  0.00    +0.000 C 
ATOM      3  C   UNL     1       4.964   6.856  16.905  0.00  0.00    +0.000 C 
ATOM      4  C   UNL     1       3.758   6.275  17.631  0.00  0.00    +0.000 C 
ATOM      5  C   UNL     1       4.098   4.871  18.159  0.00  0.00    +0.000 C 
ATOM      6  C   UNL     1       4.594   3.976  16.999  0.00  0.00    +0.000 C 
ENDROOT
BRANCH   5   7
ATOM      7  C   UNL     1       2.891   4.271  18.859  0.00  0.00    +0.000 A 
ATOM      8  C   UNL     1       2.569   4.627  20.185  0.00  0.00    +0.000 A 
ATOM      9  C   UNL     1       1.470   4.054  20.829  0.00  0.00    +0.000 A 
ATOM     10  C   UNL     1       0.676   3.120  20.160  0.00  0.00    +0.000 A 
ATOM     11  C   UNL     1       0.981   2.760  18.845  0.00  0.00    +0.000 A 
ATOM     12  C   UNL     1       2.081   3.330  18.196  0.00  0.00    +0.000 A 
ENDBRANCH   5   7
BRANCH   1  13
ATOM     13  C   UNL     1       6.227   3.676  15.234  0.00  0.00    +0.000 C 
BRANCH  13  15
ATOM     14  C   UNL     1       6.038   3.522  12.712  0.00  0.00    +0.000 C 
ATOM     15  C   UNL     1       6.449   4.399  13.889  0.00  0.00    +0.000 C 
ENDBRANCH  13  15
ENDBRANCH   1  13
TORSDOF 3
ENDMDL
MODEL 3
REMARK VINA RESULT:      -6.8      1.752      3.255
REMARK  Name = 
REMARK  4 active torsions:
REMARK  status: ('A' for Active; 'I' for Inactive)
REMARK    1  A    between atoms: C_1  and  C_2
REMARK    2  A    between atoms: C_2  and  C_3
REMARK    3  A    between atoms: C_3  and  N_4
REMARK    4  A    between atoms: C_8  and  C_9
REMARK                            x       y       z     vdW  Elec       q    Type
REMARK                         _______ _______ _______ _____ _____    ______ ____
ROOT
ATOM      1  N   UNL     1       6.798   4.564  16.610  0.00  0.00    +0.000 NA
ATOM      2  C   UNL     1       7.183   5.799  17.340  0.00  0.00    +0.000 C 
ATOM      3  C   UNL     1       7.048   5.594  18.848  0.00  0.00    +0.000 C 
ATOM      4  C   UNL     1       5.604   5.258  19.196  0.00  0.00    +0.000 C 
ATOM      5  C   UNL     1       5.161   4.006  18.420  0.00  0.00    +0.000 C 
ATOM      6  C   UNL     1       5.383   4.219  16.904  0.00  0.00    +0.000 C 
ENDROOT
BRANCH   5   7
ATOM      7  C   UNL     1       3.712   3.681  18.738  0.00  0.00    +0.000 A 
ATOM      8  C   UNL     1       3.367   2.974  19.909  0.00  0.00    +0.000 A 
ATOM      9  C   UNL     1       2.034   2.660  20.183  0.00  0.00    +0.000 A 
ATOM     10  C   UNL     1       1.027   3.046  19.295  0.00  0.00    +0.000 A 
ATOM     11  C   UNL     1       1.354   3.749  18.133  0.00  0.00    +0.000 A 
ATOM     12  C   UNL     1       2.688   4.066  17.854  0.00  0.00    +0.000 A 
ENDBRANCH   5   7
BRANCH   1  13
ATOM     13  C   UNL     1       6.975   4.713  15.145  0.00  0.00    +0.000 C 
BRANCH  13  15
ATOM     14  C   UNL     1       6.141   3.617  13.017  0.00  0.00    +0.000 C 
ATOM     15  C   UNL     1       5.739   4.250  14.344  0.00  0.00    +0.000 C 
ENDBRANCH  13  15
ENDBRANCH   1  13
TORSDOF 3
ENDMDL
MODEL 4
REMARK VINA RESULT:      -6.7      0.502      1.341
REMARK  Name = 
REMARK  4 active torsions:
REMARK  status: ('A' for Active; 'I' for Inactive)
REMARK    1  A    between atoms: C_1  and  C_2
REMARK    2  A    between atoms: C_2  and  C_3
REMARK    3  A    between atoms: C_3  and  N_4
REMARK    4  A    between atoms: C_8  and  C_9
REMARK                            x       y       z     vdW  Elec       q    Type
REMARK                         _______ _______ _______ _____ _____    ______ ____
ROOT
ATOM      1  N   UNL     1       6.004   6.018  17.361  0.00  0.00    +0.000 NA
ATOM      2  C   UNL     1       6.410   4.920  16.446  0.00  0.00    +0.000 C 
ATOM      3  C   UNL     1       5.192   4.345  15.724  0.00  0.00    +0.000 C 
ATOM      4  C   UNL     1       4.207   3.786  16.742  0.00  0.00    +0.000 C 
ATOM      5  C   UNL     1       3.800   4.890  17.732  0.00  0.00    +0.000 C 
ATOM      6  C   UNL     1       5.061   5.502  18.387  0.00  0.00    +0.000 C 
ENDROOT
BRANCH   5   7
ATOM      7  C   UNL     1       2.840   4.332  18.768  0.00  0.00    +0.000 A 
ATOM      8  C   UNL     1       1.895   3.344  18.425  0.00  0.00    +0.000 A 
ATOM      9  C   UNL     1       1.000   2.852  19.379  0.00  0.00    +0.000 A 
ATOM     10  C   UNL     1       1.036   3.339  20.687  0.00  0.00    +0.000 A 
ATOM     11  C   UNL     1       1.968   4.317  21.043  0.00  0.00    +0.000 A 
ATOM     12  C   UNL     1       2.866   4.813  20.091  0.00  0.00    +0.000 A 
ENDBRANCH   5   7
BRANCH   1  13
ATOM     13  C   UNL     1       7.173   6.636  18.033  0.00  0.00    +0.000 C 
BRANCH  13  15
ATOM     14  C   UNL     1       8.320   8.887  18.225  0.00  0.00    +0.000 C 
ATOM     15  C   UNL     1       7.723   7.859  17.271  0.00  0.00    +0.000 C 
ENDBRANCH  13  15
ENDBRANCH   1  13
TORSDOF 3
ENDMDL
MODEL 5
REMARK VINA RESULT:      -6.7      1.756      3.409
REMARK  Name = 
REMARK  4 active torsions:
REMARK  status: ('A' for Active; 'I' for Inactive)
REMARK    1  A    between atoms: C_1  and  C_2
REMARK    2  A    between atoms: C_2  and  C_3
REMARK    3  A    between atoms: C_3  and  N_4
REMARK    4  A    between atoms: C_8  and  C_9
REMARK                            x       y       z     vdW  Elec       q    Type
REMARK                         _______ _______ _______ _____ _____    ______ ____
ROOT
ATOM      1  N   UNL     1       6.741   4.608  16.118  0.00  0.00    +0.000 NA
ATOM      2  C   UNL     1       6.998   5.909  16.785  0.00  0.00    +0.000 C 
ATOM      3  C   UNL     1       6.839   5.776  18.299  0.00  0.00    +0.000 C 
ATOM      4  C   UNL     1       5.420   5.334  18.632  0.00  0.00    +0.000 C 
ATOM      5  C   UNL     1       5.109   4.008  17.918  0.00  0.00    +0.000 C 
ATOM      6  C   UNL     1       5.353   4.157  16.398  0.00  0.00    +0.000 C 
ENDROOT
BRANCH   5   7
ATOM      7  C   UNL     1       3.684   3.576  18.222  0.00  0.00    +0.000 A 
ATOM      8  C   UNL     1       2.592   4.417  17.927  0.00  0.00    +0.000 A 
ATOM      9  C   UNL     1       1.287   4.019  18.230  0.00  0.00    +0.000 A 
ATOM     10  C   UNL     1       1.054   2.780  18.830  0.00  0.00    +0.000 A 
ATOM     11  C   UNL     1       2.126   1.935  19.125  0.00  0.00    +0.000 A 
ATOM     12  C   UNL     1       3.436   2.329  18.824  0.00  0.00    +0.000 A 
ENDBRANCH   5   7
BRANCH   1  13
ATOM     13  C   UNL     1       6.944   4.691  14.651  0.00  0.00    +0.000 C 
BRANCH  13  15
ATOM     14  C   UNL     1       6.281   3.503  12.513  0.00  0.00    +0.000 C 
ATOM     15  C   UNL     1       5.793   4.048  13.850  0.00  0.00    +0.000 C 
ENDBRANCH  13  15
ENDBRANCH   1  13
TORSDOF 3
ENDMDL
MODEL 6
REMARK VINA RESULT:      -6.7      1.596      3.369
REMARK  Name = 
REMARK  4 active torsions:
REMARK  status: ('A' for Active; 'I' for Inactive)
REMARK    1  A    between atoms: C_1  and  C_2
REMARK    2  A    between atoms: C_2  and  C_3
REMARK    3  A    between atoms: C_3  and  N_4
REMARK    4  A    between atoms: C_8  and  C_9
REMARK                            x       y       z     vdW  Elec       q    Type
REMARK                         _______ _______ _______ _____ _____    ______ ____
ROOT
ATOM      1  N   UNL     1       6.797   4.523  16.746  0.00  0.00    +0.000 NA
ATOM      2  C   UNL     1       7.181   5.779  17.437  0.00  0.00    +0.000 C 
ATOM      3  C   UNL     1       7.031   5.627  18.950  0.00  0.00    +0.000 C 
ATOM      4  C   UNL     1       5.581   5.311  19.294  0.00  0.00    +0.000 C 
ATOM      5  C   UNL     1       5.139   4.036  18.557  0.00  0.00    +0.000 C 
ATOM      6  C   UNL     1       5.376   4.196  17.037  0.00  0.00    +0.000 C 
ENDROOT
BRANCH   5   7
ATOM      7  C   UNL     1       3.685   3.729  18.872  0.00  0.00    +0.000 A 
ATOM      8  C   UNL     1       2.970   2.762  18.136  0.00  0.00    +0.000 A 
ATOM      9  C   UNL     1       1.627   2.502  18.418  0.00  0.00    +0.000 A 
ATOM     10  C   UNL     1       0.978   3.203  19.437  0.00  0.00    +0.000 A 
ATOM     11  C   UNL     1       1.673   4.162  20.177  0.00  0.00    +0.000 A 
ATOM     12  C   UNL     1       3.019   4.427  19.897  0.00  0.00    +0.000 A 
ENDBRANCH   5   7
BRANCH   1  13
ATOM     13  C   UNL     1       6.988   4.621  15.278  0.00  0.00    +0.000 C 
BRANCH  13  15
ATOM     14  C   UNL     1       5.992   3.686  13.143  0.00  0.00    +0.000 C 
ATOM     15  C   UNL     1       5.693   4.341  14.486  0.00  0.00    +0.000 C 
ENDBRANCH  13  15
ENDBRANCH   1  13
TORSDOF 3
ENDMDL
MODEL 7
REMARK VINA RESULT:      -6.6      1.113      1.251
REMARK  Name = 
REMARK  4 active torsions:
REMARK  status: ('A' for Active; 'I' for Inactive)
REMARK    1  A    between atoms: C_1  and  C_2
REMARK    2  A    between atoms: C_2  and  C_3
REMARK    3  A    between atoms: C_3  and  N_4
REMARK    4  A    between atoms: C_8  and  C_9
REMARK                            x       y       z     vdW  Elec       q    Type
REMARK                         _______ _______ _______ _____ _____    ______ ____
ROOT
ATOM      1  N   UNL     1       6.136   5.873  17.564  0.00  0.00    +0.000 NA
ATOM      2  C   UNL     1       6.510   4.761  16.655  0.00  0.00    +0.000 C 
ATOM      3  C   UNL     1       5.263   4.130  16.037  0.00  0.00    +0.000 C 
ATOM      4  C   UNL     1       4.368   3.574  17.137  0.00  0.00    +0.000 C 
ATOM      5  C   UNL     1       3.999   4.695  18.123  0.00  0.00    +0.000 C 
ATOM      6  C   UNL     1       5.283   5.362  18.669  0.00  0.00    +0.000 C 
ENDROOT
BRANCH   5   7
ATOM      7  C   UNL     1       3.131   4.142  19.240  0.00  0.00    +0.000 A 
ATOM      8  C   UNL     1       3.607   3.127  20.095  0.00  0.00    +0.000 A 
ATOM      9  C   UNL     1       2.794   2.609  21.106  0.00  0.00    +0.000 A 
ATOM     10  C   UNL     1       1.496   3.094  21.278  0.00  0.00    +0.000 A 
ATOM     11  C   UNL     1       1.011   4.101  20.439  0.00  0.00    +0.000 A 
ATOM     12  C   UNL     1       1.821   4.623  19.425  0.00  0.00    +0.000 A 
ENDBRANCH   5   7
BRANCH   1  13
ATOM     13  C   UNL     1       7.329   6.545  18.135  0.00  0.00    +0.000 C 
BRANCH  13  15
ATOM     14  C   UNL     1       8.376   8.847  18.297  0.00  0.00    +0.000 C 
ATOM     15  C   UNL     1       7.711   7.832  17.374  0.00  0.00    +0.000 C 
ENDBRANCH  13  15
ENDBRANCH   1  13
TORSDOF 3
ENDMDL
MODEL 8
REMARK VINA RESULT:      -6.6      1.985      3.233
REMARK  Name = 
REMARK  4 active torsions:
REMARK  status: ('A' for Active; 'I' for Inactive)
REMARK    1  A    between atoms: C_1  and  C_2
REMARK    2  A    between atoms: C_2  and  C_3
REMARK    3  A    between atoms: C_3  and  N_4
REMARK    4  A    between atoms: C_8  and  C_9
REMARK                            x       y       z     vdW  Elec       q    Type
REMARK                         _______ _______ _______ _____ _____    ______ ____
ROOT
ATOM      1  N   UNL     1       5.712   4.671  16.582  0.00  0.00    +0.000 NA
ATOM      2  C   UNL     1       5.140   5.919  16.018  0.00  0.00    +0.000 C 
ATOM      3  C   UNL     1       4.756   6.887  17.137  0.00  0.00    +0.000 C 
ATOM      4  C   UNL     1       3.712   6.242  18.040  0.00  0.00    +0.000 C 
ATOM      5  C   UNL     1       4.260   4.922  18.606  0.00  0.00    +0.000 C 
ATOM      6  C   UNL     1       4.711   3.998  17.450  0.00  0.00    +0.000 C 
ENDROOT
BRANCH   5   7
ATOM      7  C   UNL     1       3.214   4.258  19.484  0.00  0.00    +0.000 A 
ATOM      8  C   UNL     1       1.914   4.792  19.595  0.00  0.00    +0.000 A 
ATOM      9  C   UNL     1       0.964   4.187  20.422  0.00  0.00    +0.000 A 
ATOM     10  C   UNL     1       1.298   3.043  21.150  0.00  0.00    +0.000 A 
ATOM     11  C   UNL     1       2.582   2.501  21.050  0.00  0.00    +0.000 A 
ATOM     12  C   UNL     1       3.537   3.104  20.222  0.00  0.00    +0.000 A 
ENDBRANCH   5   7
BRANCH   1  13
ATOM     13  C   UNL     1       6.149   3.735  15.518  0.00  0.00    +0.000 C 
BRANCH  13  15
ATOM     14  C   UNL     1       6.064   3.632  12.987  0.00  0.00    +0.000 C 
ATOM     15  C   UNL     1       6.497   4.452  14.197  0.00  0.00    +0.000 C 
ENDBRANCH  13  15
ENDBRANCH   1  13
TORSDOF 3
ENDMDL
MODEL 9
REMARK VINA RESULT:      -6.6      1.806      3.567
REMARK  Name = 
REMARK  4 active torsions:
REMARK  status: ('A' for Active; 'I' for Inactive)
REMARK    1  A    between atoms: C_1  and  C_2
REMARK    2  A    between atoms: C_2  and  C_3
REMARK    3  A    between atoms: C_3  and  N_4
REMARK    4  A    between atoms: C_8  and  C_9
REMARK                            x       y       z     vdW  Elec       q    Type
REMARK                         _______ _______ _______ _____ _____    ______ ____
ROOT
ATOM      1  N   UNL     1       5.751   4.269  15.873  0.00  0.00    +0.000 NA
ATOM      2  C   UNL     1       6.695   5.206  16.534  0.00  0.00    +0.000 C 
ATOM      3  C   UNL     1       6.969   4.767  17.971  0.00  0.00    +0.000 C 
ATOM      4  C   UNL     1       5.668   4.755  18.764  0.00  0.00    +0.000 C 
ATOM      5  C   UNL     1       4.653   3.825  18.079  0.00  0.00    +0.000 C 
ATOM      6  C   UNL     1       4.457   4.251  16.605  0.00  0.00    +0.000 C 
ENDROOT
BRANCH   5   7
ATOM      7  C   UNL     1       3.342   3.830  18.847  0.00  0.00    +0.000 A 
ATOM      8  C   UNL     1       2.280   2.980  18.476  0.00  0.00    +0.000 A 
ATOM      9  C   UNL     1       1.070   3.007  19.175  0.00  0.00    +0.000 A 
ATOM     10  C   UNL     1       0.903   3.880  20.251  0.00  0.00    +0.000 A 
ATOM     11  C   UNL     1       1.947   4.726  20.632  0.00  0.00    +0.000 A 
ATOM     12  C   UNL     1       3.161   4.704  19.935  0.00  0.00    +0.000 A 
ENDBRANCH   5   7
BRANCH   1  13
ATOM     13  C   UNL     1       5.510   4.637  14.457  0.00  0.00    +0.000 C 
BRANCH  13  15
ATOM     14  C   UNL     1       5.512   3.364  12.265  0.00  0.00    +0.000 C 
ATOM     15  C   UNL     1       6.342   3.791  13.470  0.00  0.00    +0.000 C 
ENDBRANCH  13  15
ENDBRANCH   1  13
TORSDOF 3
ENDMDL
