MODEL 1
REMARK VINA RESULT:      -8.3      0.000      0.000
REMARK  Name = 
REMARK  10 active torsions:
REMARK  status: ('A' for Active; 'I' for Inactive)
REMARK    1  A    between atoms: C_1  and  O_2
REMARK    2  A    between atoms: O_2  and  C_3
REMARK    3  A    between atoms: C_3  and  C_4
REMARK    4  A    between atoms: C_3  and  C_14
REMARK    5  A    between atoms: N_6  and  C_7
REMARK    6  A    between atoms: C_7  and  C_8
REMARK    7  A    between atoms: C_14  and  O_16
REMARK    8  A    between atoms: O_16  and  C_17
REMARK    9  A    between atoms: C_21  and  C_22
REMARK   10  A    between atoms: C_22  and  O_24
REMARK                            x       y       z     vdW  Elec       q    Type
REMARK                         _______ _______ _______ _____ _____    ______ ____
ROOT
ATOM      1  C   UNL     1       6.741   6.128  17.844  0.00  0.00    +0.000 C 
ENDROOT
BRANCH   1   2
ATOM      2  C   UNL     1       5.349   5.973  18.484  0.00  0.00    +0.000 C 
ATOM      3  O   UNL     1       5.220   5.580  19.643  0.00  0.00    +0.000 OA
ATOM      4  N   UNL     1       4.286   6.317  17.686  0.00  0.00    +0.000 N 
ATOM      5  H   UNL     1       4.457   6.524  16.706  0.00  0.00    +0.000 HD
BRANCH   4   6
ATOM      6  C   UNL     1       2.912   6.225  18.125  0.00  0.00    +0.000 C 
BRANCH   6   7
ATOM      7  C   UNL     1       2.530   4.785  18.336  0.00  0.00    +0.000 A 
ATOM      8  C   UNL     1       2.852   3.806  17.386  0.00  0.00    +0.000 A 
ATOM      9  C   UNL     1       2.445   2.484  17.570  0.00  0.00    +0.000 A 
ATOM     10  C   UNL     1       1.712   2.129  18.702  0.00  0.00    +0.000 A 
ATOM     11  C   UNL     1       1.391   3.094  19.655  0.00  0.00    +0.000 A 
ATOM     12  C   UNL     1       1.795   4.416  19.473  0.00  0.00    +0.000 A 
ENDBRANCH   6   7
ENDBRANCH   4   6
ENDBRANCH   1   2
BRANCH   1  14
ATOM     13  C   UNL     1       7.813   8.226  17.656  0.00  0.00    +0.000 C 
ATOM     14  O   UNL     1       6.948   7.281  17.041  0.00  0.00    +0.000 OA
ENDBRANCH   1  14
BRANCH   1  15
ATOM     15  C   UNL     1       7.045   4.911  16.987  0.00  0.00    +0.000 C 
ATOM     16  O   UNL     1       8.059   4.227  17.067  0.00  0.00    +0.000 OA
BRANCH  15  17
ATOM     17  O   UNL     1       5.988   4.710  16.099  0.00  0.00    +0.000 OA
BRANCH  17  18
ATOM     18  C   UNL     1       6.227   4.552  14.722  0.00  0.00    +0.000 A 
ATOM     19  C   UNL     1       7.316   5.284  14.240  0.00  0.00    +0.000 A 
ATOM     20  C   UNL     1       7.740   5.106  12.925  0.00  0.00    +0.000 A 
ATOM     21  C   UNL     1       7.079   4.197  12.101  0.00  0.00    +0.000 A 
ATOM     22  C   UNL     1       5.978   3.477  12.582  0.00  0.00    +0.000 A 
ATOM     23  C   UNL     1       5.531   3.678  13.889  0.00  0.00    +0.000 A 
BRANCH  22  24
ATOM     24  C   UNL     1       5.297   2.534  11.658  0.00  0.00    +0.000 C 
ATOM     25  O   UNL     1       4.249   2.812  11.107  0.00  0.00    +0.000 OA
BRANCH  24  26
ATOM     26  O   UNL     1       5.951   1.377  11.442  0.00  0.00    +0.000 OA
ATOM     27  H   UNL     1       6.772   1.243  11.948  0.00  0.00    +0.000 HD
ENDBRANCH  24  26
ENDBRANCH  22  24
ENDBRANCH  17  18
ENDBRANCH  15  17
ENDBRANCH   1  15
TORSDOF 9
ENDMDL
MODEL 2
REMARK VINA RESULT:      -8.3      0.827      1.043
REMARK  Name = 
REMARK  10 active torsions:
REMARK  status: ('A' for Active; 'I' for Inactive)
REMARK    1  A    between atoms: C_1  and  O_2
REMARK    2  A    between atoms: O_2  and  C_3
REMARK    3  A    between atoms: C_3  and  C_4
REMARK    4  A    between atoms: C_3  and  C_14
REMARK    5  A    between atoms: N_6  and  C_7
REMARK    6  A    between atoms: C_7  and  C_8
REMARK    7  A    between atoms: C_14  and  O_16
REMARK    8  A    between atoms: O_16  and  C_17
REMARK    9  A    between atoms: C_21  and  C_22
REMARK   10  A    between atoms: C_22  and  O_24
REMARK                            x       y       z     vdW  Elec       q    Type
REMARK                         _______ _______ _______ _____ _____    ______ ____
ROOT
ATOM      1  C   UNL     1       6.659   6.334  17.475  0.00  0.00    +0.000 C 
ENDROOT
BRANCH   1   2
ATOM      2  C   UNL     1       5.132   6.520  17.448  0.00  0.00    +0.000 C 
ATOM      3  O   UNL     1       4.582   7.153  16.548  0.00  0.00    +0.000 OA
ATOM      4  N   UNL     1       4.441   5.923  18.475  0.00  0.00    +0.000 N 
ATOM      5  H   UNL     1       4.965   5.515  19.244  0.00  0.00    +0.000 HD
BRANCH   4   6
ATOM      6  C   UNL     1       3.004   6.006  18.607  0.00  0.00    +0.000 C 
BRANCH   6   7
ATOM      7  C   UNL     1       2.413   4.627  18.714  0.00  0.00    +0.000 A 
ATOM      8  C   UNL     1       2.748   3.625  17.793  0.00  0.00    +0.000 A 
ATOM      9  C   UNL     1       2.151   2.365  17.872  0.00  0.00    +0.000 A 
ATOM     10  C   UNL     1       1.214   2.097  18.869  0.00  0.00    +0.000 A 
ATOM     11  C   UNL     1       0.877   3.085  19.793  0.00  0.00    +0.000 A 
ATOM     12  C   UNL     1       1.471   4.345  19.715  0.00  0.00    +0.000 A 
ENDBRANCH   6   7
ENDBRANCH   4   6
ENDBRANCH   1   2
BRANCH   1  14
ATOM     13  C   UNL     1       7.966   8.285  17.749  0.00  0.00    +0.000 C 
ATOM     14  O   UNL     1       7.435   7.337  16.834  0.00  0.00    +0.000 OA
ENDBRANCH   1  14
BRANCH   1  15
ATOM     15  C   UNL     1       7.020   5.001  16.844  0.00  0.00    +0.000 C 
ATOM     16  O   UNL     1       8.048   4.370  17.064  0.00  0.00    +0.000 OA
BRANCH  15  17
ATOM     17  O   UNL     1       5.997   4.622  15.975  0.00  0.00    +0.000 OA
BRANCH  17  18
ATOM     18  C   UNL     1       6.241   4.475  14.598  0.00  0.00    +0.000 A 
ATOM     19  C   UNL     1       7.331   5.212  14.125  0.00  0.00    +0.000 A 
ATOM     20  C   UNL     1       7.760   5.045  12.811  0.00  0.00    +0.000 A 
ATOM     21  C   UNL     1       7.103   4.142  11.977  0.00  0.00    +0.000 A 
ATOM     22  C   UNL     1       6.001   3.417  12.447  0.00  0.00    +0.000 A 
ATOM     23  C   UNL     1       5.549   3.607  13.754  0.00  0.00    +0.000 A 
BRANCH  22  24
ATOM     24  C   UNL     1       5.325   2.481  11.513  0.00  0.00    +0.000 C 
ATOM     25  O   UNL     1       5.826   1.425  11.180  0.00  0.00    +0.000 OA
BRANCH  24  26
ATOM     26  O   UNL     1       4.101   2.868  11.107  0.00  0.00    +0.000 OA
ATOM     27  H   UNL     1       3.414   2.921  11.795  0.00  0.00    +0.000 HD
ENDBRANCH  24  26
ENDBRANCH  22  24
ENDBRANCH  17  18
ENDBRANCH  15  17
ENDBRANCH   1  15
TORSDOF 9
ENDMDL
MODEL 3
REMARK VINA RESULT:      -8.1      1.293      2.012
REMARK  Name = 
REMARK  10 active torsions:
REMARK  status: ('A' for Active; 'I' for Inactive)
REMARK    1  A    between atoms: C_1  and  O_2
REMARK    2  A    between atoms: O_2  and  C_3
REMARK    3  A    between atoms: C_3  and  C_4
REMARK    4  A    between atoms: C_3  and  C_14
REMARK    5  A    between atoms: N_6  and  C_7
REMARK    6  A    between atoms: C_7  and  C_8
REMARK    7  A    between atoms: C_14  and  O_16
REMARK    8  A    between atoms: O_16  and  C_17
REMARK    9  A    between atoms: C_21  and  C_22
REMARK   10  A    between atoms: C_22  and  O_24
REMARK                            x       y       z     vdW  Elec       q    Type
REMARK                         _______ _______ _______ _____ _____    ______ ____
ROOT
ATOM      1  C   UNL     1       5.632   6.136  17.513  0.00  0.00    +0.000 C 
ENDROOT
BRANCH   1   2
ATOM      2  C   UNL     1       5.334   4.769  18.156  0.00  0.00    +0.000 C 
ATOM      3  O   UNL     1       5.930   4.395  19.164  0.00  0.00    +0.000 OA
ATOM      4  N   UNL     1       4.358   4.023  17.541  0.00  0.00    +0.000 N 
ATOM      5  H   UNL     1       3.988   4.342  16.650  0.00  0.00    +0.000 HD
BRANCH   4   6
ATOM      6  C   UNL     1       3.959   2.715  18.008  0.00  0.00    +0.000 C 
BRANCH   6   7
ATOM      7  C   UNL     1       3.021   2.845  19.177  0.00  0.00    +0.000 A 
ATOM      8  C   UNL     1       3.415   2.454  20.464  0.00  0.00    +0.000 A 
ATOM      9  C   UNL     1       2.517   2.530  21.530  0.00  0.00    +0.000 A 
ATOM     10  C   UNL     1       1.220   2.994  21.320  0.00  0.00    +0.000 A 
ATOM     11  C   UNL     1       0.819   3.390  20.044  0.00  0.00    +0.000 A 
ATOM     12  C   UNL     1       1.714   3.313  18.978  0.00  0.00    +0.000 A 
ENDBRANCH   6   7
ENDBRANCH   4   6
ENDBRANCH   1   2
BRANCH   1  14
ATOM     13  C   UNL     1       3.605   7.351  17.552  0.00  0.00    +0.000 C 
ATOM     14  O   UNL     1       4.590   6.720  16.745  0.00  0.00    +0.000 OA
ENDBRANCH   1  14
BRANCH   1  15
ATOM     15  C   UNL     1       6.853   6.021  16.617  0.00  0.00    +0.000 C 
ATOM     16  O   UNL     1       7.692   6.899  16.451  0.00  0.00    +0.000 OA
BRANCH  15  17
ATOM     17  O   UNL     1       6.855   4.762  16.017  0.00  0.00    +0.000 OA
BRANCH  17  18
ATOM     18  C   UNL     1       6.802   4.632  14.618  0.00  0.00    +0.000 A 
ATOM     19  C   UNL     1       7.751   5.397  13.934  0.00  0.00    +0.000 A 
ATOM     20  C   UNL     1       7.893   5.250  12.556  0.00  0.00    +0.000 A 
ATOM     21  C   UNL     1       7.092   4.340  11.869  0.00  0.00    +0.000 A 
ATOM     22  C   UNL     1       6.131   3.587  12.555  0.00  0.00    +0.000 A 
ATOM     23  C   UNL     1       5.964   3.755  13.930  0.00  0.00    +0.000 A 
BRANCH  22  24
ATOM     24  C   UNL     1       5.289   2.644  11.775  0.00  0.00    +0.000 C 
ATOM     25  O   UNL     1       4.200   2.960  11.335  0.00  0.00    +0.000 OA
BRANCH  24  26
ATOM     26  O   UNL     1       5.843   1.436  11.552  0.00  0.00    +0.000 OA
ATOM     27  H   UNL     1       5.944   1.173  10.620  0.00  0.00    +0.000 HD
ENDBRANCH  24  26
ENDBRANCH  22  24
ENDBRANCH  17  18
ENDBRANCH  15  17
ENDBRANCH   1  15
TORSDOF 9
ENDMDL
MODEL 4
REMARK VINA RESULT:      -8.1      1.539      2.164
REMARK  Name = 
REMARK  10 active torsions:
REMARK  status: ('A' for Active; 'I' for Inactive)
REMARK    1  A    between atoms: C_1  and  O_2
REMARK    2  A    between atoms: O_2  and  C_3
REMARK    3  A    between atoms: C_3  and  C_4
REMARK    4  A    between atoms: C_3  and  C_14
REMARK    5  A    between atoms: N_6  and  C_7
REMARK    6  A    between atoms: C_7  and  C_8
REMARK    7  A    between atoms: C_14  and  O_16
REMARK    8  A    between atoms: O_16  and  C_17
REMARK    9  A    between atoms: C_21  and  C_22
REMARK   10  A    between atoms: C_22  and  O_24
REMARK                            x       y       z     vdW  Elec       q    Type
REMARK                         _______ _______ _______ _____ _____    ______ ____
ROOT
ATOM      1  C   UNL     1       6.246   4.910  17.815  0.00  0.00    +0.000 C 
ENDROOT
BRANCH   1   2
ATOM      2  C   UNL     1       4.833   4.311  17.698  0.00  0.00    +0.000 C 
ATOM      3  O   UNL     1       3.865   5.014  17.414  0.00  0.00    +0.000 OA
ATOM      4  N   UNL     1       4.741   2.957  17.912  0.00  0.00    +0.000 N 
ATOM      5  H   UNL     1       5.558   2.460  18.254  0.00  0.00    +0.000 HD
BRANCH   4   6
ATOM      6  C   UNL     1       3.490   2.236  17.849  0.00  0.00    +0.000 C 
BRANCH   6   7
ATOM      7  C   UNL     1       2.689   2.476  19.100  0.00  0.00    +0.000 A 
ATOM      8  C   UNL     1       1.330   2.813  19.032  0.00  0.00    +0.000 A 
ATOM      9  C   UNL     1       0.612   3.083  20.198  0.00  0.00    +0.000 A 
ATOM     10  C   UNL     1       1.244   3.023  21.439  0.00  0.00    +0.000 A 
ATOM     11  C   UNL     1       2.594   2.684  21.518  0.00  0.00    +0.000 A 
ATOM     12  C   UNL     1       3.314   2.414  20.354  0.00  0.00    +0.000 A 
ENDBRANCH   6   7
ENDBRANCH   4   6
ENDBRANCH   1   2
BRANCH   1  14
ATOM     13  C   UNL     1       7.797   5.661  19.435  0.00  0.00    +0.000 C 
ATOM     14  O   UNL     1       6.480   5.781  18.914  0.00  0.00    +0.000 OA
ENDBRANCH   1  14
BRANCH   1  15
ATOM     15  C   UNL     1       6.583   5.672  16.546  0.00  0.00    +0.000 C 
ATOM     16  O   UNL     1       6.183   6.798  16.271  0.00  0.00    +0.000 OA
BRANCH  15  17
ATOM     17  O   UNL     1       7.410   4.880  15.750  0.00  0.00    +0.000 OA
BRANCH  17  18
ATOM     18  C   UNL     1       7.159   4.734  14.374  0.00  0.00    +0.000 A 
ATOM     19  C   UNL     1       7.970   5.524  13.555  0.00  0.00    +0.000 A 
ATOM     20  C   UNL     1       7.916   5.369  12.173  0.00  0.00    +0.000 A 
ATOM     21  C   UNL     1       7.057   4.424  11.614  0.00  0.00    +0.000 A 
ATOM     22  C   UNL     1       6.234   3.644  12.436  0.00  0.00    +0.000 A 
ATOM     23  C   UNL     1       6.262   3.821  13.821  0.00  0.00    +0.000 A 
BRANCH  22  24
ATOM     24  C   UNL     1       5.323   2.664  11.792  0.00  0.00    +0.000 C 
ATOM     25  O   UNL     1       4.218   2.976  11.390  0.00  0.00    +0.000 OA
BRANCH  24  26
ATOM     26  O   UNL     1       5.831   1.426  11.644  0.00  0.00    +0.000 OA
ATOM     27  H   UNL     1       5.672   0.804  12.377  0.00  0.00    +0.000 HD
ENDBRANCH  24  26
ENDBRANCH  22  24
ENDBRANCH  17  18
ENDBRANCH  15  17
ENDBRANCH   1  15
TORSDOF 9
ENDMDL
MODEL 5
REMARK VINA RESULT:      -8.0      0.832      1.006
REMARK  Name = 
REMARK  10 active torsions:
REMARK  status: ('A' for Active; 'I' for Inactive)
REMARK    1  A    between atoms: C_1  and  O_2
REMARK    2  A    between atoms: O_2  and  C_3
REMARK    3  A    between atoms: C_3  and  C_4
REMARK    4  A    between atoms: C_3  and  C_14
REMARK    5  A    between atoms: N_6  and  C_7
REMARK    6  A    between atoms: C_7  and  C_8
REMARK    7  A    between atoms: C_14  and  O_16
REMARK    8  A    between atoms: O_16  and  C_17
REMARK    9  A    between atoms: C_21  and  C_22
REMARK   10  A    between atoms: C_22  and  O_24
REMARK                            x       y       z     vdW  Elec       q    Type
REMARK                         _______ _______ _______ _____ _____    ______ ____
ROOT
ATOM      1  C   UNL     1       6.416   5.831  17.629  0.00  0.00    +0.000 C 
ENDROOT
BRANCH   1   2
ATOM      2  C   UNL     1       5.282   5.908  18.667  0.00  0.00    +0.000 C 
ATOM      3  O   UNL     1       5.454   5.537  19.827  0.00  0.00    +0.000 OA
ATOM      4  N   UNL     1       4.095   6.430  18.214  0.00  0.00    +0.000 N 
ATOM      5  H   UNL     1       3.988   6.610  17.220  0.00  0.00    +0.000 HD
BRANCH   4   6
ATOM      6  C   UNL     1       2.927   6.567  19.053  0.00  0.00    +0.000 C 
BRANCH   6   7
ATOM      7  C   UNL     1       2.227   5.242  19.190  0.00  0.00    +0.000 A 
ATOM      8  C   UNL     1       1.959   4.448  18.067  0.00  0.00    +0.000 A 
ATOM      9  C   UNL     1       1.263   3.246  18.203  0.00  0.00    +0.000 A 
ATOM     10  C   UNL     1       0.827   2.828  19.460  0.00  0.00    +0.000 A 
ATOM     11  C   UNL     1       1.092   3.609  20.585  0.00  0.00    +0.000 A 
ATOM     12  C   UNL     1       1.787   4.811  20.451  0.00  0.00    +0.000 A 
ENDBRANCH   6   7
ENDBRANCH   4   6
ENDBRANCH   1   2
BRANCH   1  14
ATOM     13  C   UNL     1       7.589   7.876  17.453  0.00  0.00    +0.000 C 
ATOM     14  O   UNL     1       6.648   6.997  16.851  0.00  0.00    +0.000 OA
ENDBRANCH   1  14
BRANCH   1  15
ATOM     15  C   UNL     1       6.149   4.685  16.669  0.00  0.00    +0.000 C 
ATOM     16  O   UNL     1       5.146   3.979  16.672  0.00  0.00    +0.000 OA
BRANCH  15  17
ATOM     17  O   UNL     1       7.229   4.568  15.795  0.00  0.00    +0.000 OA
BRANCH  17  18
ATOM     18  C   UNL     1       7.025   4.495  14.405  0.00  0.00    +0.000 A 
ATOM     19  C   UNL     1       7.845   5.346  13.658  0.00  0.00    +0.000 A 
ATOM     20  C   UNL     1       7.839   5.267  12.268  0.00  0.00    +0.000 A 
ATOM     21  C   UNL     1       7.018   4.339  11.630  0.00  0.00    +0.000 A 
ATOM     22  C   UNL     1       6.185   3.499  12.380  0.00  0.00    +0.000 A 
ATOM     23  C   UNL     1       6.166   3.598  13.772  0.00  0.00    +0.000 A 
BRANCH  22  24
ATOM     24  C   UNL     1       5.316   2.539  11.652  0.00  0.00    +0.000 C 
ATOM     25  O   UNL     1       4.224   2.855  11.219  0.00  0.00    +0.000 OA
BRANCH  24  26
ATOM     26  O   UNL     1       5.848   1.316  11.467  0.00  0.00    +0.000 OA
ATOM     27  H   UNL     1       6.275   1.156  10.606  0.00  0.00    +0.000 HD
ENDBRANCH  24  26
ENDBRANCH  22  24
ENDBRANCH  17  18
ENDBRANCH  15  17
ENDBRANCH   1  15
TORSDOF 9
ENDMDL
MODEL 6
REMARK VINA RESULT:      -7.9      1.161      1.610
REMARK  Name = 
REMARK  10 active torsions:
REMARK  status: ('A' for Active; 'I' for Inactive)
REMARK    1  A    between atoms: C_1  and  O_2
REMARK    2  A    between atoms: O_2  and  C_3
REMARK    3  A    between atoms: C_3  and  C_4
REMARK    4  A    between atoms: C_3  and  C_14
REMARK    5  A    between atoms: N_6  and  C_7
REMARK    6  A    between atoms: C_7  and  C_8
REMARK    7  A    between atoms: C_14  and  O_16
REMARK    8  A    between atoms: O_16  and  C_17
REMARK    9  A    between atoms: C_21  and  C_22
REMARK   10  A    between atoms: C_22  and  O_24
REMARK                            x       y       z     vdW  Elec       q    Type
REMARK                         _______ _______ _______ _____ _____    ______ ____
ROOT
ATOM      1  C   UNL     1       6.859   5.769  18.039  0.00  0.00    +0.000 C 
ENDROOT
BRANCH   1   2
ATOM      2  C   UNL     1       5.914   5.101  19.053  0.00  0.00    +0.000 C 
ATOM      3  O   UNL     1       5.321   5.764  19.904  0.00  0.00    +0.000 OA
ATOM      4  N   UNL     1       5.772   3.741  18.928  0.00  0.00    +0.000 N 
ATOM      5  H   UNL     1       6.377   3.244  18.281  0.00  0.00    +0.000 HD
BRANCH   4   6
ATOM      6  C   UNL     1       4.931   2.956  19.802  0.00  0.00    +0.000 C 
BRANCH   6   7
ATOM      7  C   UNL     1       3.493   3.061  19.372  0.00  0.00    +0.000 A 
ATOM      8  C   UNL     1       2.458   3.093  20.317  0.00  0.00    +0.000 A 
ATOM      9  C   UNL     1       1.127   3.138  19.902  0.00  0.00    +0.000 A 
ATOM     10  C   UNL     1       0.817   3.149  18.543  0.00  0.00    +0.000 A 
ATOM     11  C   UNL     1       1.839   3.123  17.595  0.00  0.00    +0.000 A 
ATOM     12  C   UNL     1       3.171   3.077  18.007  0.00  0.00    +0.000 A 
ENDBRANCH   6   7
ENDBRANCH   4   6
ENDBRANCH   1   2
BRANCH   1  14
ATOM     13  C   UNL     1       7.472   7.974  17.443  0.00  0.00    +0.000 C 
ATOM     14  O   UNL     1       6.431   7.007  17.488  0.00  0.00    +0.000 OA
ENDBRANCH   1  14
BRANCH   1  15
ATOM     15  C   UNL     1       7.119   4.819  16.883  0.00  0.00    +0.000 C 
ATOM     16  O   UNL     1       8.083   4.067  16.790  0.00  0.00    +0.000 OA
BRANCH  15  17
ATOM     17  O   UNL     1       6.089   4.949  15.952  0.00  0.00    +0.000 OA
BRANCH  17  18
ATOM     18  C   UNL     1       6.317   4.697  14.587  0.00  0.00    +0.000 A 
ATOM     19  C   UNL     1       7.432   5.354  14.060  0.00  0.00    +0.000 A 
ATOM     20  C   UNL     1       7.845   5.079  12.759  0.00  0.00    +0.000 A 
ATOM     21  C   UNL     1       7.147   4.148  11.993  0.00  0.00    +0.000 A 
ATOM     22  C   UNL     1       6.020   3.503  12.517  0.00  0.00    +0.000 A 
ATOM     23  C   UNL     1       5.584   3.802  13.809  0.00  0.00    +0.000 A 
BRANCH  22  24
ATOM     24  C   UNL     1       5.299   2.533  11.653  0.00  0.00    +0.000 C 
ATOM     25  O   UNL     1       4.239   2.803  11.122  0.00  0.00    +0.000 OA
BRANCH  24  26
ATOM     26  O   UNL     1       5.930   1.359  11.466  0.00  0.00    +0.000 OA
ATOM     27  H   UNL     1       6.792   1.399  11.014  0.00  0.00    +0.000 HD
ENDBRANCH  24  26
ENDBRANCH  22  24
ENDBRANCH  17  18
ENDBRANCH  15  17
ENDBRANCH   1  15
TORSDOF 9
ENDMDL
MODEL 7
REMARK VINA RESULT:      -7.8      2.876      5.684
REMARK  Name = 
REMARK  10 active torsions:
REMARK  status: ('A' for Active; 'I' for Inactive)
REMARK    1  A    between atoms: C_1  and  O_2
REMARK    2  A    between atoms: O_2  and  C_3
REMARK    3  A    between atoms: C_3  and  C_4
REMARK    4  A    between atoms: C_3  and  C_14
REMARK    5  A    between atoms: N_6  and  C_7
REMARK    6  A    between atoms: C_7  and  C_8
REMARK    7  A    between atoms: C_14  and  O_16
REMARK    8  A    between atoms: O_16  and  C_17
REMARK    9  A    between atoms: C_21  and  C_22
REMARK   10  A    between atoms: C_22  and  O_24
REMARK                            x       y       z     vdW  Elec       q    Type
REMARK                         _______ _______ _______ _____ _____    ______ ____
ROOT
ATOM      1  C   UNL     1       2.757   3.404  19.480  0.00  0.00    +0.000 C 
ENDROOT
BRANCH   1   2
ATOM      2  C   UNL     1       1.887   4.457  20.190  0.00  0.00    +0.000 C 
ATOM      3  O   UNL     1       0.787   4.166  20.658  0.00  0.00    +0.000 OA
ATOM      4  N   UNL     1       2.429   5.717  20.275  0.00  0.00    +0.000 N 
ATOM      5  H   UNL     1       3.287   5.915  19.770  0.00  0.00    +0.000 HD
BRANCH   4   6
ATOM      6  C   UNL     1       1.744   6.825  20.901  0.00  0.00    +0.000 C 
BRANCH   6   7
ATOM      7  C   UNL     1       1.679   7.995  19.959  0.00  0.00    +0.000 A 
ATOM      8  C   UNL     1       0.998   9.168  20.310  0.00  0.00    +0.000 A 
ATOM      9  C   UNL     1       0.901  10.226  19.405  0.00  0.00    +0.000 A 
ATOM     10  C   UNL     1       1.481  10.121  18.142  0.00  0.00    +0.000 A 
ATOM     11  C   UNL     1       2.166   8.961  17.784  0.00  0.00    +0.000 A 
ATOM     12  C   UNL     1       2.263   7.902  18.686  0.00  0.00    +0.000 A 
ENDBRANCH   6   7
ENDBRANCH   4   6
ENDBRANCH   1   2
BRANCH   1  14
ATOM     13  C   UNL     1       4.623   2.071  20.052  0.00  0.00    +0.000 C 
ATOM     14  O   UNL     1       4.137   3.385  19.818  0.00  0.00    +0.000 OA
ENDBRANCH   1  14
BRANCH   1  15
ATOM     15  C   UNL     1       2.656   3.590  17.977  0.00  0.00    +0.000 C 
ATOM     16  O   UNL     1       2.213   2.760  17.190  0.00  0.00    +0.000 OA
BRANCH  15  17
ATOM     17  O   UNL     1       3.153   4.850  17.644  0.00  0.00    +0.000 OA
BRANCH  17  18
ATOM     18  C   UNL     1       4.499   5.017  17.272  0.00  0.00    +0.000 A 
ATOM     19  C   UNL     1       4.897   4.229  16.188  0.00  0.00    +0.000 A 
ATOM     20  C   UNL     1       6.163   4.403  15.636  0.00  0.00    +0.000 A 
ATOM     21  C   UNL     1       7.024   5.364  16.164  0.00  0.00    +0.000 A 
ATOM     22  C   UNL     1       6.628   6.141  17.259  0.00  0.00    +0.000 A 
ATOM     23  C   UNL     1       5.372   5.946  17.836  0.00  0.00    +0.000 A 
BRANCH  22  24
ATOM     24  C   UNL     1       7.588   7.140  17.797  0.00  0.00    +0.000 C 
ATOM     25  O   UNL     1       7.716   8.244  17.304  0.00  0.00    +0.000 OA
BRANCH  24  26
ATOM     26  O   UNL     1       8.265   6.747  18.893  0.00  0.00    +0.000 OA
ATOM     27  H   UNL     1       8.974   7.341  19.198  0.00  0.00    +0.000 HD
ENDBRANCH  24  26
ENDBRANCH  22  24
ENDBRANCH  17  18
ENDBRANCH  15  17
ENDBRANCH   1  15
TORSDOF 9
ENDMDL
MODEL 8
REMARK VINA RESULT:      -7.7      2.858      6.307
REMARK  Name = 
REMARK  10 active torsions:
REMARK  status: ('A' for Active; 'I' for Inactive)
REMARK    1  A    between atoms: C_1  and  O_2
REMARK    2  A    between atoms: O_2  and  C_3
REMARK    3  A    between atoms: C_3  and  C_4
REMARK    4  A    between atoms: C_3  and  C_14
REMARK    5  A    between atoms: N_6  and  C_7
REMARK    6  A    between atoms: C_7  and  C_8
REMARK    7  A    between atoms: C_14  and  O_16
REMARK    8  A    between atoms: O_16  and  C_17
REMARK    9  A    between atoms: C_21  and  C_22
REMARK   10  A    between atoms: C_22  and  O_24
REMARK                            x       y       z     vdW  Elec       q    Type
REMARK                         _______ _______ _______ _____ _____    ______ ____
ROOT
ATOM      1  C   UNL     1       5.518   5.468  16.271  0.00  0.00    +0.000 C 
ENDROOT
BRANCH   1   2
ATOM      2  C   UNL     1       5.375   4.303  17.266  0.00  0.00    +0.000 C 
ATOM      3  O   UNL     1       6.177   4.147  18.185  0.00  0.00    +0.000 OA
ATOM      4  N   UNL     1       4.295   3.478  17.064  0.00  0.00    +0.000 N 
ATOM      5  H   UNL     1       3.740   3.596  16.222  0.00  0.00    +0.000 HD
BRANCH   4   6
ATOM      6  C   UNL     1       4.015   2.333  17.900  0.00  0.00    +0.000 C 
BRANCH   6   7
ATOM      7  C   UNL     1       2.996   2.691  18.948  0.00  0.00    +0.000 A 
ATOM      8  C   UNL     1       1.682   3.023  18.592  0.00  0.00    +0.000 A 
ATOM      9  C   UNL     1       0.761   3.404  19.569  0.00  0.00    +0.000 A 
ATOM     10  C   UNL     1       1.145   3.459  20.908  0.00  0.00    +0.000 A 
ATOM     11  C   UNL     1       2.449   3.125  21.274  0.00  0.00    +0.000 A 
ATOM     12  C   UNL     1       3.371   2.745  20.298  0.00  0.00    +0.000 A 
ENDBRANCH   6   7
ENDBRANCH   4   6
ENDBRANCH   1   2
BRANCH   1  14
ATOM     13  C   UNL     1       6.970   4.666  14.586  0.00  0.00    +0.000 C 
ATOM     14  O   UNL     1       6.780   5.609  15.632  0.00  0.00    +0.000 OA
ENDBRANCH   1  14
BRANCH   1  15
ATOM     15  C   UNL     1       5.211   6.779  16.974  0.00  0.00    +0.000 C 
ATOM     16  O   UNL     1       6.008   7.423  17.647  0.00  0.00    +0.000 OA
BRANCH  15  17
ATOM     17  O   UNL     1       3.881   7.120  16.732  0.00  0.00    +0.000 OA
BRANCH  17  18
ATOM     18  C   UNL     1       3.021   7.460  17.791  0.00  0.00    +0.000 A 
ATOM     19  C   UNL     1       2.996   6.528  18.833  0.00  0.00    +0.000 A 
ATOM     20  C   UNL     1       2.293   6.815  20.000  0.00  0.00    +0.000 A 
ATOM     21  C   UNL     1       1.622   8.030  20.124  0.00  0.00    +0.000 A 
ATOM     22  C   UNL     1       1.634   8.955  19.073  0.00  0.00    +0.000 A 
ATOM     23  C   UNL     1       2.311   8.656  17.889  0.00  0.00    +0.000 A 
BRANCH  22  24
ATOM     24  C   UNL     1       0.888  10.227  19.247  0.00  0.00    +0.000 C 
ATOM     25  O   UNL     1       0.903  10.847  20.293  0.00  0.00    +0.000 OA
BRANCH  24  26
ATOM     26  O   UNL     1       0.240  10.663  18.150  0.00  0.00    +0.000 OA
ATOM     27  H   UNL     1      -0.100   9.976  17.548  0.00  0.00    +0.000 HD
ENDBRANCH  24  26
ENDBRANCH  22  24
ENDBRANCH  17  18
ENDBRANCH  15  17
ENDBRANCH   1  15
TORSDOF 9
ENDMDL
MODEL 9
REMARK VINA RESULT:      -7.7      1.320      1.933
REMARK  Name = 
REMARK  10 active torsions:
REMARK  status: ('A' for Active; 'I' for Inactive)
REMARK    1  A    between atoms: C_1  and  O_2
REMARK    2  A    between atoms: O_2  and  C_3
REMARK    3  A    between atoms: C_3  and  C_4
REMARK    4  A    between atoms: C_3  and  C_14
REMARK    5  A    between atoms: N_6  and  C_7
REMARK    6  A    between atoms: C_7  and  C_8
REMARK    7  A    between atoms: C_14  and  O_16
REMARK    8  A    between atoms: O_16  and  C_17
REMARK    9  A    between atoms: C_21  and  C_22
REMARK   10  A    between atoms: C_22  and  O_24
REMARK                            x       y       z     vdW  Elec       q    Type
REMARK                         _______ _______ _______ _____ _____    ______ ____
ROOT
ATOM      1  C   UNL     1       6.372   4.911  18.086  0.00  0.00    +0.000 C 
ENDROOT
BRANCH   1   2
ATOM      2  C   UNL     1       4.869   4.583  18.032  0.00  0.00    +0.000 C 
ATOM      3  O   UNL     1       4.019   5.451  18.225  0.00  0.00    +0.000 OA
ATOM      4  N   UNL     1       4.555   3.277  17.740  0.00  0.00    +0.000 N 
ATOM      5  H   UNL     1       5.303   2.591  17.705  0.00  0.00    +0.000 HD
BRANCH   4   6
ATOM      6  C   UNL     1       3.195   2.797  17.657  0.00  0.00    +0.000 C 
BRANCH   6   7
ATOM      7  C   UNL     1       2.556   2.811  19.019  0.00  0.00    +0.000 A 
ATOM      8  C   UNL     1       1.233   3.243  19.190  0.00  0.00    +0.000 A 
ATOM      9  C   UNL     1       0.670   3.301  20.466  0.00  0.00    +0.000 A 
ATOM     10  C   UNL     1       1.422   2.932  21.580  0.00  0.00    +0.000 A 
ATOM     11  C   UNL     1       2.737   2.497  21.421  0.00  0.00    +0.000 A 
ATOM     12  C   UNL     1       3.302   2.439  20.147  0.00  0.00    +0.000 A 
ENDBRANCH   6   7
ENDBRANCH   4   6
ENDBRANCH   1   2
BRANCH   1  14
ATOM     13  C   UNL     1       7.980   6.300  19.123  0.00  0.00    +0.000 C 
ATOM     14  O   UNL     1       6.721   6.235  18.466  0.00  0.00    +0.000 OA
ENDBRANCH   1  14
BRANCH   1  15
ATOM     15  C   UNL     1       7.001   4.642  16.731  0.00  0.00    +0.000 C 
ATOM     16  O   UNL     1       8.086   4.102  16.550  0.00  0.00    +0.000 OA
BRANCH  15  17
ATOM     17  O   UNL     1       6.146   5.114  15.735  0.00  0.00    +0.000 OA
BRANCH  17  18
ATOM     18  C   UNL     1       6.366   4.790  14.384  0.00  0.00    +0.000 A 
ATOM     19  C   UNL     1       7.472   5.426  13.814  0.00  0.00    +0.000 A 
ATOM     20  C   UNL     1       7.877   5.083  12.526  0.00  0.00    +0.000 A 
ATOM     21  C   UNL     1       7.181   4.106  11.817  0.00  0.00    +0.000 A 
ATOM     22  C   UNL     1       6.064   3.482  12.385  0.00  0.00    +0.000 A 
ATOM     23  C   UNL     1       5.635   3.847  13.662  0.00  0.00    +0.000 A 
BRANCH  22  24
ATOM     24  C   UNL     1       5.345   2.460  11.581  0.00  0.00    +0.000 C 
ATOM     25  O   UNL     1       5.828   1.370  11.339  0.00  0.00    +0.000 OA
BRANCH  24  26
ATOM     26  O   UNL     1       4.107   2.813  11.187  0.00  0.00    +0.000 OA
ATOM     27  H   UNL     1       3.866   2.588  10.270  0.00  0.00    +0.000 HD
ENDBRANCH  24  26
ENDBRANCH  22  24
ENDBRANCH  17  18
ENDBRANCH  15  17
ENDBRANCH   1  15
TORSDOF 9
ENDMDL
