MODEL 1
REMARK VINA RESULT:      -7.0      0.000      0.000
REMARK  Name = 
REMARK  10 active torsions:
REMARK  status: ('A' for Active; 'I' for Inactive)
REMARK    1  A    between atoms: C_1  and  C_2
REMARK    2  A    between atoms: C_2  and  C_3
REMARK    3  A    between atoms: N_5  and  C_6
REMARK    4  A    between atoms: N_5  and  C_7
REMARK    5  A    between atoms: C_7  and  C_8
REMARK    6  A    between atoms: N_19  and  C_20
REMARK    7  A    between atoms: C_20  and  C_21
REMARK    8  A    between atoms: C_20  and  C_22
REMARK    9  A    between atoms: C_22  and  O_23
REMARK   10  A    between atoms: C_25  and  C_26
REMARK                            x       y       z     vdW  Elec       q    Type
REMARK                         _______ _______ _______ _____ _____    ______ ____
ROOT
ATOM      1  C   UNL     1       4.943   5.388  17.271  0.00  0.00    +0.000 C 
ATOM      2  O   UNL     1       3.947   6.358  16.869  0.00  0.00    +0.000 OA
ATOM      3  C   UNL     1       3.095   6.808  17.833  0.00  0.00    +0.000 A 
ATOM      4  N   UNL     1       3.017   8.167  17.846  0.00  0.00    +0.000 NA
ATOM      5  C   UNL     1       2.365   8.749  18.885  0.00  0.00    +0.000 A 
ATOM      6  C   UNL     1       1.787   8.041  19.923  0.00  0.00    +0.000 A 
ATOM      7 BR   UNL     1       0.980   8.927  21.377  0.00  0.00    +0.000 Br
ATOM      8  C   UNL     1       1.846   6.659  19.890  0.00  0.00    +0.000 A 
ATOM      9  C   UNL     1       2.513   6.031  18.828  0.00  0.00    +0.000 A 
ATOM     10  C   UNL     1       2.526   4.567  18.864  0.00  0.00    +0.000 C 
ATOM     11  O   UNL     1       1.494   4.014  18.492  0.00  0.00    +0.000 OA
ATOM     12  N   UNL     1       3.578   3.910  19.509  0.00  0.00    +0.000 N 
ATOM     13  C   UNL     1       4.981   4.371  19.608  0.00  0.00    +0.000 C 
ATOM     14  C   UNL     1       5.409   5.586  18.760  0.00  0.00    +0.000 C 
ATOM     15  C   UNL     1       6.888   5.917  18.972  0.00  0.00    +0.000 C 
ENDROOT
BRANCH  12  16
ATOM     16  C   UNL     1       3.271   2.618  20.183  0.00  0.00    +0.000 C 
ATOM     17  C   UNL     1       4.548   1.803  20.439  0.00  0.00    +0.000 C 
BRANCH  16  18
ATOM     18  C   UNL     1       2.439   2.763  21.469  0.00  0.00    +0.000 C 
BRANCH  18  19
ATOM     19  O   UNL     1       1.048   2.713  21.160  0.00  0.00    +0.000 OA
ATOM     20  H   UNL     1       0.960   2.159  20.362  0.00  0.00    +0.000 HD
ENDBRANCH  18  19
ENDBRANCH  16  18
ENDBRANCH  12  16
BRANCH   1  21
ATOM     21  C   UNL     1       6.098   5.443  16.238  0.00  0.00    +0.000 C 
BRANCH  21  24
ATOM     22  C   UNL     1       6.677   4.584  14.000  0.00  0.00    +0.000 C 
ATOM     23  O   UNL     1       7.312   5.613  13.768  0.00  0.00    +0.000 OA
ATOM     24  N   UNL     1       6.072   4.368  15.235  0.00  0.00    +0.000 N 
ATOM     25  C   UNL     1       5.375   3.146  15.618  0.00  0.00    +0.000 C 
BRANCH  22  27
ATOM     26  C   UNL     1       5.182   3.595  12.187  0.00  0.00    +0.000 C 
ATOM     27  C   UNL     1       6.494   3.495  12.948  0.00  0.00    +0.000 C 
ENDBRANCH  22  27
ENDBRANCH  21  24
ENDBRANCH   1  21
TORSDOF 6
ENDMDL
MODEL 2
REMARK VINA RESULT:      -6.9      0.977      1.199
REMARK  Name = 
REMARK  10 active torsions:
REMARK  status: ('A' for Active; 'I' for Inactive)
REMARK    1  A    between atoms: C_1  and  C_2
REMARK    2  A    between atoms: C_2  and  C_3
REMARK    3  A    between atoms: N_5  and  C_6
REMARK    4  A    between atoms: N_5  and  C_7
REMARK    5  A    between atoms: C_7  and  C_8
REMARK    6  A    between atoms: N_19  and  C_20
REMARK    7  A    between atoms: C_20  and  C_21
REMARK    8  A    between atoms: C_20  and  C_22
REMARK    9  A    between atoms: C_22  and  O_23
REMARK   10  A    between atoms: C_25  and  C_26
REMARK                            x       y       z     vdW  Elec       q    Type
REMARK                         _______ _______ _______ _____ _____    ______ ____
ROOT
ATOM      1  C   UNL     1       5.101   5.393  17.041  0.00  0.00    +0.000 C 
ATOM      2  O   UNL     1       4.037   6.314  16.699  0.00  0.00    +0.000 OA
ATOM      3  C   UNL     1       3.208   6.707  17.708  0.00  0.00    +0.000 A 
ATOM      4  N   UNL     1       3.059   8.059  17.743  0.00  0.00    +0.000 NA
ATOM      5  C   UNL     1       2.427   8.593  18.819  0.00  0.00    +0.000 A 
ATOM      6  C   UNL     1       1.937   7.845  19.873  0.00  0.00    +0.000 A 
ATOM      7 BR   UNL     1       1.153   8.669  21.375  0.00  0.00    +0.000 Br
ATOM      8  C   UNL     1       2.067   6.468  19.818  0.00  0.00    +0.000 A 
ATOM      9  C   UNL     1       2.715   5.888  18.718  0.00  0.00    +0.000 A 
ATOM     10  C   UNL     1       2.808   4.427  18.733  0.00  0.00    +0.000 C 
ATOM     11  O   UNL     1       1.790   3.824  18.401  0.00  0.00    +0.000 OA
ATOM     12  N   UNL     1       3.921   3.820  19.319  0.00  0.00    +0.000 N 
ATOM     13  C   UNL     1       5.301   4.353  19.359  0.00  0.00    +0.000 C 
ATOM     14  C   UNL     1       5.624   5.599  18.509  0.00  0.00    +0.000 C 
ATOM     15  C   UNL     1       7.093   6.006  18.658  0.00  0.00    +0.000 C 
ENDROOT
BRANCH  12  16
ATOM     16  C   UNL     1       3.716   2.505  19.989  0.00  0.00    +0.000 C 
ATOM     17  C   UNL     1       2.770   2.631  21.192  0.00  0.00    +0.000 C 
BRANCH  16  18
ATOM     18  C   UNL     1       3.260   1.384  19.040  0.00  0.00    +0.000 C 
BRANCH  18  19
ATOM     19  O   UNL     1       4.391   0.675  18.540  0.00  0.00    +0.000 OA
ATOM     20  H   UNL     1       5.084   0.740  19.223  0.00  0.00    +0.000 HD
ENDBRANCH  18  19
ENDBRANCH  16  18
ENDBRANCH  12  16
BRANCH   1  21
ATOM     21  C   UNL     1       6.201   5.522  15.957  0.00  0.00    +0.000 C 
BRANCH  21  24
ATOM     22  C   UNL     1       6.867   4.623  13.759  0.00  0.00    +0.000 C 
ATOM     23  O   UNL     1       7.492   5.658  13.524  0.00  0.00    +0.000 OA
ATOM     24  N   UNL     1       6.226   4.424  14.979  0.00  0.00    +0.000 N 
ATOM     25  C   UNL     1       5.538   3.199  15.367  0.00  0.00    +0.000 C 
BRANCH  22  27
ATOM     26  C   UNL     1       5.377   3.458  12.050  0.00  0.00    +0.000 C 
ATOM     27  C   UNL     1       6.736   3.508  12.727  0.00  0.00    +0.000 C 
ENDBRANCH  22  27
ENDBRANCH  21  24
ENDBRANCH   1  21
TORSDOF 6
ENDMDL
MODEL 3
REMARK VINA RESULT:      -6.5      1.394      1.511
REMARK  Name = 
REMARK  10 active torsions:
REMARK  status: ('A' for Active; 'I' for Inactive)
REMARK    1  A    between atoms: C_1  and  C_2
REMARK    2  A    between atoms: C_2  and  C_3
REMARK    3  A    between atoms: N_5  and  C_6
REMARK    4  A    between atoms: N_5  and  C_7
REMARK    5  A    between atoms: C_7  and  C_8
REMARK    6  A    between atoms: N_19  and  C_20
REMARK    7  A    between atoms: C_20  and  C_21
REMARK    8  A    between atoms: C_20  and  C_22
REMARK    9  A    between atoms: C_22  and  O_23
REMARK   10  A    between atoms: C_25  and  C_26
REMARK                            x       y       z     vdW  Elec       q    Type
REMARK                         _______ _______ _______ _____ _____    ______ ____
ROOT
ATOM      1  C   UNL     1       5.544   5.351  16.698  0.00  0.00    +0.000 C 
ATOM      2  O   UNL     1       4.583   6.332  16.239  0.00  0.00    +0.000 OA
ATOM      3  C   UNL     1       3.640   6.743  17.134  0.00  0.00    +0.000 A 
ATOM      4  N   UNL     1       3.551   8.100  17.190  0.00  0.00    +0.000 NA
ATOM      5  C   UNL     1       2.800   8.640  18.183  0.00  0.00    +0.000 A 
ATOM      6  C   UNL     1       2.133   7.892  19.136  0.00  0.00    +0.000 A 
ATOM      7 BR   UNL     1       1.185   8.720  20.538  0.00  0.00    +0.000 Br
ATOM      8  C   UNL     1       2.204   6.512  19.057  0.00  0.00    +0.000 A 
ATOM      9  C   UNL     1       2.972   5.927  18.041  0.00  0.00    +0.000 A 
ATOM     10  C   UNL     1       2.993   4.463  18.024  0.00  0.00    +0.000 C 
ATOM     11  O   UNL     1       2.005   3.920  17.536  0.00  0.00    +0.000 OA
ATOM     12  N   UNL     1       3.984   3.786  18.741  0.00  0.00    +0.000 N 
ATOM     13  C   UNL     1       5.368   4.248  18.989  0.00  0.00    +0.000 C 
ATOM     14  C   UNL     1       5.865   5.495  18.230  0.00  0.00    +0.000 C 
ATOM     15  C   UNL     1       7.316   5.823  18.594  0.00  0.00    +0.000 C 
ENDROOT
BRANCH  12  16
ATOM     16  C   UNL     1       3.625   2.468  19.335  0.00  0.00    +0.000 C 
ATOM     17  C   UNL     1       3.791   1.331  18.317  0.00  0.00    +0.000 C 
BRANCH  16  18
ATOM     18  C   UNL     1       4.362   2.151  20.647  0.00  0.00    +0.000 C 
BRANCH  18  19
ATOM     19  O   UNL     1       5.421   1.227  20.403  0.00  0.00    +0.000 OA
ATOM     20  H   UNL     1       5.722   0.911  21.276  0.00  0.00    +0.000 HD
ENDBRANCH  18  19
ENDBRANCH  16  18
ENDBRANCH  12  16
BRANCH   1  21
ATOM     21  C   UNL     1       6.790   5.449  15.781  0.00  0.00    +0.000 C 
BRANCH  21  24
ATOM     22  C   UNL     1       7.544   5.194  13.447  0.00  0.00    +0.000 C 
ATOM     23  O   UNL     1       8.582   5.799  13.715  0.00  0.00    +0.000 OA
ATOM     24  N   UNL     1       6.596   4.911  14.427  0.00  0.00    +0.000 N 
ATOM     25  C   UNL     1       5.385   4.129  14.211  0.00  0.00    +0.000 C 
BRANCH  22  27
ATOM     26  C   UNL     1       7.246   3.227  11.852  0.00  0.00    +0.000 C 
ATOM     27  C   UNL     1       7.220   4.736  12.029  0.00  0.00    +0.000 C 
ENDBRANCH  22  27
ENDBRANCH  21  24
ENDBRANCH   1  21
TORSDOF 6
ENDMDL
MODEL 4
REMARK VINA RESULT:      -6.1      1.298      1.514
REMARK  Name = 
REMARK  10 active torsions:
REMARK  status: ('A' for Active; 'I' for Inactive)
REMARK    1  A    between atoms: C_1  and  C_2
REMARK    2  A    between atoms: C_2  and  C_3
REMARK    3  A    between atoms: N_5  and  C_6
REMARK    4  A    between atoms: N_5  and  C_7
REMARK    5  A    between atoms: C_7  and  C_8
REMARK    6  A    between atoms: N_19  and  C_20
REMARK    7  A    between atoms: C_20  and  C_21
REMARK    8  A    between atoms: C_20  and  C_22
REMARK    9  A    between atoms: C_22  and  O_23
REMARK   10  A    between atoms: C_25  and  C_26
REMARK                            x       y       z     vdW  Elec       q    Type
REMARK                         _______ _______ _______ _____ _____    ______ ____
ROOT
ATOM      1  C   UNL     1       5.769   5.276  16.720  0.00  0.00    +0.000 C 
ATOM      2  O   UNL     1       4.858   6.270  16.195  0.00  0.00    +0.000 OA
ATOM      3  C   UNL     1       3.846   6.678  17.013  0.00  0.00    +0.000 A 
ATOM      4  N   UNL     1       3.764   8.035  17.077  0.00  0.00    +0.000 NA
ATOM      5  C   UNL     1       2.936   8.570  18.011  0.00  0.00    +0.000 A 
ATOM      6  C   UNL     1       2.185   7.818  18.894  0.00  0.00    +0.000 A 
ATOM      7 BR   UNL     1       1.130   8.637  20.223  0.00  0.00    +0.000 Br
ATOM      8  C   UNL     1       2.252   6.438  18.805  0.00  0.00    +0.000 A 
ATOM      9  C   UNL     1       3.099   5.858  17.850  0.00  0.00    +0.000 A 
ATOM     10  C   UNL     1       3.110   4.394  17.817  0.00  0.00    +0.000 C 
ATOM     11  O   UNL     1       2.162   3.865  17.241  0.00  0.00    +0.000 OA
ATOM     12  N   UNL     1       4.032   3.701  18.606  0.00  0.00    +0.000 N 
ATOM     13  C   UNL     1       5.394   4.148  18.975  0.00  0.00    +0.000 C 
ATOM     14  C   UNL     1       5.963   5.399  18.276  0.00  0.00    +0.000 C 
ATOM     15  C   UNL     1       7.380   5.711  18.764  0.00  0.00    +0.000 C 
ENDROOT
BRANCH  12  16
ATOM     16  C   UNL     1       3.614   2.379  19.152  0.00  0.00    +0.000 C 
ATOM     17  C   UNL     1       4.612   1.865  20.200  0.00  0.00    +0.000 C 
BRANCH  16  18
ATOM     18  C   UNL     1       2.175   2.352  19.696  0.00  0.00    +0.000 C 
BRANCH  18  19
ATOM     19  O   UNL     1       1.338   1.592  18.828  0.00  0.00    +0.000 OA
ATOM     20  H   UNL     1       0.751   1.062  19.401  0.00  0.00    +0.000 HD
ENDBRANCH  18  19
ENDBRANCH  16  18
ENDBRANCH  12  16
BRANCH   1  21
ATOM     21  C   UNL     1       7.089   5.373  15.913  0.00  0.00    +0.000 C 
BRANCH  21  24
ATOM     22  C   UNL     1       6.189   3.824  14.218  0.00  0.00    +0.000 C 
ATOM     23  O   UNL     1       5.502   3.277  15.081  0.00  0.00    +0.000 OA
ATOM     24  N   UNL     1       6.984   4.928  14.515  0.00  0.00    +0.000 N 
ATOM     25  C   UNL     1       7.760   5.682  13.538  0.00  0.00    +0.000 C 
BRANCH  22  27
ATOM     26  C   UNL     1       4.904   3.431  12.052  0.00  0.00    +0.000 C 
ATOM     27  C   UNL     1       6.232   3.316  12.780  0.00  0.00    +0.000 C 
ENDBRANCH  22  27
ENDBRANCH  21  24
ENDBRANCH   1  21
TORSDOF 6
ENDMDL
MODEL 5
REMARK VINA RESULT:      -5.8      3.119      6.384
REMARK  Name = 
REMARK  10 active torsions:
REMARK  status: ('A' for Active; 'I' for Inactive)
REMARK    1  A    between atoms: C_1  and  C_2
REMARK    2  A    between atoms: C_2  and  C_3
REMARK    3  A    between atoms: N_5  and  C_6
REMARK    4  A    between atoms: N_5  and  C_7
REMARK    5  A    between atoms: C_7  and  C_8
REMARK    6  A    between atoms: N_19  and  C_20
REMARK    7  A    between atoms: C_20  and  C_21
REMARK    8  A    between atoms: C_20  and  C_22
REMARK    9  A    between atoms: C_22  and  O_23
REMARK   10  A    between atoms: C_25  and  C_26
REMARK                            x       y       z     vdW  Elec       q    Type
REMARK                         _______ _______ _______ _____ _____    ______ ____
ROOT
ATOM      1  C   UNL     1       3.139   6.658  18.524  0.00  0.00    +0.000 C 
ATOM      2  O   UNL     1       4.297   7.164  17.817  0.00  0.00    +0.000 OA
ATOM      3  C   UNL     1       4.940   6.301  16.980  0.00  0.00    +0.000 A 
ATOM      4  N   UNL     1       5.153   6.849  15.753  0.00  0.00    +0.000 NA
ATOM      5  C   UNL     1       5.597   6.029  14.767  0.00  0.00    +0.000 A 
ATOM      6  C   UNL     1       5.837   4.679  14.940  0.00  0.00    +0.000 A 
ATOM      7 BR   UNL     1       6.366   3.588  13.498  0.00  0.00    +0.000 Br
ATOM      8  C   UNL     1       5.646   4.133  16.198  0.00  0.00    +0.000 A 
ATOM      9  C   UNL     1       5.187   4.956  17.235  0.00  0.00    +0.000 A 
ATOM     10  C   UNL     1       5.014   4.305  18.535  0.00  0.00    +0.000 C 
ATOM     11  O   UNL     1       6.042   4.125  19.184  0.00  0.00    +0.000 OA
ATOM     12  N   UNL     1       3.778   3.736  18.853  0.00  0.00    +0.000 N 
ATOM     13  C   UNL     1       2.447   4.207  18.412  0.00  0.00    +0.000 C 
ATOM     14  C   UNL     1       2.359   5.571  17.698  0.00  0.00    +0.000 C 
ATOM     15  C   UNL     1       0.913   5.909  17.323  0.00  0.00    +0.000 C 
ENDROOT
BRANCH  12  16
ATOM     16  C   UNL     1       3.782   2.521  19.716  0.00  0.00    +0.000 C 
ATOM     17  C   UNL     1       2.951   2.735  20.989  0.00  0.00    +0.000 C 
BRANCH  16  18
ATOM     18  C   UNL     1       3.357   1.234  18.987  0.00  0.00    +0.000 C 
BRANCH  18  19
ATOM     19  O   UNL     1       4.503   0.442  18.684  0.00  0.00    +0.000 OA
ATOM     20  H   UNL     1       4.917   0.841  17.896  0.00  0.00    +0.000 HD
ENDBRANCH  18  19
ENDBRANCH  16  18
ENDBRANCH  12  16
BRANCH   1  21
ATOM     21  C   UNL     1       2.274   7.874  18.940  0.00  0.00    +0.000 C 
BRANCH  21  24
ATOM     22  C   UNL     1       1.161   8.938  20.867  0.00  0.00    +0.000 C 
ATOM     23  O   UNL     1       1.017   9.972  20.214  0.00  0.00    +0.000 OA
ATOM     24  N   UNL     1       1.731   7.798  20.304  0.00  0.00    +0.000 N 
ATOM     25  C   UNL     1       1.860   6.513  20.980  0.00  0.00    +0.000 C 
BRANCH  22  27
ATOM     26  C   UNL     1      -0.416   9.751  22.698  0.00  0.00    +0.000 C 
ATOM     27  C   UNL     1       0.748   8.845  22.332  0.00  0.00    +0.000 C 
ENDBRANCH  22  27
ENDBRANCH  21  24
ENDBRANCH   1  21
TORSDOF 6
ENDMDL
MODEL 6
REMARK VINA RESULT:      -5.5      0.894      1.079
REMARK  Name = 
REMARK  10 active torsions:
REMARK  status: ('A' for Active; 'I' for Inactive)
REMARK    1  A    between atoms: C_1  and  C_2
REMARK    2  A    between atoms: C_2  and  C_3
REMARK    3  A    between atoms: N_5  and  C_6
REMARK    4  A    between atoms: N_5  and  C_7
REMARK    5  A    between atoms: C_7  and  C_8
REMARK    6  A    between atoms: N_19  and  C_20
REMARK    7  A    between atoms: C_20  and  C_21
REMARK    8  A    between atoms: C_20  and  C_22
REMARK    9  A    between atoms: C_22  and  O_23
REMARK   10  A    between atoms: C_25  and  C_26
REMARK                            x       y       z     vdW  Elec       q    Type
REMARK                         _______ _______ _______ _____ _____    ______ ____
ROOT
ATOM      1  C   UNL     1       4.893   5.419  17.485  0.00  0.00    +0.000 C 
ATOM      2  O   UNL     1       3.892   6.388  17.090  0.00  0.00    +0.000 OA
ATOM      3  C   UNL     1       3.017   6.802  18.051  0.00  0.00    +0.000 A 
ATOM      4  N   UNL     1       2.923   8.159  18.098  0.00  0.00    +0.000 NA
ATOM      5  C   UNL     1       2.246   8.706  19.140  0.00  0.00    +0.000 A 
ATOM      6  C   UNL     1       1.659   7.964  20.149  0.00  0.00    +0.000 A 
ATOM      7 BR   UNL     1       0.815   8.801  21.611  0.00  0.00    +0.000 Br
ATOM      8  C   UNL     1       1.734   6.584  20.080  0.00  0.00    +0.000 A 
ATOM      9  C   UNL     1       2.427   5.992  19.015  0.00  0.00    +0.000 A 
ATOM     10  C   UNL     1       2.458   4.529  19.012  0.00  0.00    +0.000 C 
ATOM     11  O   UNL     1       1.439   3.973  18.607  0.00  0.00    +0.000 OA
ATOM     12  N   UNL     1       3.506   3.867  19.658  0.00  0.00    +0.000 N 
ATOM     13  C   UNL     1       4.901   4.340  19.794  0.00  0.00    +0.000 C 
ATOM     14  C   UNL     1       5.330   5.582  18.986  0.00  0.00    +0.000 C 
ATOM     15  C   UNL     1       6.801   5.924  19.234  0.00  0.00    +0.000 C 
ENDROOT
BRANCH  12  16
ATOM     16  C   UNL     1       3.203   2.553  20.292  0.00  0.00    +0.000 C 
ATOM     17  C   UNL     1       4.479   1.724  20.499  0.00  0.00    +0.000 C 
BRANCH  16  18
ATOM     18  C   UNL     1       2.393   2.659  21.596  0.00  0.00    +0.000 C 
BRANCH  18  19
ATOM     19  O   UNL     1       0.999   2.720  21.302  0.00  0.00    +0.000 OA
ATOM     20  H   UNL     1       0.544   2.216  22.004  0.00  0.00    +0.000 HD
ENDBRANCH  18  19
ENDBRANCH  16  18
ENDBRANCH  12  16
BRANCH   1  21
ATOM     21  C   UNL     1       6.064   5.515  16.474  0.00  0.00    +0.000 C 
BRANCH  21  24
ATOM     22  C   UNL     1       5.760   4.015  14.540  0.00  0.00    +0.000 C 
ATOM     23  O   UNL     1       6.052   3.047  15.244  0.00  0.00    +0.000 OA
ATOM     24  N   UNL     1       5.680   5.300  15.072  0.00  0.00    +0.000 N 
ATOM     25  C   UNL     1       5.262   6.482  14.329  0.00  0.00    +0.000 C 
BRANCH  22  27
ATOM     26  C   UNL     1       6.748   3.672  12.215  0.00  0.00    +0.000 C 
ATOM     27  C   UNL     1       5.492   3.874  13.046  0.00  0.00    +0.000 C 
ENDBRANCH  22  27
ENDBRANCH  21  24
ENDBRANCH   1  21
TORSDOF 6
ENDMDL
MODEL 7
REMARK VINA RESULT:      -5.5      8.674     11.943
REMARK  Name = 
REMARK  10 active torsions:
REMARK  status: ('A' for Active; 'I' for Inactive)
REMARK    1  A    between atoms: C_1  and  C_2
REMARK    2  A    between atoms: C_2  and  C_3
REMARK    3  A    between atoms: N_5  and  C_6
REMARK    4  A    between atoms: N_5  and  C_7
REMARK    5  A    between atoms: C_7  and  C_8
REMARK    6  A    between atoms: N_19  and  C_20
REMARK    7  A    between atoms: C_20  and  C_21
REMARK    8  A    between atoms: C_20  and  C_22
REMARK    9  A    between atoms: C_22  and  O_23
REMARK   10  A    between atoms: C_25  and  C_26
REMARK                            x       y       z     vdW  Elec       q    Type
REMARK                         _______ _______ _______ _____ _____    ______ ____
ROOT
ATOM      1  C   UNL     1      -1.691  13.359  21.956  0.00  0.00    +0.000 C 
ATOM      2  O   UNL     1      -2.837  13.504  21.083  0.00  0.00    +0.000 OA
ATOM      3  C   UNL     1      -2.763  12.910  19.858  0.00  0.00    +0.000 A 
ATOM      4  N   UNL     1      -3.868  12.162  19.591  0.00  0.00    +0.000 NA
ATOM      5  C   UNL     1      -3.832  11.358  18.498  0.00  0.00    +0.000 A 
ATOM      6  C   UNL     1      -2.742  11.255  17.654  0.00  0.00    +0.000 A 
ATOM      7 BR   UNL     1      -2.736  10.046  16.209  0.00  0.00    +0.000 Br
ATOM      8  C   UNL     1      -1.632  12.039  17.916  0.00  0.00    +0.000 A 
ATOM      9  C   UNL     1      -1.640  12.879  19.038  0.00  0.00    +0.000 A 
ATOM     10  C   UNL     1      -0.431  13.678  19.243  0.00  0.00    +0.000 C 
ATOM     11  O   UNL     1      -0.328  14.682  18.540  0.00  0.00    +0.000 OA
ATOM     12  N   UNL     1       0.606  13.159  20.022  0.00  0.00    +0.000 N 
ATOM     13  C   UNL     1       0.471  12.252  21.183  0.00  0.00    +0.000 C 
ATOM     14  C   UNL     1      -0.942  11.992  21.743  0.00  0.00    +0.000 C 
ATOM     15  C   UNL     1      -0.898  11.045  22.945  0.00  0.00    +0.000 C 
ENDROOT
BRANCH  12  16
ATOM     16  C   UNL     1       1.999  13.537  19.654  0.00  0.00    +0.000 C 
ATOM     17  C   UNL     1       2.905  13.614  20.892  0.00  0.00    +0.000 C 
BRANCH  16  18
ATOM     18  C   UNL     1       2.623  12.646  18.566  0.00  0.00    +0.000 C 
BRANCH  18  19
ATOM     19  O   UNL     1       2.204  13.083  17.275  0.00  0.00    +0.000 OA
ATOM     20  H   UNL     1       1.394  12.582  17.061  0.00  0.00    +0.000 HD
ENDBRANCH  18  19
ENDBRANCH  16  18
ENDBRANCH  12  16
BRANCH   1  21
ATOM     21  C   UNL     1      -2.174  13.591  23.410  0.00  0.00    +0.000 C 
BRANCH  21  24
ATOM     22  C   UNL     1      -4.523  12.982  23.849  0.00  0.00    +0.000 C 
ATOM     23  O   UNL     1      -4.175  11.834  24.126  0.00  0.00    +0.000 OA
ATOM     24  N   UNL     1      -3.591  13.966  23.530  0.00  0.00    +0.000 N 
ATOM     25  C   UNL     1      -3.913  15.364  23.273  0.00  0.00    +0.000 C 
BRANCH  22  27
ATOM     26  C   UNL     1      -6.774  12.774  22.670  0.00  0.00    +0.000 C 
ATOM     27  C   UNL     1      -5.992  13.393  23.816  0.00  0.00    +0.000 C 
ENDBRANCH  22  27
ENDBRANCH  21  24
ENDBRANCH   1  21
TORSDOF 6
ENDMDL
MODEL 8
REMARK VINA RESULT:      -5.4      1.062      1.069
REMARK  Name = 
REMARK  10 active torsions:
REMARK  status: ('A' for Active; 'I' for Inactive)
REMARK    1  A    between atoms: C_1  and  C_2
REMARK    2  A    between atoms: C_2  and  C_3
REMARK    3  A    between atoms: N_5  and  C_6
REMARK    4  A    between atoms: N_5  and  C_7
REMARK    5  A    between atoms: C_7  and  C_8
REMARK    6  A    between atoms: N_19  and  C_20
REMARK    7  A    between atoms: C_20  and  C_21
REMARK    8  A    between atoms: C_20  and  C_22
REMARK    9  A    between atoms: C_22  and  O_23
REMARK   10  A    between atoms: C_25  and  C_26
REMARK                            x       y       z     vdW  Elec       q    Type
REMARK                         _______ _______ _______ _____ _____    ______ ____
ROOT
ATOM      1  C   UNL     1       4.782   5.894  17.336  0.00  0.00    +0.000 C 
ATOM      2  O   UNL     1       3.898   7.018  17.111  0.00  0.00    +0.000 OA
ATOM      3  C   UNL     1       2.904   7.217  18.023  0.00  0.00    +0.000 A 
ATOM      4  N   UNL     1       2.862   8.507  18.453  0.00  0.00    +0.000 NA
ATOM      5  C   UNL     1       2.056   8.792  19.508  0.00  0.00    +0.000 A 
ATOM      6  C   UNL     1       1.289   7.849  20.165  0.00  0.00    +0.000 A 
ATOM      7 BR   UNL     1       0.266   8.307  21.680  0.00  0.00    +0.000 Br
ATOM      8  C   UNL     1       1.314   6.544  19.705  0.00  0.00    +0.000 A 
ATOM      9  C   UNL     1       2.137   6.221  18.618  0.00  0.00    +0.000 A 
ATOM     10  C   UNL     1       2.105   4.821  18.190  0.00  0.00    +0.000 C 
ATOM     11  O   UNL     1       1.138   4.493  17.505  0.00  0.00    +0.000 OA
ATOM     12  N   UNL     1       3.010   3.915  18.749  0.00  0.00    +0.000 N 
ATOM     13  C   UNL     1       4.387   4.208  19.206  0.00  0.00    +0.000 C 
ATOM     14  C   UNL     1       4.988   5.587  18.864  0.00  0.00    +0.000 C 
ATOM     15  C   UNL     1       6.417   5.716  19.398  0.00  0.00    +0.000 C 
ENDROOT
BRANCH  12  16
ATOM     16  C   UNL     1       2.556   2.507  18.923  0.00  0.00    +0.000 C 
ATOM     17  C   UNL     1       3.720   1.519  18.759  0.00  0.00    +0.000 C 
BRANCH  16  18
ATOM     18  C   UNL     1       1.792   2.252  20.234  0.00  0.00    +0.000 C 
BRANCH  18  19
ATOM     19  O   UNL     1       0.501   2.854  20.174  0.00  0.00    +0.000 OA
ATOM     20  H   UNL     1      -0.147   2.132  20.280  0.00  0.00    +0.000 HD
ENDBRANCH  18  19
ENDBRANCH  16  18
ENDBRANCH  12  16
BRANCH   1  21
ATOM     21  C   UNL     1       6.099   6.171  16.566  0.00  0.00    +0.000 C 
BRANCH  21  24
ATOM     22  C   UNL     1       6.090   4.982  14.405  0.00  0.00    +0.000 C 
ATOM     23  O   UNL     1       5.388   5.869  13.919  0.00  0.00    +0.000 OA
ATOM     24  N   UNL     1       6.555   5.061  15.716  0.00  0.00    +0.000 N 
ATOM     25  C   UNL     1       7.455   4.099  16.338  0.00  0.00    +0.000 C 
BRANCH  22  27
ATOM     26  C   UNL     1       5.564   3.454  12.434  0.00  0.00    +0.000 C 
ATOM     27  C   UNL     1       6.476   3.736  13.616  0.00  0.00    +0.000 C 
ENDBRANCH  22  27
ENDBRANCH  21  24
ENDBRANCH   1  21
TORSDOF 6
ENDMDL
MODEL 9
REMARK VINA RESULT:      -5.3      7.704     10.719
REMARK  Name = 
REMARK  10 active torsions:
REMARK  status: ('A' for Active; 'I' for Inactive)
REMARK    1  A    between atoms: C_1  and  C_2
REMARK    2  A    between atoms: C_2  and  C_3
REMARK    3  A    between atoms: N_5  and  C_6
REMARK    4  A    between atoms: N_5  and  C_7
REMARK    5  A    between atoms: C_7  and  C_8
REMARK    6  A    between atoms: N_19  and  C_20
REMARK    7  A    between atoms: C_20  and  C_21
REMARK    8  A    between atoms: C_20  and  C_22
REMARK    9  A    between atoms: C_22  and  O_23
REMARK   10  A    between atoms: C_25  and  C_26
REMARK                            x       y       z     vdW  Elec       q    Type
REMARK                         _______ _______ _______ _____ _____    ______ ____
ROOT
ATOM      1  C   UNL     1      -2.782  12.480  19.778  0.00  0.00    +0.000 C 
ATOM      2  O   UNL     1      -2.323  13.808  20.130  0.00  0.00    +0.000 OA
ATOM      3  C   UNL     1      -0.975  14.001  20.198  0.00  0.00    +0.000 A 
ATOM      4  N   UNL     1      -0.585  15.100  19.497  0.00  0.00    +0.000 NA
ATOM      5  C   UNL     1       0.747  15.288  19.314  0.00  0.00    +0.000 A 
ATOM      6  C   UNL     1       1.717  14.428  19.793  0.00  0.00    +0.000 A 
ATOM      7 BR   UNL     1       3.542  14.710  19.418  0.00  0.00    +0.000 Br
ATOM      8  C   UNL     1       1.316  13.328  20.529  0.00  0.00    +0.000 A 
ATOM      9  C   UNL     1      -0.054  13.108  20.734  0.00  0.00    +0.000 A 
ATOM     10  C   UNL     1      -0.396  11.925  21.526  0.00  0.00    +0.000 C 
ATOM     11  O   UNL     1      -0.273  12.043  22.743  0.00  0.00    +0.000 OA
ATOM     12  N   UNL     1      -0.611  10.707  20.875  0.00  0.00    +0.000 N 
ATOM     13  C   UNL     1      -1.179  10.515  19.522  0.00  0.00    +0.000 C 
ATOM     14  C   UNL     1      -1.790  11.739  18.809  0.00  0.00    +0.000 C 
ATOM     15  C   UNL     1      -2.339  11.361  17.431  0.00  0.00    +0.000 C 
ENDROOT
BRANCH  12  16
ATOM     16  C   UNL     1      -0.226   9.463  21.598  0.00  0.00    +0.000 C 
ATOM     17  C   UNL     1       1.272   9.163  21.436  0.00  0.00    +0.000 C 
BRANCH  16  18
ATOM     18  C   UNL     1      -0.637   9.447  23.080  0.00  0.00    +0.000 C 
BRANCH  18  19
ATOM     19  O   UNL     1       0.518   9.542  23.911  0.00  0.00    +0.000 OA
ATOM     20  H   UNL     1       0.421  10.364  24.428  0.00  0.00    +0.000 HD
ENDBRANCH  18  19
ENDBRANCH  16  18
ENDBRANCH  12  16
BRANCH   1  21
ATOM     21  C   UNL     1      -4.223  12.612  19.223  0.00  0.00    +0.000 C 
BRANCH  21  24
ATOM     22  C   UNL     1      -6.201  11.184  19.582  0.00  0.00    +0.000 C 
ATOM     23  O   UNL     1      -6.110  10.766  18.427  0.00  0.00    +0.000 OA
ATOM     24  N   UNL     1      -5.268  12.075  20.107  0.00  0.00    +0.000 N 
ATOM     25  C   UNL     1      -5.257  12.551  21.484  0.00  0.00    +0.000 C 
BRANCH  22  27
ATOM     26  C   UNL     1      -7.602   9.276  20.528  0.00  0.00    +0.000 C 
ATOM     27  C   UNL     1      -7.348  10.773  20.500  0.00  0.00    +0.000 C 
ENDBRANCH  22  27
ENDBRANCH  21  24
ENDBRANCH   1  21
TORSDOF 6
ENDMDL
