MODEL 1
REMARK VINA RESULT:      -6.8      0.000      0.000
REMARK  Name = 
REMARK  14 active torsions:
REMARK  status: ('A' for Active; 'I' for Inactive)
REMARK    1  A    between atoms: C_1  and  C_2
REMARK    2  A    between atoms: C_2  and  N_3
REMARK    3  A    between atoms: N_3  and  C_4
REMARK    4  A    between atoms: N_3  and  C_6
REMARK    5  A    between atoms: C_4  and  C_5
REMARK    6  A    between atoms: C_6  and  C_7
REMARK    7  A    between atoms: C_18  and  C_20
REMARK    8  A    between atoms: C_20  and  N_21
REMARK    9  A    between atoms: N_21  and  C_22
REMARK   10  A    between atoms: N_21  and  C_24
REMARK   11  A    between atoms: C_22  and  C_23
REMARK   12  A    between atoms: C_24  and  C_25
REMARK   13  A    between atoms: C_28  and  O_29
REMARK   14  A    between atoms: O_29  and  C_30
REMARK                            x       y       z     vdW  Elec       q    Type
REMARK                         _______ _______ _______ _____ _____    ______ ____
ROOT
ATOM      1  C   UNL     1      -1.258  16.855  19.534  0.00  0.00    +0.000 C 
ATOM      2  O   UNL     1      -1.741  17.942  19.867  0.00  0.00    +0.000 OA
ATOM      3  N   UNL     1      -1.511  15.792  20.347  0.00  0.00    +0.000 N 
ATOM      4  C   UNL     1      -1.114  14.493  20.195  0.00  0.00    +0.000 A 
ATOM      5  N   UNL     1      -0.474  13.847  19.245  0.00  0.00    +0.000 NA
ATOM      6  C   UNL     1      -0.152  12.543  19.691  0.00  0.00    +0.000 A 
ATOM      7  C   UNL     1       0.526  11.493  19.002  0.00  0.00    +0.000 A 
ATOM      8  C   UNL     1       0.893  10.281  19.661  0.00  0.00    +0.000 A 
ATOM      9  N   UNL     1       1.554   9.125  19.158  0.00  0.00    +0.000 NA
ATOM     10  C   UNL     1       1.769   8.262  20.128  0.00  0.00    +0.000 A 
ATOM     11  N   UNL     1       2.377   7.022  20.228  0.00  0.00    +0.000 N 
ATOM     12  C   UNL     1       2.584   6.152  19.190  0.00  0.00    +0.000 C 
ATOM     13  O   UNL     1       2.324   6.404  18.008  0.00  0.00    +0.000 OA
ATOM     14  S   UNL     1       1.182   8.708  21.660  0.00  0.00    +0.000 S 
ATOM     15  C   UNL     1       0.583  10.180  21.016  0.00  0.00    +0.000 A 
ATOM     16  C   UNL     1      -0.104  11.171  21.706  0.00  0.00    +0.000 A 
ATOM     17  C   UNL     1      -0.528  12.313  21.019  0.00  0.00    +0.000 A 
ATOM     18  S   UNL     1      -1.551  13.589  21.549  0.00  0.00    +0.000 S 
ATOM     19  H   UNL     1      -2.021  16.023  21.190  0.00  0.00    +0.000 HD
ATOM     20  H   UNL     1       2.478   6.642  21.149  0.00  0.00    +0.000 HD
ENDROOT
BRANCH  16  21
ATOM     21  O   UNL     1      -0.396  10.919  23.033  0.00  0.00    +0.000 OA
ATOM     22  C   UNL     1      -1.775  10.978  23.382  0.00  0.00    +0.000 C 
ENDBRANCH  16  21
BRANCH   1  23
ATOM     23  C   UNL     1      -0.367  16.616  18.315  0.00  0.00    +0.000 C 
BRANCH  23  24
ATOM     24  N   UNL     1       1.013  17.146  18.438  0.00  0.00    +0.000 NA
BRANCH  24  26
ATOM     25  C   UNL     1       3.405  16.607  17.853  0.00  0.00    +0.000 C 
ATOM     26  C   UNL     1       2.028  16.092  18.264  0.00  0.00    +0.000 C 
ENDBRANCH  24  26
BRANCH  24  27
ATOM     27  C   UNL     1       1.188  18.294  17.530  0.00  0.00    +0.000 C 
ATOM     28  C   UNL     1       0.111  18.493  16.463  0.00  0.00    +0.000 C 
ENDBRANCH  24  27
ENDBRANCH  23  24
ENDBRANCH   1  23
BRANCH  12  29
ATOM     29  C   UNL     1       3.241   4.800  19.551  0.00  0.00    +0.000 C 
BRANCH  29  30
ATOM     30  N   UNL     1       2.394   3.572  19.458  0.00  0.00    +0.000 NA
BRANCH  30  31
ATOM     31  C   UNL     1       3.158   2.313  19.625  0.00  0.00    +0.000 C 
ATOM     32  C   UNL     1       3.548   1.536  18.367  0.00  0.00    +0.000 C 
ENDBRANCH  30  31
BRANCH  30  33
ATOM     33  C   UNL     1       1.314   3.601  20.496  0.00  0.00    +0.000 C 
ATOM     34  C   UNL     1       1.463   2.622  21.660  0.00  0.00    +0.000 C 
ENDBRANCH  30  33
ENDBRANCH  29  30
ENDBRANCH  12  29
TORSDOF 9
ENDMDL
MODEL 2
REMARK VINA RESULT:      -6.6      3.234     10.319
REMARK  Name = 
REMARK  14 active torsions:
REMARK  status: ('A' for Active; 'I' for Inactive)
REMARK    1  A    between atoms: C_1  and  C_2
REMARK    2  A    between atoms: C_2  and  N_3
REMARK    3  A    between atoms: N_3  and  C_4
REMARK    4  A    between atoms: N_3  and  C_6
REMARK    5  A    between atoms: C_4  and  C_5
REMARK    6  A    between atoms: C_6  and  C_7
REMARK    7  A    between atoms: C_18  and  C_20
REMARK    8  A    between atoms: C_20  and  N_21
REMARK    9  A    between atoms: N_21  and  C_22
REMARK   10  A    between atoms: N_21  and  C_24
REMARK   11  A    between atoms: C_22  and  C_23
REMARK   12  A    between atoms: C_24  and  C_25
REMARK   13  A    between atoms: C_28  and  O_29
REMARK   14  A    between atoms: O_29  and  C_30
REMARK                            x       y       z     vdW  Elec       q    Type
REMARK                         _______ _______ _______ _____ _____    ______ ____
ROOT
ATOM      1  C   UNL     1       4.130   5.934  18.338  0.00  0.00    +0.000 C 
ATOM      2  O   UNL     1       4.941   5.432  17.553  0.00  0.00    +0.000 OA
ATOM      3  N   UNL     1       3.469   7.047  17.915  0.00  0.00    +0.000 N 
ATOM      4  C   UNL     1       2.518   7.774  18.576  0.00  0.00    +0.000 A 
ATOM      5  N   UNL     1       1.895   7.618  19.724  0.00  0.00    +0.000 NA
ATOM      6  C   UNL     1       1.141   8.779  20.016  0.00  0.00    +0.000 A 
ATOM      7  C   UNL     1       0.306   9.056  21.139  0.00  0.00    +0.000 A 
ATOM      8  C   UNL     1      -0.272  10.345  21.343  0.00  0.00    +0.000 A 
ATOM      9  N   UNL     1      -1.129  10.816  22.377  0.00  0.00    +0.000 NA
ATOM     10  C   UNL     1      -1.366  12.102  22.225  0.00  0.00    +0.000 A 
ATOM     11  N   UNL     1      -2.080  13.062  22.923  0.00  0.00    +0.000 N 
ATOM     12  C   UNL     1      -3.105  12.811  23.796  0.00  0.00    +0.000 C 
ATOM     13  O   UNL     1      -3.468  11.680  24.137  0.00  0.00    +0.000 OA
ATOM     14  S   UNL     1      -0.659  12.830  20.862  0.00  0.00    +0.000 S 
ATOM     15  C   UNL     1       0.038  11.331  20.407  0.00  0.00    +0.000 A 
ATOM     16  C   UNL     1       0.822  11.084  19.286  0.00  0.00    +0.000 A 
ATOM     17  C   UNL     1       1.307   9.791  19.064  0.00  0.00    +0.000 A 
ATOM     18  S   UNL     1       2.118   9.151  17.690  0.00  0.00    +0.000 S 
ATOM     19  H   UNL     1       3.766   7.391  17.011  0.00  0.00    +0.000 HD
ATOM     20  H   UNL     1      -1.990  14.008  22.607  0.00  0.00    +0.000 HD
ENDROOT
BRANCH  16  21
ATOM     21  O   UNL     1       1.006  12.136  18.410  0.00  0.00    +0.000 OA
ATOM     22  C   UNL     1       2.263  12.799  18.501  0.00  0.00    +0.000 C 
ENDBRANCH  16  21
BRANCH   1  23
ATOM     23  C   UNL     1       3.842   5.438  19.755  0.00  0.00    +0.000 C 
BRANCH  23  24
ATOM     24  N   UNL     1       3.131   4.138  19.828  0.00  0.00    +0.000 NA
BRANCH  24  26
ATOM     25  C   UNL     1       1.891   2.942  21.667  0.00  0.00    +0.000 C 
ATOM     26  C   UNL     1       2.005   4.176  20.776  0.00  0.00    +0.000 C 
ENDBRANCH  24  26
BRANCH  24  27
ATOM     27  C   UNL     1       2.750   3.703  18.472  0.00  0.00    +0.000 C 
ATOM     28  C   UNL     1       1.262   3.760  18.127  0.00  0.00    +0.000 C 
ENDBRANCH  24  27
ENDBRANCH  23  24
ENDBRANCH   1  23
BRANCH  12  29
ATOM     29  C   UNL     1      -3.789  14.049  24.422  0.00  0.00    +0.000 C 
BRANCH  29  30
ATOM     30  N   UNL     1      -5.018  14.572  23.753  0.00  0.00    +0.000 NA
BRANCH  30  31
ATOM     31  C   UNL     1      -4.740  15.624  22.746  0.00  0.00    +0.000 C 
ATOM     32  C   UNL     1      -3.444  16.424  22.881  0.00  0.00    +0.000 C 
ENDBRANCH  30  31
BRANCH  30  33
ATOM     33  C   UNL     1      -5.758  13.462  23.072  0.00  0.00    +0.000 C 
ATOM     34  C   UNL     1      -6.967  12.894  23.814  0.00  0.00    +0.000 C 
ENDBRANCH  30  33
ENDBRANCH  29  30
ENDBRANCH  12  29
TORSDOF 9
ENDMDL
MODEL 3
REMARK VINA RESULT:      -6.6      3.360     10.584
REMARK  Name = 
REMARK  14 active torsions:
REMARK  status: ('A' for Active; 'I' for Inactive)
REMARK    1  A    between atoms: C_1  and  C_2
REMARK    2  A    between atoms: C_2  and  N_3
REMARK    3  A    between atoms: N_3  and  C_4
REMARK    4  A    between atoms: N_3  and  C_6
REMARK    5  A    between atoms: C_4  and  C_5
REMARK    6  A    between atoms: C_6  and  C_7
REMARK    7  A    between atoms: C_18  and  C_20
REMARK    8  A    between atoms: C_20  and  N_21
REMARK    9  A    between atoms: N_21  and  C_22
REMARK   10  A    between atoms: N_21  and  C_24
REMARK   11  A    between atoms: C_22  and  C_23
REMARK   12  A    between atoms: C_24  and  C_25
REMARK   13  A    between atoms: C_28  and  O_29
REMARK   14  A    between atoms: O_29  and  C_30
REMARK                            x       y       z     vdW  Elec       q    Type
REMARK                         _______ _______ _______ _____ _____    ______ ____
ROOT
ATOM      1  C   UNL     1       4.159   5.729  18.451  0.00  0.00    +0.000 C 
ATOM      2  O   UNL     1       4.969   5.197  17.684  0.00  0.00    +0.000 OA
ATOM      3  N   UNL     1       3.508   6.834  17.991  0.00  0.00    +0.000 N 
ATOM      4  C   UNL     1       2.561   7.587  18.627  0.00  0.00    +0.000 A 
ATOM      5  N   UNL     1       1.932   7.469  19.776  0.00  0.00    +0.000 NA
ATOM      6  C   UNL     1       1.185   8.645  20.031  0.00  0.00    +0.000 A 
ATOM      7  C   UNL     1       0.348   8.961  21.142  0.00  0.00    +0.000 A 
ATOM      8  C   UNL     1      -0.221  10.260  21.305  0.00  0.00    +0.000 A 
ATOM      9  N   UNL     1      -1.078  10.768  22.321  0.00  0.00    +0.000 NA
ATOM     10  C   UNL     1      -1.305  12.050  22.130  0.00  0.00    +0.000 A 
ATOM     11  N   UNL     1      -2.014  13.036  22.796  0.00  0.00    +0.000 N 
ATOM     12  C   UNL     1      -3.045  12.819  23.672  0.00  0.00    +0.000 C 
ATOM     13  O   UNL     1      -3.418  11.701  24.045  0.00  0.00    +0.000 OA
ATOM     14  S   UNL     1      -0.586  12.732  20.750  0.00  0.00    +0.000 S 
ATOM     15  C   UNL     1       0.101  11.215  20.342  0.00  0.00    +0.000 A 
ATOM     16  C   UNL     1       0.887  10.929  19.232  0.00  0.00    +0.000 A 
ATOM     17  C   UNL     1       1.363   9.626  19.051  0.00  0.00    +0.000 A 
ATOM     18  S   UNL     1       2.175   8.941  17.699  0.00  0.00    +0.000 S 
ATOM     19  H   UNL     1       3.812   7.149  17.079  0.00  0.00    +0.000 HD
ATOM     20  H   UNL     1      -1.916  13.971  22.454  0.00  0.00    +0.000 HD
ENDROOT
BRANCH  16  21
ATOM     21  O   UNL     1       1.084  11.953  18.326  0.00  0.00    +0.000 OA
ATOM     22  C   UNL     1       2.411  12.464  18.253  0.00  0.00    +0.000 C 
ENDBRANCH  16  21
BRANCH   1  23
ATOM     23  C   UNL     1       3.861   5.277  19.880  0.00  0.00    +0.000 C 
BRANCH  23  24
ATOM     24  N   UNL     1       3.182   3.962  19.989  0.00  0.00    +0.000 NA
BRANCH  24  26
ATOM     25  C   UNL     1       0.667   3.945  20.150  0.00  0.00    +0.000 C 
ATOM     26  C   UNL     1       1.904   3.938  19.256  0.00  0.00    +0.000 C 
ENDBRANCH  24  26
BRANCH  24  27
ATOM     27  C   UNL     1       4.111   2.888  19.596  0.00  0.00    +0.000 C 
ATOM     28  C   UNL     1       3.568   1.828  18.638  0.00  0.00    +0.000 C 
ENDBRANCH  24  27
ENDBRANCH  23  24
ENDBRANCH   1  23
BRANCH  12  29
ATOM     29  C   UNL     1      -3.721  14.080  24.259  0.00  0.00    +0.000 C 
BRANCH  29  30
ATOM     30  N   UNL     1      -5.115  14.387  23.815  0.00  0.00    +0.000 NA
BRANCH  30  31
ATOM     31  C   UNL     1      -5.484  15.814  23.970  0.00  0.00    +0.000 C 
ATOM     32  C   UNL     1      -6.916  16.227  23.628  0.00  0.00    +0.000 C 
ENDBRANCH  30  31
BRANCH  30  33
ATOM     33  C   UNL     1      -5.301  14.014  22.375  0.00  0.00    +0.000 C 
ATOM     34  C   UNL     1      -6.299  12.894  22.086  0.00  0.00    +0.000 C 
ENDBRANCH  30  33
ENDBRANCH  29  30
ENDBRANCH  12  29
TORSDOF 9
ENDMDL
MODEL 4
REMARK VINA RESULT:      -6.6      3.232     10.639
REMARK  Name = 
REMARK  14 active torsions:
REMARK  status: ('A' for Active; 'I' for Inactive)
REMARK    1  A    between atoms: C_1  and  C_2
REMARK    2  A    between atoms: C_2  and  N_3
REMARK    3  A    between atoms: N_3  and  C_4
REMARK    4  A    between atoms: N_3  and  C_6
REMARK    5  A    between atoms: C_4  and  C_5
REMARK    6  A    between atoms: C_6  and  C_7
REMARK    7  A    between atoms: C_18  and  C_20
REMARK    8  A    between atoms: C_20  and  N_21
REMARK    9  A    between atoms: N_21  and  C_22
REMARK   10  A    between atoms: N_21  and  C_24
REMARK   11  A    between atoms: C_22  and  C_23
REMARK   12  A    between atoms: C_24  and  C_25
REMARK   13  A    between atoms: C_28  and  O_29
REMARK   14  A    between atoms: O_29  and  C_30
REMARK                            x       y       z     vdW  Elec       q    Type
REMARK                         _______ _______ _______ _____ _____    ______ ____
ROOT
ATOM      1  C   UNL     1       4.057   5.638  18.511  0.00  0.00    +0.000 C 
ATOM      2  O   UNL     1       4.867   5.080  17.763  0.00  0.00    +0.000 OA
ATOM      3  N   UNL     1       3.458   6.767  18.039  0.00  0.00    +0.000 N 
ATOM      4  C   UNL     1       2.522   7.552  18.654  0.00  0.00    +0.000 A 
ATOM      5  N   UNL     1       1.860   7.454  19.786  0.00  0.00    +0.000 NA
ATOM      6  C   UNL     1       1.150   8.654  20.026  0.00  0.00    +0.000 A 
ATOM      7  C   UNL     1       0.296   8.997  21.116  0.00  0.00    +0.000 A 
ATOM      8  C   UNL     1      -0.230  10.315  21.269  0.00  0.00    +0.000 A 
ATOM      9  N   UNL     1      -1.094  10.850  22.266  0.00  0.00    +0.000 NA
ATOM     10  C   UNL     1      -1.270  12.141  22.074  0.00  0.00    +0.000 A 
ATOM     11  N   UNL     1      -1.961  13.149  22.725  0.00  0.00    +0.000 N 
ATOM     12  C   UNL     1      -3.020  12.966  23.574  0.00  0.00    +0.000 C 
ATOM     13  O   UNL     1      -3.442  11.862  23.933  0.00  0.00    +0.000 OA
ATOM     14  S   UNL     1      -0.492  12.800  20.715  0.00  0.00    +0.000 S 
ATOM     15  C   UNL     1       0.150  11.261  20.318  0.00  0.00    +0.000 A 
ATOM     16  C   UNL     1       0.954  10.950  19.228  0.00  0.00    +0.000 A 
ATOM     17  C   UNL     1       1.388   9.632  19.054  0.00  0.00    +0.000 A 
ATOM     18  S   UNL     1       2.209   8.921  17.721  0.00  0.00    +0.000 S 
ATOM     19  H   UNL     1       3.796   7.074  17.136  0.00  0.00    +0.000 HD
ATOM     20  H   UNL     1      -1.820  14.081  22.389  0.00  0.00    +0.000 HD
ENDROOT
BRANCH  16  21
ATOM     21  O   UNL     1       1.210  11.969  18.331  0.00  0.00    +0.000 OA
ATOM     22  C   UNL     1       2.445  12.654  18.514  0.00  0.00    +0.000 C 
ENDBRANCH  16  21
BRANCH   1  23
ATOM     23  C   UNL     1       3.708   5.193  19.931  0.00  0.00    +0.000 C 
BRANCH  23  24
ATOM     24  N   UNL     1       2.827   4.002  20.011  0.00  0.00    +0.000 NA
BRANCH  24  26
ATOM     25  C   UNL     1       1.551   2.600  21.672  0.00  0.00    +0.000 C 
ATOM     26  C   UNL     1       2.030   3.986  21.249  0.00  0.00    +0.000 C 
ENDBRANCH  24  26
BRANCH  24  27
ATOM     27  C   UNL     1       2.019   3.897  18.783  0.00  0.00    +0.000 C 
ATOM     28  C   UNL     1       2.130   2.589  17.999  0.00  0.00    +0.000 C 
ENDBRANCH  24  27
ENDBRANCH  23  24
ENDBRANCH   1  23
BRANCH  12  29
ATOM     29  C   UNL     1      -3.666  14.249  24.148  0.00  0.00    +0.000 C 
BRANCH  29  30
ATOM     30  N   UNL     1      -4.986  14.669  23.586  0.00  0.00    +0.000 NA
BRANCH  30  31
ATOM     31  C   UNL     1      -5.475  15.960  24.128  0.00  0.00    +0.000 C 
ATOM     32  C   UNL     1      -6.805  16.501  23.603  0.00  0.00    +0.000 C 
ENDBRANCH  30  31
BRANCH  30  33
ATOM     33  C   UNL     1      -4.906  14.793  22.095  0.00  0.00    +0.000 C 
ATOM     34  C   UNL     1      -3.931  15.836  21.550  0.00  0.00    +0.000 C 
ENDBRANCH  30  33
ENDBRANCH  29  30
ENDBRANCH  12  29
TORSDOF 9
ENDMDL
MODEL 5
REMARK VINA RESULT:      -6.6      3.224     10.471
REMARK  Name = 
REMARK  14 active torsions:
REMARK  status: ('A' for Active; 'I' for Inactive)
REMARK    1  A    between atoms: C_1  and  C_2
REMARK    2  A    between atoms: C_2  and  N_3
REMARK    3  A    between atoms: N_3  and  C_4
REMARK    4  A    between atoms: N_3  and  C_6
REMARK    5  A    between atoms: C_4  and  C_5
REMARK    6  A    between atoms: C_6  and  C_7
REMARK    7  A    between atoms: C_18  and  C_20
REMARK    8  A    between atoms: C_20  and  N_21
REMARK    9  A    between atoms: N_21  and  C_22
REMARK   10  A    between atoms: N_21  and  C_24
REMARK   11  A    between atoms: C_22  and  C_23
REMARK   12  A    between atoms: C_24  and  C_25
REMARK   13  A    between atoms: C_28  and  O_29
REMARK   14  A    between atoms: O_29  and  C_30
REMARK                            x       y       z     vdW  Elec       q    Type
REMARK                         _______ _______ _______ _____ _____    ______ ____
ROOT
ATOM      1  C   UNL     1       3.948   5.932  18.305  0.00  0.00    +0.000 C 
ATOM      2  O   UNL     1       4.763   5.424  17.528  0.00  0.00    +0.000 OA
ATOM      3  N   UNL     1       3.354   7.091  17.906  0.00  0.00    +0.000 N 
ATOM      4  C   UNL     1       2.414   7.834  18.565  0.00  0.00    +0.000 A 
ATOM      5  N   UNL     1       1.744   7.662  19.683  0.00  0.00    +0.000 NA
ATOM      6  C   UNL     1       1.033   8.845  19.998  0.00  0.00    +0.000 A 
ATOM      7  C   UNL     1       0.172   9.115  21.102  0.00  0.00    +0.000 A 
ATOM      8  C   UNL     1      -0.355  10.421  21.339  0.00  0.00    +0.000 A 
ATOM      9  N   UNL     1      -1.225  10.890  22.363  0.00  0.00    +0.000 NA
ATOM     10  C   UNL     1      -1.399  12.191  22.256  0.00  0.00    +0.000 A 
ATOM     11  N   UNL     1      -2.093  13.154  22.968  0.00  0.00    +0.000 N 
ATOM     12  C   UNL     1      -3.159  12.917  23.796  0.00  0.00    +0.000 C 
ATOM     13  O   UNL     1      -3.585  11.791  24.076  0.00  0.00    +0.000 OA
ATOM     14  S   UNL     1      -0.610  12.938  20.950  0.00  0.00    +0.000 S 
ATOM     15  C   UNL     1       0.034  11.428  20.456  0.00  0.00    +0.000 A 
ATOM     16  C   UNL     1       0.846  11.189  19.354  0.00  0.00    +0.000 A 
ATOM     17  C   UNL     1       1.279   9.885  19.095  0.00  0.00    +0.000 A 
ATOM     18  S   UNL     1       2.109   9.263  17.724  0.00  0.00    +0.000 S 
ATOM     19  H   UNL     1       3.699   7.457  17.028  0.00  0.00    +0.000 HD
ATOM     20  H   UNL     1      -1.949  14.106  22.696  0.00  0.00    +0.000 HD
ENDROOT
BRANCH  16  21
ATOM     21  O   UNL     1       1.109  12.266  18.529  0.00  0.00    +0.000 OA
ATOM     22  C   UNL     1       2.368  12.900  18.729  0.00  0.00    +0.000 C 
ENDBRANCH  16  21
BRANCH   1  23
ATOM     23  C   UNL     1       3.587   5.394  19.690  0.00  0.00    +0.000 C 
BRANCH  23  24
ATOM     24  N   UNL     1       2.473   4.414  19.706  0.00  0.00    +0.000 NA
BRANCH  24  26
ATOM     25  C   UNL     1       2.322   2.626  17.937  0.00  0.00    +0.000 C 
ATOM     26  C   UNL     1       2.024   4.065  18.347  0.00  0.00    +0.000 C 
ENDBRANCH  24  26
BRANCH  24  27
ATOM     27  C   UNL     1       2.848   3.248  20.525  0.00  0.00    +0.000 C 
ATOM     28  C   UNL     1       1.864   2.834  21.619  0.00  0.00    +0.000 C 
ENDBRANCH  24  27
ENDBRANCH  23  24
ENDBRANCH   1  23
BRANCH  12  29
ATOM     29  C   UNL     1      -3.808  14.159  24.449  0.00  0.00    +0.000 C 
BRANCH  29  30
ATOM     30  N   UNL     1      -4.954  14.797  23.734  0.00  0.00    +0.000 NA
BRANCH  30  31
ATOM     31  C   UNL     1      -4.536  15.718  22.650  0.00  0.00    +0.000 C 
ATOM     32  C   UNL     1      -5.610  16.580  21.986  0.00  0.00    +0.000 C 
ENDBRANCH  30  31
BRANCH  30  33
ATOM     33  C   UNL     1      -5.847  13.752  23.136  0.00  0.00    +0.000 C 
ATOM     34  C   UNL     1      -6.963  13.218  24.032  0.00  0.00    +0.000 C 
ENDBRANCH  30  33
ENDBRANCH  29  30
ENDBRANCH  12  29
TORSDOF 9
ENDMDL
MODEL 6
REMARK VINA RESULT:      -6.4      3.155     10.622
REMARK  Name = 
REMARK  14 active torsions:
REMARK  status: ('A' for Active; 'I' for Inactive)
REMARK    1  A    between atoms: C_1  and  C_2
REMARK    2  A    between atoms: C_2  and  N_3
REMARK    3  A    between atoms: N_3  and  C_4
REMARK    4  A    between atoms: N_3  and  C_6
REMARK    5  A    between atoms: C_4  and  C_5
REMARK    6  A    between atoms: C_6  and  C_7
REMARK    7  A    between atoms: C_18  and  C_20
REMARK    8  A    between atoms: C_20  and  N_21
REMARK    9  A    between atoms: N_21  and  C_22
REMARK   10  A    between atoms: N_21  and  C_24
REMARK   11  A    between atoms: C_22  and  C_23
REMARK   12  A    between atoms: C_24  and  C_25
REMARK   13  A    between atoms: C_28  and  O_29
REMARK   14  A    between atoms: O_29  and  C_30
REMARK                            x       y       z     vdW  Elec       q    Type
REMARK                         _______ _______ _______ _____ _____    ______ ____
ROOT
ATOM      1  C   UNL     1       3.837   6.225  18.471  0.00  0.00    +0.000 C 
ATOM      2  O   UNL     1       4.689   5.726  17.728  0.00  0.00    +0.000 OA
ATOM      3  N   UNL     1       3.257   7.385  18.054  0.00  0.00    +0.000 N 
ATOM      4  C   UNL     1       2.285   8.119  18.674  0.00  0.00    +0.000 A 
ATOM      5  N   UNL     1       1.565   7.935  19.759  0.00  0.00    +0.000 NA
ATOM      6  C   UNL     1       0.835   9.113  20.051  0.00  0.00    +0.000 A 
ATOM      7  C   UNL     1      -0.076   9.371  21.117  0.00  0.00    +0.000 A 
ATOM      8  C   UNL     1      -0.618  10.673  21.340  0.00  0.00    +0.000 A 
ATOM      9  N   UNL     1      -1.537  11.130  22.326  0.00  0.00    +0.000 NA
ATOM     10  C   UNL     1      -1.711  12.431  22.222  0.00  0.00    +0.000 A 
ATOM     11  N   UNL     1      -2.440  13.386  22.909  0.00  0.00    +0.000 N 
ATOM     12  C   UNL     1      -3.542  13.138  23.685  0.00  0.00    +0.000 C 
ATOM     13  O   UNL     1      -3.976  12.008  23.937  0.00  0.00    +0.000 OA
ATOM     14  S   UNL     1      -0.867  13.192  20.959  0.00  0.00    +0.000 S 
ATOM     15  C   UNL     1      -0.194  11.688  20.483  0.00  0.00    +0.000 A 
ATOM     16  C   UNL     1       0.668  11.461  19.417  0.00  0.00    +0.000 A 
ATOM     17  C   UNL     1       1.118  10.161  19.168  0.00  0.00    +0.000 A 
ATOM     18  S   UNL     1       2.013   9.553  17.832  0.00  0.00    +0.000 S 
ATOM     19  H   UNL     1       3.640   7.759  17.195  0.00  0.00    +0.000 HD
ATOM     20  H   UNL     1      -2.288  14.341  22.651  0.00  0.00    +0.000 HD
ENDROOT
BRANCH  16  21
ATOM     21  O   UNL     1       0.964  12.545  18.613  0.00  0.00    +0.000 OA
ATOM     22  C   UNL     1       2.249  13.125  18.811  0.00  0.00    +0.000 C 
ENDBRANCH  16  21
BRANCH   1  23
ATOM     23  C   UNL     1       3.416   5.674  19.833  0.00  0.00    +0.000 C 
BRANCH  23  24
ATOM     24  N   UNL     1       2.757   4.346  19.791  0.00  0.00    +0.000 NA
BRANCH  24  26
ATOM     25  C   UNL     1       3.566   2.354  18.476  0.00  0.00    +0.000 C 
ATOM     26  C   UNL     1       3.734   3.247  19.703  0.00  0.00    +0.000 C 
ENDBRANCH  24  26
BRANCH  24  27
ATOM     27  C   UNL     1       1.822   4.218  20.924  0.00  0.00    +0.000 C 
ATOM     28  C   UNL     1       1.924   2.939  21.755  0.00  0.00    +0.000 C 
ENDBRANCH  24  27
ENDBRANCH  23  24
ENDBRANCH   1  23
BRANCH  12  29
ATOM     29  C   UNL     1      -4.225  14.373  24.317  0.00  0.00    +0.000 C 
BRANCH  29  30
ATOM     30  N   UNL     1      -3.350  15.509  24.737  0.00  0.00    +0.000 NA
BRANCH  30  31
ATOM     31  C   UNL     1      -4.105  16.715  25.153  0.00  0.00    +0.000 C 
ATOM     32  C   UNL     1      -4.897  17.471  24.086  0.00  0.00    +0.000 C 
ENDBRANCH  30  31
BRANCH  30  33
ATOM     33  C   UNL     1      -2.467  15.098  25.876  0.00  0.00    +0.000 C 
ATOM     34  C   UNL     1      -1.157  15.869  26.034  0.00  0.00    +0.000 C 
ENDBRANCH  30  33
ENDBRANCH  29  30
ENDBRANCH  12  29
TORSDOF 9
ENDMDL
MODEL 7
REMARK VINA RESULT:      -6.4      3.234     10.546
REMARK  Name = 
REMARK  14 active torsions:
REMARK  status: ('A' for Active; 'I' for Inactive)
REMARK    1  A    between atoms: C_1  and  C_2
REMARK    2  A    between atoms: C_2  and  N_3
REMARK    3  A    between atoms: N_3  and  C_4
REMARK    4  A    between atoms: N_3  and  C_6
REMARK    5  A    between atoms: C_4  and  C_5
REMARK    6  A    between atoms: C_6  and  C_7
REMARK    7  A    between atoms: C_18  and  C_20
REMARK    8  A    between atoms: C_20  and  N_21
REMARK    9  A    between atoms: N_21  and  C_22
REMARK   10  A    between atoms: N_21  and  C_24
REMARK   11  A    between atoms: C_22  and  C_23
REMARK   12  A    between atoms: C_24  and  C_25
REMARK   13  A    between atoms: C_28  and  O_29
REMARK   14  A    between atoms: O_29  and  C_30
REMARK                            x       y       z     vdW  Elec       q    Type
REMARK                         _______ _______ _______ _____ _____    ______ ____
ROOT
ATOM      1  C   UNL     1       4.156   5.837  18.535  0.00  0.00    +0.000 C 
ATOM      2  O   UNL     1       4.989   5.314  17.787  0.00  0.00    +0.000 OA
ATOM      3  N   UNL     1       3.518   6.946  18.069  0.00  0.00    +0.000 N 
ATOM      4  C   UNL     1       2.552   7.692  18.684  0.00  0.00    +0.000 A 
ATOM      5  N   UNL     1       1.890   7.562  19.813  0.00  0.00    +0.000 NA
ATOM      6  C   UNL     1       1.135   8.734  20.059  0.00  0.00    +0.000 A 
ATOM      7  C   UNL     1       0.265   9.037  21.148  0.00  0.00    +0.000 A 
ATOM      8  C   UNL     1      -0.310  10.334  21.307  0.00  0.00    +0.000 A 
ATOM      9  N   UNL     1      -1.196  10.831  22.304  0.00  0.00    +0.000 NA
ATOM     10  C   UNL     1      -1.419  12.116  22.120  0.00  0.00    +0.000 A 
ATOM     11  N   UNL     1      -2.148  13.093  22.775  0.00  0.00    +0.000 N 
ATOM     12  C   UNL     1      -3.203  12.866  23.618  0.00  0.00    +0.000 C 
ATOM     13  O   UNL     1      -3.587  11.744  23.968  0.00  0.00    +0.000 OA
ATOM     14  S   UNL     1      -0.660  12.813  20.768  0.00  0.00    +0.000 S 
ATOM     15  C   UNL     1       0.040  11.300  20.364  0.00  0.00    +0.000 A 
ATOM     16  C   UNL     1       0.859  11.027  19.276  0.00  0.00    +0.000 A 
ATOM     17  C   UNL     1       1.341   9.726  19.094  0.00  0.00    +0.000 A 
ATOM     18  S   UNL     1       2.193   9.055  17.760  0.00  0.00    +0.000 S 
ATOM     19  H   UNL     1       3.848   7.271  17.169  0.00  0.00    +0.000 HD
ATOM     20  H   UNL     1      -2.040  14.032  22.446  0.00  0.00    +0.000 HD
ENDROOT
BRANCH  16  21
ATOM     21  O   UNL     1       1.080  12.060  18.387  0.00  0.00    +0.000 OA
ATOM     22  C   UNL     1       2.293  12.782  18.573  0.00  0.00    +0.000 C 
ENDBRANCH  16  21
BRANCH   1  23
ATOM     23  C   UNL     1       3.817   5.369  19.951  0.00  0.00    +0.000 C 
BRANCH  23  24
ATOM     24  N   UNL     1       3.111   4.066  20.024  0.00  0.00    +0.000 NA
BRANCH  24  26
ATOM     25  C   UNL     1       1.726   2.813  21.716  0.00  0.00    +0.000 C 
ATOM     26  C   UNL     1       1.965   4.110  20.948  0.00  0.00    +0.000 C 
ENDBRANCH  24  26
BRANCH  24  27
ATOM     27  C   UNL     1       2.762   3.613  18.666  0.00  0.00    +0.000 C 
ATOM     28  C   UNL     1       1.295   3.747  18.255  0.00  0.00    +0.000 C 
ENDBRANCH  24  27
ENDBRANCH  23  24
ENDBRANCH   1  23
BRANCH  12  29
ATOM     29  C   UNL     1      -3.898  14.121  24.198  0.00  0.00    +0.000 C 
BRANCH  29  30
ATOM     30  N   UNL     1      -3.566  15.442  23.584  0.00  0.00    +0.000 NA
BRANCH  30  31
ATOM     31  C   UNL     1      -4.684  16.031  22.808  0.00  0.00    +0.000 C 
ATOM     32  C   UNL     1      -4.706  15.806  21.296  0.00  0.00    +0.000 C 
ENDBRANCH  30  31
BRANCH  30  33
ATOM     33  C   UNL     1      -3.165  16.426  24.640  0.00  0.00    +0.000 C 
ATOM     34  C   UNL     1      -4.286  17.271  25.243  0.00  0.00    +0.000 C 
ENDBRANCH  30  33
ENDBRANCH  29  30
ENDBRANCH  12  29
TORSDOF 9
ENDMDL
MODEL 8
REMARK VINA RESULT:      -6.4      2.231      2.846
REMARK  Name = 
REMARK  14 active torsions:
REMARK  status: ('A' for Active; 'I' for Inactive)
REMARK    1  A    between atoms: C_1  and  C_2
REMARK    2  A    between atoms: C_2  and  N_3
REMARK    3  A    between atoms: N_3  and  C_4
REMARK    4  A    between atoms: N_3  and  C_6
REMARK    5  A    between atoms: C_4  and  C_5
REMARK    6  A    between atoms: C_6  and  C_7
REMARK    7  A    between atoms: C_18  and  C_20
REMARK    8  A    between atoms: C_20  and  N_21
REMARK    9  A    between atoms: N_21  and  C_22
REMARK   10  A    between atoms: N_21  and  C_24
REMARK   11  A    between atoms: C_22  and  C_23
REMARK   12  A    between atoms: C_24  and  C_25
REMARK   13  A    between atoms: C_28  and  O_29
REMARK   14  A    between atoms: O_29  and  C_30
REMARK                            x       y       z     vdW  Elec       q    Type
REMARK                         _______ _______ _______ _____ _____    ______ ____
ROOT
ATOM      1  C   UNL     1      -1.248  15.574  19.683  0.00  0.00    +0.000 C 
ATOM      2  O   UNL     1      -1.932  16.508  20.113  0.00  0.00    +0.000 OA
ATOM      3  N   UNL     1      -1.539  14.329  20.151  0.00  0.00    +0.000 N 
ATOM      4  C   UNL     1      -0.951  13.139  19.823  0.00  0.00    +0.000 A 
ATOM      5  N   UNL     1      -0.032  12.794  18.948  0.00  0.00    +0.000 NA
ATOM      6  C   UNL     1       0.348  11.447  19.163  0.00  0.00    +0.000 A 
ATOM      7  C   UNL     1       1.296  10.651  18.456  0.00  0.00    +0.000 A 
ATOM      8  C   UNL     1       1.658   9.345  18.903  0.00  0.00    +0.000 A 
ATOM      9  N   UNL     1       2.563   8.399  18.343  0.00  0.00    +0.000 NA
ATOM     10  C   UNL     1       2.660   7.342  19.122  0.00  0.00    +0.000 A 
ATOM     11  N   UNL     1       3.387   6.164  19.098  0.00  0.00    +0.000 N 
ATOM     12  C   UNL     1       3.938   5.592  17.981  0.00  0.00    +0.000 C 
ATOM     13  O   UNL     1       3.924   6.106  16.857  0.00  0.00    +0.000 OA
ATOM     14  S   UNL     1       1.686   7.355  20.514  0.00  0.00    +0.000 S 
ATOM     15  C   UNL     1       1.062   8.892  20.079  0.00  0.00    +0.000 A 
ATOM     16  C   UNL     1       0.112   9.631  20.773  0.00  0.00    +0.000 A 
ATOM     17  C   UNL     1      -0.289  10.873  20.269  0.00  0.00    +0.000 A 
ATOM     18  S   UNL     1      -1.564  11.902  20.790  0.00  0.00    +0.000 S 
ATOM     19  H   UNL     1      -2.254  14.308  20.867  0.00  0.00    +0.000 HD
ATOM     20  H   UNL     1       3.323   5.578  19.907  0.00  0.00    +0.000 HD
ENDROOT
BRANCH  16  21
ATOM     21  O   UNL     1      -0.440   9.042  21.894  0.00  0.00    +0.000 OA
ATOM     22  C   UNL     1       0.035   9.532  23.144  0.00  0.00    +0.000 C 
ENDBRANCH  16  21
BRANCH   1  23
ATOM     23  C   UNL     1      -0.078  15.706  18.707  0.00  0.00    +0.000 C 
BRANCH  23  24
ATOM     24  N   UNL     1       1.181  16.210  19.309  0.00  0.00    +0.000 NA
BRANCH  24  26
ATOM     25  C   UNL     1       2.322  14.871  21.113  0.00  0.00    +0.000 C 
ATOM     26  C   UNL     1       1.265  15.910  20.748  0.00  0.00    +0.000 C 
ENDBRANCH  24  26
BRANCH  24  27
ATOM     27  C   UNL     1       2.334  15.719  18.532  0.00  0.00    +0.000 C 
ATOM     28  C   UNL     1       2.941  16.691  17.520  0.00  0.00    +0.000 C 
ENDBRANCH  24  27
ENDBRANCH  23  24
ENDBRANCH   1  23
BRANCH  12  29
ATOM     29  C   UNL     1       4.666   4.244  18.191  0.00  0.00    +0.000 C 
BRANCH  29  30
ATOM     30  N   UNL     1       6.154   4.276  18.329  0.00  0.00    +0.000 NA
BRANCH  30  31
ATOM     31  C   UNL     1       6.864   4.471  17.042  0.00  0.00    +0.000 C 
ATOM     32  C   UNL     1       6.270   3.825  15.790  0.00  0.00    +0.000 C 
ENDBRANCH  30  31
BRANCH  30  33
ATOM     33  C   UNL     1       6.570   5.375  19.259  0.00  0.00    +0.000 C 
ATOM     34  C   UNL     1       7.805   6.178  18.853  0.00  0.00    +0.000 C 
ENDBRANCH  30  33
ENDBRANCH  29  30
ENDBRANCH  12  29
TORSDOF 9
ENDMDL
MODEL 9
REMARK VINA RESULT:      -6.4      3.350      5.474
REMARK  Name = 
REMARK  14 active torsions:
REMARK  status: ('A' for Active; 'I' for Inactive)
REMARK    1  A    between atoms: C_1  and  C_2
REMARK    2  A    between atoms: C_2  and  N_3
REMARK    3  A    between atoms: N_3  and  C_4
REMARK    4  A    between atoms: N_3  and  C_6
REMARK    5  A    between atoms: C_4  and  C_5
REMARK    6  A    between atoms: C_6  and  C_7
REMARK    7  A    between atoms: C_18  and  C_20
REMARK    8  A    between atoms: C_20  and  N_21
REMARK    9  A    between atoms: N_21  and  C_22
REMARK   10  A    between atoms: N_21  and  C_24
REMARK   11  A    between atoms: C_22  and  C_23
REMARK   12  A    between atoms: C_24  and  C_25
REMARK   13  A    between atoms: C_28  and  O_29
REMARK   14  A    between atoms: O_29  and  C_30
REMARK                            x       y       z     vdW  Elec       q    Type
REMARK                         _______ _______ _______ _____ _____    ______ ____
ROOT
ATOM      1  C   UNL     1      -3.239  14.386  22.659  0.00  0.00    +0.000 C 
ATOM      2  O   UNL     1      -3.799  15.472  22.839  0.00  0.00    +0.000 OA
ATOM      3  N   UNL     1      -2.121  14.389  21.879  0.00  0.00    +0.000 N 
ATOM      4  C   UNL     1      -1.316  13.336  21.545  0.00  0.00    +0.000 A 
ATOM      5  N   UNL     1      -1.287  12.070  21.900  0.00  0.00    +0.000 NA
ATOM      6  C   UNL     1      -0.353  11.373  21.097  0.00  0.00    +0.000 A 
ATOM      7  C   UNL     1       0.016   9.996  21.129  0.00  0.00    +0.000 A 
ATOM      8  C   UNL     1       0.880   9.429  20.143  0.00  0.00    +0.000 A 
ATOM      9  N   UNL     1       1.370   8.101  20.004  0.00  0.00    +0.000 NA
ATOM     10  C   UNL     1       2.081   7.987  18.902  0.00  0.00    +0.000 A 
ATOM     11  N   UNL     1       2.752   6.958  18.263  0.00  0.00    +0.000 N 
ATOM     12  C   UNL     1       3.197   5.808  18.860  0.00  0.00    +0.000 C 
ATOM     13  O   UNL     1       2.979   5.506  20.039  0.00  0.00    +0.000 OA
ATOM     14  S   UNL     1       2.264   9.409  17.989  0.00  0.00    +0.000 S 
ATOM     15  C   UNL     1       1.324  10.278  19.130  0.00  0.00    +0.000 A 
ATOM     16  C   UNL     1       1.007  11.631  19.090  0.00  0.00    +0.000 A 
ATOM     17  C   UNL     1       0.229  12.180  20.114  0.00  0.00    +0.000 A 
ATOM     18  S   UNL     1      -0.149  13.827  20.432  0.00  0.00    +0.000 S 
ATOM     19  H   UNL     1      -1.902  15.287  21.467  0.00  0.00    +0.000 HD
ATOM     20  H   UNL     1       3.128   7.160  17.358  0.00  0.00    +0.000 HD
ENDROOT
BRANCH  16  21
ATOM     21  O   UNL     1       1.559  12.370  18.061  0.00  0.00    +0.000 OA
ATOM     22  C   UNL     1       2.681  13.172  18.414  0.00  0.00    +0.000 C 
ENDBRANCH  16  21
BRANCH   1  23
ATOM     23  C   UNL     1      -3.719  13.040  23.199  0.00  0.00    +0.000 C 
BRANCH  23  24
ATOM     24  N   UNL     1      -5.033  12.591  22.676  0.00  0.00    +0.000 NA
BRANCH  24  26
ATOM     25  C   UNL     1      -7.188  12.559  23.981  0.00  0.00    +0.000 C 
ATOM     26  C   UNL     1      -6.147  13.381  23.226  0.00  0.00    +0.000 C 
ENDBRANCH  24  26
BRANCH  24  27
ATOM     27  C   UNL     1      -4.997  12.562  21.202  0.00  0.00    +0.000 C 
ATOM     28  C   UNL     1      -6.209  11.950  20.500  0.00  0.00    +0.000 C 
ENDBRANCH  24  27
ENDBRANCH  23  24
ENDBRANCH   1  23
BRANCH  12  29
ATOM     29  C   UNL     1       3.968   4.821  17.953  0.00  0.00    +0.000 C 
BRANCH  29  30
ATOM     30  N   UNL     1       5.167   5.339  17.228  0.00  0.00    +0.000 NA
BRANCH  30  31
ATOM     31  C   UNL     1       6.258   5.780  18.129  0.00  0.00    +0.000 C 
ATOM     32  C   UNL     1       7.208   6.869  17.628  0.00  0.00    +0.000 C 
ENDBRANCH  30  31
BRANCH  30  33
ATOM     33  C   UNL     1       5.719   4.291  16.310  0.00  0.00    +0.000 C 
ATOM     34  C   UNL     1       5.844   4.674  14.837  0.00  0.00    +0.000 C 
ENDBRANCH  30  33
ENDBRANCH  29  30
ENDBRANCH  12  29
TORSDOF 9
ENDMDL
