MODEL 1
REMARK VINA RESULT:      -9.3      0.000      0.000
REMARK  Name = 
REMARK  6 active torsions:
REMARK  status: ('A' for Active; 'I' for Inactive)
REMARK    1  A    between atoms: N_4  and  C_5
REMARK    2  A    between atoms: N_15  and  N_16
REMARK    3  A    between atoms: N_16  and  C_17
REMARK    4  A    between atoms: C_17  and  N_18
REMARK    5  A    between atoms: N_18  and  N_19
REMARK    6  A    between atoms: N_23  and  C_24
REMARK                            x       y       z     vdW  Elec       q    Type
REMARK                         _______ _______ _______ _____ _____    ______ ____
ROOT
ATOM      1  C   UNL     1       1.798   5.738  20.928  0.00  0.00    +0.000 C 
ENDROOT
BRANCH   1   2
ATOM      2  N   UNL     1       2.611   6.639  20.113  0.00  0.00    +0.000 NA
ATOM      3  H   UNL     1       3.457   6.838  20.656  0.00  0.00    +0.000 HD
BRANCH   2  11
ATOM      4  O   UNL     1       2.628   7.930  17.623  0.00  0.00    +0.000 OA
ATOM      5  C   UNL     1       2.009   8.431  18.559  0.00  0.00    +0.000 C 
ATOM      6  C   UNL     1       1.327   9.798  18.471  0.00  0.00    +0.000 C 
ATOM      7  N   UNL     1       0.116   9.775  19.289  0.00  0.00    +0.000 N 
ATOM      8  C   UNL     1       0.205   9.374  20.631  0.00  0.00    +0.000 C 
ATOM      9  O   UNL     1      -0.615   9.666  21.500  0.00  0.00    +0.000 OA
ATOM     10  C   UNL     1       1.518   8.682  20.980  0.00  0.00    +0.000 C 
ATOM     11  N   UNL     1       1.964   7.878  19.846  0.00  0.00    +0.000 N 
BRANCH   7  12
ATOM     12  C   UNL     1      -1.085  10.331  18.785  0.00  0.00    +0.000 A 
ATOM     13  C   UNL     1      -1.675  11.457  19.373  0.00  0.00    +0.000 A 
ATOM     14  C   UNL     1      -2.869  11.972  18.856  0.00  0.00    +0.000 A 
ATOM     15  C   UNL     1      -3.446  11.392  17.726  0.00  0.00    +0.000 A 
ATOM     16 CL   UNL     1      -4.909  12.034  17.087  0.00  0.00    +0.000 Cl
ATOM     17  C   UNL     1      -2.851  10.293  17.116  0.00  0.00    +0.000 A 
ATOM     18  C   UNL     1      -1.683   9.752  17.658  0.00  0.00    +0.000 A 
ENDBRANCH   7  12
ENDBRANCH   2  11
ENDBRANCH   1   2
BRANCH   1  19
ATOM     19  N   UNL     1       1.377   4.598  20.107  0.00  0.00    +0.000 NA
ATOM     20  H   UNL     1       0.556   4.909  19.569  0.00  0.00    +0.000 HD
BRANCH  19  21
ATOM     21  N   UNL     1       2.376   4.244  19.143  0.00  0.00    +0.000 N 
ATOM     22  C   UNL     1       3.610   3.644  19.633  0.00  0.00    +0.000 C 
ATOM     23  C   UNL     1       4.727   4.069  18.700  0.00  0.00    +0.000 C 
ATOM     24  O   UNL     1       5.871   4.257  19.113  0.00  0.00    +0.000 OA
ATOM     25  N   UNL     1       4.362   4.061  17.338  0.00  0.00    +0.000 N 
ATOM     26  C   UNL     1       3.104   3.415  16.956  0.00  0.00    +0.000 C 
ATOM     27  C   UNL     1       1.969   3.963  17.832  0.00  0.00    +0.000 C 
ATOM     28  O   UNL     1       0.799   4.036  17.458  0.00  0.00    +0.000 OA
BRANCH  25  29
ATOM     29  C   UNL     1       5.317   4.394  16.345  0.00  0.00    +0.000 A 
ATOM     30  C   UNL     1       6.238   5.431  16.535  0.00  0.00    +0.000 A 
ATOM     31  C   UNL     1       7.136   5.764  15.514  0.00  0.00    +0.000 A 
ATOM     32  C   UNL     1       7.145   5.034  14.326  0.00  0.00    +0.000 A 
ATOM     33 CL   UNL     1       8.251   5.446  13.075  0.00  0.00    +0.000 Cl
ATOM     34  C   UNL     1       6.257   3.979  14.143  0.00  0.00    +0.000 A 
ATOM     35  C   UNL     1       5.334   3.672  15.144  0.00  0.00    +0.000 A 
ENDBRANCH  25  29
ENDBRANCH  19  21
ENDBRANCH   1  19
TORSDOF 6
ENDMDL
MODEL 2
REMARK VINA RESULT:      -9.2      0.199      8.936
REMARK  Name = 
REMARK  6 active torsions:
REMARK  status: ('A' for Active; 'I' for Inactive)
REMARK    1  A    between atoms: N_4  and  C_5
REMARK    2  A    between atoms: N_15  and  N_16
REMARK    3  A    between atoms: N_16  and  C_17
REMARK    4  A    between atoms: C_17  and  N_18
REMARK    5  A    between atoms: N_18  and  N_19
REMARK    6  A    between atoms: N_23  and  C_24
REMARK                            x       y       z     vdW  Elec       q    Type
REMARK                         _______ _______ _______ _____ _____    ______ ____
ROOT
ATOM      1  C   UNL     1       2.098   5.783  20.859  0.00  0.00    +0.000 C 
ENDROOT
BRANCH   1   2
ATOM      2  N   UNL     1       1.536   4.689  20.071  0.00  0.00    +0.000 NA
ATOM      3  H   UNL     1       1.294   3.947  20.736  0.00  0.00    +0.000 HD
BRANCH   2  11
ATOM      4  O   UNL     1       0.908   4.035  17.417  0.00  0.00    +0.000 OA
ATOM      5  C   UNL     1       2.057   3.879  17.822  0.00  0.00    +0.000 C 
ATOM      6  C   UNL     1       3.157   3.233  16.977  0.00  0.00    +0.000 C 
ATOM      7  N   UNL     1       4.435   3.861  17.306  0.00  0.00    +0.000 N 
ATOM      8  C   UNL     1       4.842   3.923  18.647  0.00  0.00    +0.000 C 
ATOM      9  O   UNL     1       6.007   4.062  19.016  0.00  0.00    +0.000 OA
ATOM     10  C   UNL     1       3.726   3.620  19.642  0.00  0.00    +0.000 C 
ATOM     11  N   UNL     1       2.463   4.149  19.136  0.00  0.00    +0.000 N 
BRANCH   7  12
ATOM     12  C   UNL     1       5.328   4.225  16.269  0.00  0.00    +0.000 A 
ATOM     13  C   UNL     1       5.341   3.553  15.041  0.00  0.00    +0.000 A 
ATOM     14  C   UNL     1       6.246   3.931  14.044  0.00  0.00    +0.000 A 
ATOM     15  C   UNL     1       7.105   5.010  14.255  0.00  0.00    +0.000 A 
ATOM     16 CL   UNL     1       8.210   5.478  13.023  0.00  0.00    +0.000 Cl
ATOM     17  C   UNL     1       7.079   5.705  15.460  0.00  0.00    +0.000 A 
ATOM     18  C   UNL     1       6.205   5.300  16.471  0.00  0.00    +0.000 A 
ENDBRANCH   7  12
ENDBRANCH   2  11
ENDBRANCH   1   2
BRANCH   1  19
ATOM     19  N   UNL     1       2.750   6.739  19.956  0.00  0.00    +0.000 NA
ATOM     20  H   UNL     1       2.845   6.266  19.047  0.00  0.00    +0.000 HD
BRANCH  19  21
ATOM     21  N   UNL     1       1.930   7.890  19.725  0.00  0.00    +0.000 N 
ATOM     22  C   UNL     1       1.515   8.671  20.883  0.00  0.00    +0.000 C 
ATOM     23  C   UNL     1       0.151   9.257  20.573  0.00  0.00    +0.000 C 
ATOM     24  O   UNL     1      -0.690   9.424  21.455  0.00  0.00    +0.000 OA
ATOM     25  N   UNL     1       0.022   9.725  19.249  0.00  0.00    +0.000 N 
ATOM     26  C   UNL     1       1.231   9.849  18.432  0.00  0.00    +0.000 C 
ATOM     27  C   UNL     1       2.011   8.528  18.481  0.00  0.00    +0.000 C 
ATOM     28  O   UNL     1       2.727   8.129  17.563  0.00  0.00    +0.000 OA
BRANCH  25  29
ATOM     29  C   UNL     1      -1.184  10.339  18.828  0.00  0.00    +0.000 A 
ATOM     30  C   UNL     1      -1.662  11.505  19.437  0.00  0.00    +0.000 A 
ATOM     31  C   UNL     1      -2.882  12.058  19.028  0.00  0.00    +0.000 A 
ATOM     32  C   UNL     1      -3.598  11.473  17.984  0.00  0.00    +0.000 A 
ATOM     33 CL   UNL     1      -5.095  12.157  17.484  0.00  0.00    +0.000 Cl
ATOM     34  C   UNL     1      -3.112  10.335  17.350  0.00  0.00    +0.000 A 
ATOM     35  C   UNL     1      -1.917   9.759  17.784  0.00  0.00    +0.000 A 
ENDBRANCH  25  29
ENDBRANCH  19  21
ENDBRANCH   1  19
TORSDOF 6
ENDMDL
MODEL 3
REMARK VINA RESULT:      -9.1      0.290      1.195
REMARK  Name = 
REMARK  6 active torsions:
REMARK  status: ('A' for Active; 'I' for Inactive)
REMARK    1  A    between atoms: N_4  and  C_5
REMARK    2  A    between atoms: N_15  and  N_16
REMARK    3  A    between atoms: N_16  and  C_17
REMARK    4  A    between atoms: C_17  and  N_18
REMARK    5  A    between atoms: N_18  and  N_19
REMARK    6  A    between atoms: N_23  and  C_24
REMARK                            x       y       z     vdW  Elec       q    Type
REMARK                         _______ _______ _______ _____ _____    ______ ____
ROOT
ATOM      1  C   UNL     1       1.903   5.832  20.910  0.00  0.00    +0.000 C 
ENDROOT
BRANCH   1   2
ATOM      2  N   UNL     1       2.524   6.684  19.898  0.00  0.00    +0.000 NA
ATOM      3  H   UNL     1       3.469   6.893  20.235  0.00  0.00    +0.000 HD
BRANCH   2  11
ATOM      4  O   UNL     1       2.506   8.157  17.511  0.00  0.00    +0.000 OA
ATOM      5  C   UNL     1       1.872   8.568  18.480  0.00  0.00    +0.000 C 
ATOM      6  C   UNL     1       1.150   9.917  18.491  0.00  0.00    +0.000 C 
ATOM      7  N   UNL     1      -0.061   9.798  19.301  0.00  0.00    +0.000 N 
ATOM      8  C   UNL     1       0.037   9.302  20.609  0.00  0.00    +0.000 C 
ATOM      9  O   UNL     1      -0.792   9.503  21.494  0.00  0.00    +0.000 OA
ATOM     10  C   UNL     1       1.370   8.624  20.910  0.00  0.00    +0.000 C 
ATOM     11  N   UNL     1       1.841   7.920  19.722  0.00  0.00    +0.000 N 
BRANCH   7  12
ATOM     12  C   UNL     1      -1.277  10.355  18.835  0.00  0.00    +0.000 A 
ATOM     13  C   UNL     1      -2.077   9.691  17.898  0.00  0.00    +0.000 A 
ATOM     14  C   UNL     1      -3.266  10.278  17.451  0.00  0.00    +0.000 A 
ATOM     15  C   UNL     1      -3.678  11.503  17.974  0.00  0.00    +0.000 A 
ATOM     16 CL   UNL     1      -5.145  12.217  17.429  0.00  0.00    +0.000 Cl
ATOM     17  C   UNL     1      -2.906  12.156  18.929  0.00  0.00    +0.000 A 
ATOM     18  C   UNL     1      -1.698  11.592  19.343  0.00  0.00    +0.000 A 
ENDBRANCH   7  12
ENDBRANCH   2  11
ENDBRANCH   1   2
BRANCH   1  19
ATOM     19  N   UNL     1       1.578   4.533  20.309  0.00  0.00    +0.000 NA
ATOM     20  H   UNL     1       0.661   4.641  19.855  0.00  0.00    +0.000 HD
BRANCH  19  21
ATOM     21  N   UNL     1       2.501   4.186  19.271  0.00  0.00    +0.000 N 
ATOM     22  C   UNL     1       3.765   3.575  19.662  0.00  0.00    +0.000 C 
ATOM     23  C   UNL     1       4.812   4.006  18.654  0.00  0.00    +0.000 C 
ATOM     24  O   UNL     1       5.984   4.185  18.983  0.00  0.00    +0.000 OA
ATOM     25  N   UNL     1       4.348   4.015  17.323  0.00  0.00    +0.000 N 
ATOM     26  C   UNL     1       3.062   3.379  17.027  0.00  0.00    +0.000 C 
ATOM     27  C   UNL     1       1.998   3.922  17.991  0.00  0.00    +0.000 C 
ATOM     28  O   UNL     1       0.803   4.005  17.704  0.00  0.00    +0.000 OA
BRANCH  25  29
ATOM     29  C   UNL     1       5.230   4.355  16.266  0.00  0.00    +0.000 A 
ATOM     30  C   UNL     1       5.584   3.426  15.282  0.00  0.00    +0.000 A 
ATOM     31  C   UNL     1       6.496   3.780  14.280  0.00  0.00    +0.000 A 
ATOM     32  C   UNL     1       7.015   5.074  14.236  0.00  0.00    +0.000 A 
ATOM     33 CL   UNL     1       8.133   5.506  13.002  0.00  0.00    +0.000 Cl
ATOM     34  C   UNL     1       6.640   6.015  15.189  0.00  0.00    +0.000 A 
ATOM     35  C   UNL     1       5.764   5.650  16.212  0.00  0.00    +0.000 A 
ENDBRANCH  25  29
ENDBRANCH  19  21
ENDBRANCH   1  19
TORSDOF 6
ENDMDL
MODEL 4
REMARK VINA RESULT:      -8.6      7.546     10.160
REMARK  Name = 
REMARK  6 active torsions:
REMARK  status: ('A' for Active; 'I' for Inactive)
REMARK    1  A    between atoms: N_4  and  C_5
REMARK    2  A    between atoms: N_15  and  N_16
REMARK    3  A    between atoms: N_16  and  C_17
REMARK    4  A    between atoms: C_17  and  N_18
REMARK    5  A    between atoms: N_18  and  N_19
REMARK    6  A    between atoms: N_23  and  C_24
REMARK                            x       y       z     vdW  Elec       q    Type
REMARK                         _______ _______ _______ _____ _____    ______ ____
ROOT
ATOM      1  C   UNL     1       8.725   8.953  17.842  0.00  0.00    +0.000 C 
ENDROOT
BRANCH   1   2
ATOM      2  N   UNL     1       8.444   7.916  18.832  0.00  0.00    +0.000 NA
ATOM      3  H   UNL     1       9.348   7.504  19.086  0.00  0.00    +0.000 HD
BRANCH   2  11
ATOM      4  O   UNL     1       8.472   5.272  19.770  0.00  0.00    +0.000 OA
ATOM      5  C   UNL     1       7.690   5.589  18.877  0.00  0.00    +0.000 C 
ATOM      6  C   UNL     1       6.792   4.578  18.161  0.00  0.00    +0.000 C 
ATOM      7  N   UNL     1       5.531   5.231  17.812  0.00  0.00    +0.000 N 
ATOM      8  C   UNL     1       5.561   6.434  17.091  0.00  0.00    +0.000 C 
ATOM      9  O   UNL     1       4.624   6.868  16.424  0.00  0.00    +0.000 OA
ATOM     10  C   UNL     1       6.935   7.093  17.053  0.00  0.00    +0.000 C 
ATOM     11  N   UNL     1       7.620   6.874  18.323  0.00  0.00    +0.000 N 
BRANCH   7  12
ATOM     12  C   UNL     1       4.305   4.557  18.032  0.00  0.00    +0.000 A 
ATOM     13  C   UNL     1       3.865   3.537  17.179  0.00  0.00    +0.000 A 
ATOM     14  C   UNL     1       2.642   2.902  17.420  0.00  0.00    +0.000 A 
ATOM     15  C   UNL     1       1.882   3.252  18.537  0.00  0.00    +0.000 A 
ATOM     16 CL   UNL     1       0.383   2.463  18.835  0.00  0.00    +0.000 Cl
ATOM     17  C   UNL     1       2.326   4.243  19.407  0.00  0.00    +0.000 A 
ATOM     18  C   UNL     1       3.526   4.907  19.143  0.00  0.00    +0.000 A 
ENDBRANCH   7  12
ENDBRANCH   2  11
ENDBRANCH   1   2
BRANCH   1  19
ATOM     19  N   UNL     1       8.001  10.175  18.209  0.00  0.00    +0.000 NA
ATOM     20  H   UNL     1       7.567   9.996  19.125  0.00  0.00    +0.000 HD
BRANCH  19  21
ATOM     21  N   UNL     1       8.893  11.279  18.399  0.00  0.00    +0.000 N 
ATOM     22  C   UNL     1      10.284  10.982  18.717  0.00  0.00    +0.000 C 
ATOM     23  C   UNL     1      10.799  12.102  19.599  0.00  0.00    +0.000 C 
ATOM     24  O   UNL     1      11.632  11.892  20.481  0.00  0.00    +0.000 OA
ATOM     25  N   UNL     1      10.363  13.383  19.204  0.00  0.00    +0.000 N 
ATOM     26  C   UNL     1       9.722  13.528  17.894  0.00  0.00    +0.000 C 
ATOM     27  C   UNL     1       8.596  12.494  17.767  0.00  0.00    +0.000 C 
ATOM     28  O   UNL     1       7.588  12.670  17.083  0.00  0.00    +0.000 OA
BRANCH  25  29
ATOM     29  C   UNL     1      10.802  14.532  19.909  0.00  0.00    +0.000 A 
ATOM     30  C   UNL     1      10.179  14.945  21.093  0.00  0.00    +0.000 A 
ATOM     31  C   UNL     1      10.606  16.112  21.738  0.00  0.00    +0.000 A 
ATOM     32  C   UNL     1      11.683  16.837  21.227  0.00  0.00    +0.000 A 
ATOM     33 CL   UNL     1      12.206  18.268  22.024  0.00  0.00    +0.000 Cl
ATOM     34  C   UNL     1      12.330  16.413  20.071  0.00  0.00    +0.000 A 
ATOM     35  C   UNL     1      11.878  15.273  19.405  0.00  0.00    +0.000 A 
ENDBRANCH  25  29
ENDBRANCH  19  21
ENDBRANCH   1  19
TORSDOF 6
ENDMDL
MODEL 5
REMARK VINA RESULT:      -8.5      6.780     10.050
REMARK  Name = 
REMARK  6 active torsions:
REMARK  status: ('A' for Active; 'I' for Inactive)
REMARK    1  A    between atoms: N_4  and  C_5
REMARK    2  A    between atoms: N_15  and  N_16
REMARK    3  A    between atoms: N_16  and  C_17
REMARK    4  A    between atoms: C_17  and  N_18
REMARK    5  A    between atoms: N_18  and  N_19
REMARK    6  A    between atoms: N_23  and  C_24
REMARK                            x       y       z     vdW  Elec       q    Type
REMARK                         _______ _______ _______ _____ _____    ______ ____
ROOT
ATOM      1  C   UNL     1       8.182   9.316  18.210  0.00  0.00    +0.000 C 
ENDROOT
BRANCH   1   2
ATOM      2  N   UNL     1       8.538   8.009  18.757  0.00  0.00    +0.000 NA
ATOM      3  H   UNL     1       9.493   7.812  18.439  0.00  0.00    +0.000 HD
BRANCH   2  11
ATOM      4  O   UNL     1       8.525   5.398  19.783  0.00  0.00    +0.000 OA
ATOM      5  C   UNL     1       7.749   5.696  18.879  0.00  0.00    +0.000 C 
ATOM      6  C   UNL     1       6.836   4.676  18.196  0.00  0.00    +0.000 C 
ATOM      7  N   UNL     1       5.586   5.336  17.824  0.00  0.00    +0.000 N 
ATOM      8  C   UNL     1       5.634   6.514  17.063  0.00  0.00    +0.000 C 
ATOM      9  O   UNL     1       4.704   6.940  16.380  0.00  0.00    +0.000 OA
ATOM     10  C   UNL     1       7.018   7.150  17.004  0.00  0.00    +0.000 C 
ATOM     11  N   UNL     1       7.698   6.963  18.282  0.00  0.00    +0.000 N 
BRANCH   7  12
ATOM     12  C   UNL     1       4.349   4.689  18.065  0.00  0.00    +0.000 A 
ATOM     13  C   UNL     1       3.505   5.085  19.109  0.00  0.00    +0.000 A 
ATOM     14  C   UNL     1       2.297   4.414  19.326  0.00  0.00    +0.000 A 
ATOM     15  C   UNL     1       1.910   3.380  18.473  0.00  0.00    +0.000 A 
ATOM     16 CL   UNL     1       0.419   2.564  18.736  0.00  0.00    +0.000 Cl
ATOM     17  C   UNL     1       2.728   3.000  17.413  0.00  0.00    +0.000 A 
ATOM     18  C   UNL     1       3.953   3.641  17.223  0.00  0.00    +0.000 A 
ENDBRANCH   7  12
ENDBRANCH   2  11
ENDBRANCH   1   2
BRANCH   1  19
ATOM     19  N   UNL     1       9.387  10.148  18.133  0.00  0.00    +0.000 NA
ATOM     20  H   UNL     1       9.384  10.586  17.201  0.00  0.00    +0.000 HD
BRANCH  19  21
ATOM     21  N   UNL     1       9.348  11.222  19.080  0.00  0.00    +0.000 N 
ATOM     22  C   UNL     1       9.660  10.914  20.470  0.00  0.00    +0.000 C 
ATOM     23  C   UNL     1       8.848  11.854  21.339  0.00  0.00    +0.000 C 
ATOM     24  O   UNL     1       8.419  11.501  22.438  0.00  0.00    +0.000 OA
ATOM     25  N   UNL     1       8.784  13.172  20.845  0.00  0.00    +0.000 N 
ATOM     26  C   UNL     1       9.684  13.553  19.754  0.00  0.00    +0.000 C 
ATOM     27  C   UNL     1       9.563  12.527  18.619  0.00  0.00    +0.000 C 
ATOM     28  O   UNL     1       9.752  12.802  17.434  0.00  0.00    +0.000 OA
BRANCH  25  29
ATOM     29  C   UNL     1       8.094  14.172  21.576  0.00  0.00    +0.000 A 
ATOM     30  C   UNL     1       6.746  14.459  21.332  0.00  0.00    +0.000 A 
ATOM     31  C   UNL     1       6.110  15.486  22.039  0.00  0.00    +0.000 A 
ATOM     32  C   UNL     1       6.805  16.192  23.020  0.00  0.00    +0.000 A 
ATOM     33 CL   UNL     1       6.019  17.451  23.887  0.00  0.00    +0.000 Cl
ATOM     34  C   UNL     1       8.135  15.890  23.294  0.00  0.00    +0.000 A 
ATOM     35  C   UNL     1       8.782  14.894  22.561  0.00  0.00    +0.000 A 
ENDBRANCH  25  29
ENDBRANCH  19  21
ENDBRANCH   1  19
TORSDOF 6
ENDMDL
MODEL 6
REMARK VINA RESULT:      -8.5      7.343      9.221
REMARK  Name = 
REMARK  6 active torsions:
REMARK  status: ('A' for Active; 'I' for Inactive)
REMARK    1  A    between atoms: N_4  and  C_5
REMARK    2  A    between atoms: N_15  and  N_16
REMARK    3  A    between atoms: N_16  and  C_17
REMARK    4  A    between atoms: C_17  and  N_18
REMARK    5  A    between atoms: N_18  and  N_19
REMARK    6  A    between atoms: N_23  and  C_24
REMARK                            x       y       z     vdW  Elec       q    Type
REMARK                         _______ _______ _______ _____ _____    ______ ____
ROOT
ATOM      1  C   UNL     1       8.091   9.264  18.448  0.00  0.00    +0.000 C 
ENDROOT
BRANCH   1   2
ATOM      2  N   UNL     1       8.973   9.944  17.502  0.00  0.00    +0.000 NA
ATOM      3  H   UNL     1       9.753   9.305  17.322  0.00  0.00    +0.000 HD
BRANCH   2  11
ATOM      4  O   UNL     1       7.791  12.469  17.190  0.00  0.00    +0.000 OA
ATOM      5  C   UNL     1       8.832  12.364  17.833  0.00  0.00    +0.000 C 
ATOM      6  C   UNL     1       9.591  13.571  18.390  0.00  0.00    +0.000 C 
ATOM      7  N   UNL     1      10.214  13.192  19.656  0.00  0.00    +0.000 N 
ATOM      8  C   UNL     1      11.033  12.054  19.703  0.00  0.00    +0.000 C 
ATOM      9  O   UNL     1      11.891  11.849  20.559  0.00  0.00    +0.000 OA
ATOM     10  C   UNL     1      10.897  11.150  18.483  0.00  0.00    +0.000 C 
ATOM     11  N   UNL     1       9.513  11.154  18.021  0.00  0.00    +0.000 N 
BRANCH   7  12
ATOM     12  C   UNL     1      10.145  14.071  20.765  0.00  0.00    +0.000 A 
ATOM     13  C   UNL     1      10.890  15.255  20.811  0.00  0.00    +0.000 A 
ATOM     14  C   UNL     1      10.806  16.093  21.928  0.00  0.00    +0.000 A 
ATOM     15  C   UNL     1       9.944  15.772  22.977  0.00  0.00    +0.000 A 
ATOM     16 CL   UNL     1       9.836  16.809  24.345  0.00  0.00    +0.000 Cl
ATOM     17  C   UNL     1       9.176  14.613  22.927  0.00  0.00    +0.000 A 
ATOM     18  C   UNL     1       9.292  13.755  21.832  0.00  0.00    +0.000 A 
ENDBRANCH   7  12
ENDBRANCH   2  11
ENDBRANCH   1   2
BRANCH   1  19
ATOM     19  N   UNL     1       8.596   7.907  18.684  0.00  0.00    +0.000 NA
ATOM     20  H   UNL     1       8.744   7.821  19.699  0.00  0.00    +0.000 HD
BRANCH  19  21
ATOM     21  N   UNL     1       7.624   6.915  18.335  0.00  0.00    +0.000 N 
ATOM     22  C   UNL     1       6.996   7.012  17.024  0.00  0.00    +0.000 C 
ATOM     23  C   UNL     1       5.586   6.468  17.152  0.00  0.00    +0.000 C 
ATOM     24  O   UNL     1       4.659   6.927  16.486  0.00  0.00    +0.000 OA
ATOM     25  N   UNL     1       5.493   5.317  17.961  0.00  0.00    +0.000 N 
ATOM     26  C   UNL     1       6.730   4.634  18.348  0.00  0.00    +0.000 C 
ATOM     27  C   UNL     1       7.704   5.658  18.948  0.00  0.00    +0.000 C 
ATOM     28  O   UNL     1       8.549   5.373  19.797  0.00  0.00    +0.000 OA
BRANCH  25  29
ATOM     29  C   UNL     1       4.243   4.672  18.136  0.00  0.00    +0.000 A 
ATOM     30  C   UNL     1       3.287   5.162  19.032  0.00  0.00    +0.000 A 
ATOM     31  C   UNL     1       2.083   4.472  19.217  0.00  0.00    +0.000 A 
ATOM     32  C   UNL     1       1.816   3.323  18.474  0.00  0.00    +0.000 A 
ATOM     33 CL   UNL     1       0.334   2.480  18.702  0.00  0.00    +0.000 Cl
ATOM     34  C   UNL     1       2.746   2.849  17.555  0.00  0.00    +0.000 A 
ATOM     35  C   UNL     1       3.964   3.512  17.401  0.00  0.00    +0.000 A 
ENDBRANCH  25  29
ENDBRANCH  19  21
ENDBRANCH   1  19
TORSDOF 6
ENDMDL
MODEL 7
REMARK VINA RESULT:      -8.4      7.294      9.208
REMARK  Name = 
REMARK  6 active torsions:
REMARK  status: ('A' for Active; 'I' for Inactive)
REMARK    1  A    between atoms: N_4  and  C_5
REMARK    2  A    between atoms: N_15  and  N_16
REMARK    3  A    between atoms: N_16  and  C_17
REMARK    4  A    between atoms: C_17  and  N_18
REMARK    5  A    between atoms: N_18  and  N_19
REMARK    6  A    between atoms: N_23  and  C_24
REMARK                            x       y       z     vdW  Elec       q    Type
REMARK                         _______ _______ _______ _____ _____    ______ ____
ROOT
ATOM      1  C   UNL     1       8.035   9.292  18.250  0.00  0.00    +0.000 C 
ENDROOT
BRANCH   1   2
ATOM      2  N   UNL     1       9.055   9.944  17.433  0.00  0.00    +0.000 NA
ATOM      3  H   UNL     1       9.843   9.290  17.376  0.00  0.00    +0.000 HD
BRANCH   2  11
ATOM      4  O   UNL     1       7.783  12.431  17.181  0.00  0.00    +0.000 OA
ATOM      5  C   UNL     1       8.812  12.343  17.846  0.00  0.00    +0.000 C 
ATOM      6  C   UNL     1       9.509  13.556  18.465  0.00  0.00    +0.000 C 
ATOM      7  N   UNL     1      10.117  13.156  19.733  0.00  0.00    +0.000 N 
ATOM      8  C   UNL     1      10.978  12.049  19.760  0.00  0.00    +0.000 C 
ATOM      9  O   UNL     1      11.823  11.845  20.629  0.00  0.00    +0.000 OA
ATOM     10  C   UNL     1      10.907  11.186  18.504  0.00  0.00    +0.000 C 
ATOM     11  N   UNL     1       9.535  11.154  18.009  0.00  0.00    +0.000 N 
BRANCH   7  12
ATOM     12  C   UNL     1       9.986  13.990  20.871  0.00  0.00    +0.000 A 
ATOM     13  C   UNL     1       9.119  13.668  21.921  0.00  0.00    +0.000 A 
ATOM     14  C   UNL     1       9.006  14.522  23.023  0.00  0.00    +0.000 A 
ATOM     15  C   UNL     1       9.793  15.672  23.098  0.00  0.00    +0.000 A 
ATOM     16 CL   UNL     1       9.658  16.715  24.459  0.00  0.00    +0.000 Cl
ATOM     17  C   UNL     1      10.680  15.984  22.073  0.00  0.00    +0.000 A 
ATOM     18  C   UNL     1      10.761  15.155  20.953  0.00  0.00    +0.000 A 
ENDBRANCH   7  12
ENDBRANCH   2  11
ENDBRANCH   1   2
BRANCH   1  19
ATOM     19  N   UNL     1       8.514   7.963  18.646  0.00  0.00    +0.000 NA
ATOM     20  H   UNL     1       8.572   7.966  19.674  0.00  0.00    +0.000 HD
BRANCH  19  21
ATOM     21  N   UNL     1       7.574   6.939  18.301  0.00  0.00    +0.000 N 
ATOM     22  C   UNL     1       6.904   7.040  17.010  0.00  0.00    +0.000 C 
ATOM     23  C   UNL     1       5.522   6.435  17.165  0.00  0.00    +0.000 C 
ATOM     24  O   UNL     1       4.558   6.870  16.536  0.00  0.00    +0.000 OA
ATOM     25  N   UNL     1       5.500   5.263  17.949  0.00  0.00    +0.000 N 
ATOM     26  C   UNL     1       6.774   4.624  18.285  0.00  0.00    +0.000 C 
ATOM     27  C   UNL     1       7.723   5.673  18.881  0.00  0.00    +0.000 C 
ATOM     28  O   UNL     1       8.602   5.405  19.700  0.00  0.00    +0.000 OA
BRANCH  25  29
ATOM     29  C   UNL     1       4.283   4.563  18.144  0.00  0.00    +0.000 A 
ATOM     30  C   UNL     1       3.852   3.580  17.245  0.00  0.00    +0.000 A 
ATOM     31  C   UNL     1       2.622   2.943  17.442  0.00  0.00    +0.000 A 
ATOM     32  C   UNL     1       1.846   3.254  18.559  0.00  0.00    +0.000 A 
ATOM     33 CL   UNL     1       0.336   2.466  18.798  0.00  0.00    +0.000 Cl
ATOM     34  C   UNL     1       2.283   4.203  19.476  0.00  0.00    +0.000 A 
ATOM     35  C   UNL     1       3.490   4.869  19.258  0.00  0.00    +0.000 A 
ENDBRANCH  25  29
ENDBRANCH  19  21
ENDBRANCH   1  19
TORSDOF 6
ENDMDL
MODEL 8
REMARK VINA RESULT:      -8.4      6.800      8.330
REMARK  Name = 
REMARK  6 active torsions:
REMARK  status: ('A' for Active; 'I' for Inactive)
REMARK    1  A    between atoms: N_4  and  C_5
REMARK    2  A    between atoms: N_15  and  N_16
REMARK    3  A    between atoms: N_16  and  C_17
REMARK    4  A    between atoms: C_17  and  N_18
REMARK    5  A    between atoms: N_18  and  N_19
REMARK    6  A    between atoms: N_23  and  C_24
REMARK                            x       y       z     vdW  Elec       q    Type
REMARK                         _______ _______ _______ _____ _____    ______ ____
ROOT
ATOM      1  C   UNL     1       8.190   9.309  18.211  0.00  0.00    +0.000 C 
ENDROOT
BRANCH   1   2
ATOM      2  N   UNL     1       9.398  10.109  18.024  0.00  0.00    +0.000 NA
ATOM      3  H   UNL     1      10.191   9.471  18.146  0.00  0.00    +0.000 HD
BRANCH   2  11
ATOM      4  O   UNL     1      10.053  12.765  17.403  0.00  0.00    +0.000 OA
ATOM      5  C   UNL     1       9.832  12.454  18.571  0.00  0.00    +0.000 C 
ATOM      6  C   UNL     1      10.005  13.428  19.738  0.00  0.00    +0.000 C 
ATOM      7  N   UNL     1       8.999  13.127  20.756  0.00  0.00    +0.000 N 
ATOM      8  C   UNL     1       8.889  11.816  21.243  0.00  0.00    +0.000 C 
ATOM      9  O   UNL     1       8.384  11.516  22.323  0.00  0.00    +0.000 OA
ATOM     10  C   UNL     1       9.620  10.782  20.394  0.00  0.00    +0.000 C 
ATOM     11  N   UNL     1       9.525  11.151  18.985  0.00  0.00    +0.000 N 
BRANCH   7  12
ATOM     12  C   UNL     1       8.284  14.184  21.372  0.00  0.00    +0.000 A 
ATOM     13  C   UNL     1       6.987  14.523  20.971  0.00  0.00    +0.000 A 
ATOM     14  C   UNL     1       6.315  15.581  21.594  0.00  0.00    +0.000 A 
ATOM     15  C   UNL     1       6.921  16.268  22.646  0.00  0.00    +0.000 A 
ATOM     16 CL   UNL     1       6.089  17.562  23.416  0.00  0.00    +0.000 Cl
ATOM     17  C   UNL     1       8.198  15.917  23.072  0.00  0.00    +0.000 A 
ATOM     18  C   UNL     1       8.885  14.890  22.423  0.00  0.00    +0.000 A 
ENDBRANCH   7  12
ENDBRANCH   2  11
ENDBRANCH   1   2
BRANCH   1  19
ATOM     19  N   UNL     1       8.567   7.982  18.710  0.00  0.00    +0.000 NA
ATOM     20  H   UNL     1       8.554   8.039  19.738  0.00  0.00    +0.000 HD
BRANCH  19  21
ATOM     21  N   UNL     1       7.599   6.989  18.352  0.00  0.00    +0.000 N 
ATOM     22  C   UNL     1       6.944   7.116  17.056  0.00  0.00    +0.000 C 
ATOM     23  C   UNL     1       5.542   6.554  17.196  0.00  0.00    +0.000 C 
ATOM     24  O   UNL     1       4.597   7.022  16.562  0.00  0.00    +0.000 OA
ATOM     25  N   UNL     1       5.477   5.380  17.974  0.00  0.00    +0.000 N 
ATOM     26  C   UNL     1       6.728   4.699  18.318  0.00  0.00    +0.000 C 
ATOM     27  C   UNL     1       7.703   5.716  18.927  0.00  0.00    +0.000 C 
ATOM     28  O   UNL     1       8.567   5.417  19.752  0.00  0.00    +0.000 OA
BRANCH  25  29
ATOM     29  C   UNL     1       4.237   4.717  18.155  0.00  0.00    +0.000 A 
ATOM     30  C   UNL     1       3.344   5.099  19.163  0.00  0.00    +0.000 A 
ATOM     31  C   UNL     1       2.150   4.391  19.345  0.00  0.00    +0.000 A 
ATOM     32  C   UNL     1       1.829   3.334  18.493  0.00  0.00    +0.000 A 
ATOM     33 CL   UNL     1       0.360   2.469  18.720  0.00  0.00    +0.000 Cl
ATOM     34  C   UNL     1       2.694   2.971  17.467  0.00  0.00    +0.000 A 
ATOM     35  C   UNL     1       3.903   3.649  17.311  0.00  0.00    +0.000 A 
ENDBRANCH  25  29
ENDBRANCH  19  21
ENDBRANCH   1  19
TORSDOF 6
ENDMDL
MODEL 9
REMARK VINA RESULT:      -8.2      6.651      8.182
REMARK  Name = 
REMARK  6 active torsions:
REMARK  status: ('A' for Active; 'I' for Inactive)
REMARK    1  A    between atoms: N_4  and  C_5
REMARK    2  A    between atoms: N_15  and  N_16
REMARK    3  A    between atoms: N_16  and  C_17
REMARK    4  A    between atoms: C_17  and  N_18
REMARK    5  A    between atoms: N_18  and  N_19
REMARK    6  A    between atoms: N_23  and  C_24
REMARK                            x       y       z     vdW  Elec       q    Type
REMARK                         _______ _______ _______ _____ _____    ______ ____
ROOT
ATOM      1  C   UNL     1       8.134   9.300  18.255  0.00  0.00    +0.000 C 
ENDROOT
BRANCH   1   2
ATOM      2  N   UNL     1       9.309  10.148  18.062  0.00  0.00    +0.000 NA
ATOM      3  H   UNL     1      10.127   9.545  18.194  0.00  0.00    +0.000 HD
BRANCH   2  11
ATOM      4  O   UNL     1       9.610  12.855  17.394  0.00  0.00    +0.000 OA
ATOM      5  C   UNL     1       9.515  12.531  18.575  0.00  0.00    +0.000 C 
ATOM      6  C   UNL     1       9.664  13.528  19.726  0.00  0.00    +0.000 C 
ATOM      7  N   UNL     1       8.778  13.125  20.817  0.00  0.00    +0.000 N 
ATOM      8  C   UNL     1       8.854  11.814  21.311  0.00  0.00    +0.000 C 
ATOM      9  O   UNL     1       8.469  11.467  22.426  0.00  0.00    +0.000 OA
ATOM     10  C   UNL     1       9.631  10.861  20.408  0.00  0.00    +0.000 C 
ATOM     11  N   UNL     1       9.390  11.205  19.011  0.00  0.00    +0.000 N 
BRANCH   7  12
ATOM     12  C   UNL     1       7.997  14.098  21.486  0.00  0.00    +0.000 A 
ATOM     13  C   UNL     1       8.390  14.635  22.718  0.00  0.00    +0.000 A 
ATOM     14  C   UNL     1       7.586  15.586  23.356  0.00  0.00    +0.000 A 
ATOM     15  C   UNL     1       6.416  16.034  22.743  0.00  0.00    +0.000 A 
ATOM     16 CL   UNL     1       5.436  17.210  23.527  0.00  0.00    +0.000 Cl
ATOM     17  C   UNL     1       6.033  15.530  21.505  0.00  0.00    +0.000 A 
ATOM     18  C   UNL     1       6.812  14.550  20.888  0.00  0.00    +0.000 A 
ENDBRANCH   7  12
ENDBRANCH   2  11
ENDBRANCH   1   2
BRANCH   1  19
ATOM     19  N   UNL     1       8.570   7.970  18.692  0.00  0.00    +0.000 NA
ATOM     20  H   UNL     1       8.593   7.990  19.721  0.00  0.00    +0.000 HD
BRANCH  19  21
ATOM     21  N   UNL     1       7.621   6.959  18.333  0.00  0.00    +0.000 N 
ATOM     22  C   UNL     1       6.965   7.074  17.036  0.00  0.00    +0.000 C 
ATOM     23  C   UNL     1       5.574   6.486  17.175  0.00  0.00    +0.000 C 
ATOM     24  O   UNL     1       4.621   6.937  16.540  0.00  0.00    +0.000 OA
ATOM     25  N   UNL     1       5.529   5.311  17.953  0.00  0.00    +0.000 N 
ATOM     26  C   UNL     1       6.792   4.654  18.298  0.00  0.00    +0.000 C 
ATOM     27  C   UNL     1       7.748   5.688  18.908  0.00  0.00    +0.000 C 
ATOM     28  O   UNL     1       8.616   5.405  19.734  0.00  0.00    +0.000 OA
BRANCH  25  29
ATOM     29  C   UNL     1       4.302   4.626  18.133  0.00  0.00    +0.000 A 
ATOM     30  C   UNL     1       3.871   3.647  17.230  0.00  0.00    +0.000 A 
ATOM     31  C   UNL     1       2.631   3.024  17.412  0.00  0.00    +0.000 A 
ATOM     32  C   UNL     1       1.845   3.345  18.518  0.00  0.00    +0.000 A 
ATOM     33 CL   UNL     1       0.322   2.576  18.739  0.00  0.00    +0.000 Cl
ATOM     34  C   UNL     1       2.281   4.290  19.440  0.00  0.00    +0.000 A 
ATOM     35  C   UNL     1       3.499   4.942  19.237  0.00  0.00    +0.000 A 
ENDBRANCH  25  29
ENDBRANCH  19  21
ENDBRANCH   1  19
TORSDOF 6
ENDMDL
