MODEL 1
REMARK VINA RESULT:      -6.9      0.000      0.000
REMARK  Name = 
REMARK  7 active torsions:
REMARK  status: ('A' for Active; 'I' for Inactive)
REMARK    1  A    between atoms: C_2  and  C_3
REMARK    2  A    between atoms: C_3  and  N_4
REMARK    3  A    between atoms: C_3  and  C_18
REMARK    4  A    between atoms: C_5  and  C_7
REMARK    5  A    between atoms: C_11  and  O_12
REMARK    6  A    between atoms: O_12  and  C_13
REMARK    7  A    between atoms: C_13  and  C_14
REMARK                            x       y       z     vdW  Elec       q    Type
REMARK                         _______ _______ _______ _____ _____    ______ ____
ROOT
ATOM      1  N   UNL     1       3.490   5.764  18.672  0.00  0.00    +0.000 N 
ATOM      2  C   UNL     1       3.790   4.876  17.666  0.00  0.00    +0.000 C 
ATOM      3  O   UNL     1       2.946   4.147  17.158  0.00  0.00    +0.000 OA
ATOM      4  H   UNL     1       4.139   6.501  18.904  0.00  0.00    +0.000 HD
ENDROOT
BRANCH   2   5
ATOM      5  C   UNL     1       5.201   4.825  17.202  0.00  0.00    +0.000 A 
ATOM      6  C   UNL     1       6.271   4.760  18.097  0.00  0.00    +0.000 A 
ATOM      7  C   UNL     1       7.547   4.646  17.573  0.00  0.00    +0.000 A 
ATOM      8  N   UNL     1       7.811   4.576  16.251  0.00  0.00    +0.000 NA
ATOM      9  C   UNL     1       6.756   4.634  15.413  0.00  0.00    +0.000 A 
ATOM     10  C   UNL     1       5.447   4.767  15.831  0.00  0.00    +0.000 A 
BRANCH   9  11
ATOM     11  O   UNL     1       6.974   4.532  14.059  0.00  0.00    +0.000 OA
BRANCH  11  12
ATOM     12  C   UNL     1       5.849   4.012  13.336  0.00  0.00    +0.000 C 
BRANCH  12  13
ATOM     13  C   UNL     1       6.248   2.991  12.278  0.00  0.00    +0.000 C 
ATOM     14  F   UNL     1       5.199   2.771  11.438  0.00  0.00    +0.000 F 
ATOM     15  F   UNL     1       7.248   3.495  11.509  0.00  0.00    +0.000 F 
ENDBRANCH  12  13
ENDBRANCH  11  12
ENDBRANCH   9  11
ENDBRANCH   2   5
BRANCH   1  16
ATOM     16  C   UNL     1       2.122   5.889  19.156  0.00  0.00    +0.000 C 
BRANCH  16  17
ATOM     17  C   UNL     1       1.832   4.671  20.001  0.00  0.00    +0.000 A 
ATOM     18  C   UNL     1       0.857   3.651  19.699  0.00  0.00    +0.000 A 
ATOM     19  C   UNL     1       0.808   2.660  20.656  0.00  0.00    +0.000 A 
ATOM     20  S   UNL     1       1.925   2.932  21.916  0.00  0.00    +0.000 S 
ATOM     21  C   UNL     1       2.482   4.376  21.188  0.00  0.00    +0.000 A 
ENDBRANCH  16  17
BRANCH  16  23
ATOM     22  N   UNL     1       1.749   8.195  20.665  0.00  0.00    +0.000 NA
ATOM     23  C   UNL     1       1.918   7.150  19.981  0.00  0.00    +0.000 C 
ENDBRANCH  16  23
ENDBRANCH   1  16
TORSDOF 7
ENDMDL
MODEL 2
REMARK VINA RESULT:      -6.7      2.383      3.083
REMARK  Name = 
REMARK  7 active torsions:
REMARK  status: ('A' for Active; 'I' for Inactive)
REMARK    1  A    between atoms: C_2  and  C_3
REMARK    2  A    between atoms: C_3  and  N_4
REMARK    3  A    between atoms: C_3  and  C_18
REMARK    4  A    between atoms: C_5  and  C_7
REMARK    5  A    between atoms: C_11  and  O_12
REMARK    6  A    between atoms: O_12  and  C_13
REMARK    7  A    between atoms: C_13  and  C_14
REMARK                            x       y       z     vdW  Elec       q    Type
REMARK                         _______ _______ _______ _____ _____    ______ ____
ROOT
ATOM      1  N   UNL     1       5.324   3.392  19.345  0.00  0.00    +0.000 N 
ATOM      2  C   UNL     1       5.222   4.735  19.070  0.00  0.00    +0.000 C 
ATOM      3  O   UNL     1       4.520   5.492  19.731  0.00  0.00    +0.000 OA
ATOM      4  H   UNL     1       6.073   2.850  18.941  0.00  0.00    +0.000 HD
ENDROOT
BRANCH   2   5
ATOM      5  C   UNL     1       6.008   5.255  17.920  0.00  0.00    +0.000 A 
ATOM      6  C   UNL     1       6.739   6.442  18.001  0.00  0.00    +0.000 A 
ATOM      7  C   UNL     1       7.496   6.812  16.902  0.00  0.00    +0.000 A 
ATOM      8  N   UNL     1       7.579   6.083  15.770  0.00  0.00    +0.000 NA
ATOM      9  C   UNL     1       6.867   4.939  15.726  0.00  0.00    +0.000 A 
ATOM     10  C   UNL     1       6.066   4.489  16.757  0.00  0.00    +0.000 A 
BRANCH   9  11
ATOM     11  O   UNL     1       6.948   4.146  14.604  0.00  0.00    +0.000 OA
BRANCH  11  12
ATOM     12  C   UNL     1       5.708   4.040  13.888  0.00  0.00    +0.000 C 
BRANCH  12  13
ATOM     13  C   UNL     1       5.867   3.369  12.529  0.00  0.00    +0.000 C 
ATOM     14  F   UNL     1       4.719   3.515  11.812  0.00  0.00    +0.000 F 
ATOM     15  F   UNL     1       6.839   3.997  11.819  0.00  0.00    +0.000 F 
ENDBRANCH  12  13
ENDBRANCH  11  12
ENDBRANCH   9  11
ENDBRANCH   2   5
BRANCH   1  16
ATOM     16  C   UNL     1       4.606   2.819  20.475  0.00  0.00    +0.000 C 
BRANCH  16  17
ATOM     17  C   UNL     1       3.150   2.725  20.081  0.00  0.00    +0.000 A 
ATOM     18  C   UNL     1       2.036   3.215  20.856  0.00  0.00    +0.000 A 
ATOM     19  C   UNL     1       0.820   2.983  20.248  0.00  0.00    +0.000 A 
ATOM     20  S   UNL     1       0.996   2.189  18.749  0.00  0.00    +0.000 S 
ATOM     21  C   UNL     1       2.699   2.151  18.904  0.00  0.00    +0.000 A 
ENDBRANCH  16  17
BRANCH  16  23
ATOM     22  N   UNL     1       5.563   0.299  21.159  0.00  0.00    +0.000 NA
ATOM     23  C   UNL     1       5.129   1.441  20.848  0.00  0.00    +0.000 C 
ENDBRANCH  16  23
ENDBRANCH   1  16
TORSDOF 7
ENDMDL
MODEL 3
REMARK VINA RESULT:      -6.7      4.844      6.664
REMARK  Name = 
REMARK  7 active torsions:
REMARK  status: ('A' for Active; 'I' for Inactive)
REMARK    1  A    between atoms: C_2  and  C_3
REMARK    2  A    between atoms: C_3  and  N_4
REMARK    3  A    between atoms: C_3  and  C_18
REMARK    4  A    between atoms: C_5  and  C_7
REMARK    5  A    between atoms: C_11  and  O_12
REMARK    6  A    between atoms: O_12  and  C_13
REMARK    7  A    between atoms: C_13  and  C_14
REMARK                            x       y       z     vdW  Elec       q    Type
REMARK                         _______ _______ _______ _____ _____    ______ ____
ROOT
ATOM      1  N   UNL     1       1.348   9.067  19.472  0.00  0.00    +0.000 N 
ATOM      2  C   UNL     1       1.953   8.638  18.315  0.00  0.00    +0.000 C 
ATOM      3  O   UNL     1       1.840   9.236  17.251  0.00  0.00    +0.000 OA
ATOM      4  H   UNL     1       1.642   8.696  20.363  0.00  0.00    +0.000 HD
ENDROOT
BRANCH   2   5
ATOM      5  C   UNL     1       2.769   7.397  18.394  0.00  0.00    +0.000 A 
ATOM      6  C   UNL     1       3.823   7.149  17.513  0.00  0.00    +0.000 A 
ATOM      7  C   UNL     1       4.571   6.000  17.706  0.00  0.00    +0.000 A 
ATOM      8  N   UNL     1       4.349   5.121  18.705  0.00  0.00    +0.000 NA
ATOM      9  C   UNL     1       3.328   5.393  19.543  0.00  0.00    +0.000 A 
ATOM     10  C   UNL     1       2.510   6.499  19.429  0.00  0.00    +0.000 A 
BRANCH   9  11
ATOM     11  O   UNL     1       3.086   4.542  20.597  0.00  0.00    +0.000 OA
BRANCH  11  12
ATOM     12  C   UNL     1       2.649   3.237  20.189  0.00  0.00    +0.000 C 
BRANCH  12  13
ATOM     13  C   UNL     1       1.199   2.956  20.566  0.00  0.00    +0.000 C 
ATOM     14  F   UNL     1       1.125   2.640  21.888  0.00  0.00    +0.000 F 
ATOM     15  F   UNL     1       0.457   4.082  20.404  0.00  0.00    +0.000 F 
ENDBRANCH  12  13
ENDBRANCH  11  12
ENDBRANCH   9  11
ENDBRANCH   2   5
BRANCH   1  16
ATOM     16  C   UNL     1       0.558  10.291  19.476  0.00  0.00    +0.000 C 
BRANCH  16  17
ATOM     17  C   UNL     1      -0.041  10.434  20.856  0.00  0.00    +0.000 A 
ATOM     18  C   UNL     1       0.043   9.457  21.915  0.00  0.00    +0.000 A 
ATOM     19  C   UNL     1      -0.605   9.859  23.063  0.00  0.00    +0.000 A 
ATOM     20  S   UNL     1      -1.310  11.402  22.893  0.00  0.00    +0.000 S 
ATOM     21  C   UNL     1      -0.753  11.543  21.283  0.00  0.00    +0.000 A 
ENDBRANCH  16  17
BRANCH  16  23
ATOM     22  N   UNL     1       2.090  12.533  18.877  0.00  0.00    +0.000 NA
ATOM     23  C   UNL     1       1.395  11.516  19.148  0.00  0.00    +0.000 C 
ENDBRANCH  16  23
ENDBRANCH   1  16
TORSDOF 7
ENDMDL
MODEL 4
REMARK VINA RESULT:      -6.7      2.103      2.831
REMARK  Name = 
REMARK  7 active torsions:
REMARK  status: ('A' for Active; 'I' for Inactive)
REMARK    1  A    between atoms: C_2  and  C_3
REMARK    2  A    between atoms: C_3  and  N_4
REMARK    3  A    between atoms: C_3  and  C_18
REMARK    4  A    between atoms: C_5  and  C_7
REMARK    5  A    between atoms: C_11  and  O_12
REMARK    6  A    between atoms: O_12  and  C_13
REMARK    7  A    between atoms: C_13  and  C_14
REMARK                            x       y       z     vdW  Elec       q    Type
REMARK                         _______ _______ _______ _____ _____    ______ ____
ROOT
ATOM      1  N   UNL     1       3.618   4.471  18.107  0.00  0.00    +0.000 N 
ATOM      2  C   UNL     1       4.991   4.423  18.158  0.00  0.00    +0.000 C 
ATOM      3  O   UNL     1       5.607   4.279  19.208  0.00  0.00    +0.000 OA
ATOM      4  H   UNL     1       3.142   4.358  17.225  0.00  0.00    +0.000 HD
ENDROOT
BRANCH   2   5
ATOM      5  C   UNL     1       5.724   4.555  16.872  0.00  0.00    +0.000 A 
ATOM      6  C   UNL     1       7.060   4.955  16.820  0.00  0.00    +0.000 A 
ATOM      7  C   UNL     1       7.681   4.982  15.583  0.00  0.00    +0.000 A 
ATOM      8  N   UNL     1       7.074   4.627  14.432  0.00  0.00    +0.000 NA
ATOM      9  C   UNL     1       5.785   4.238  14.516  0.00  0.00    +0.000 A 
ATOM     10  C   UNL     1       5.068   4.193  15.695  0.00  0.00    +0.000 A 
BRANCH   9  11
ATOM     11  O   UNL     1       5.135   3.834  13.372  0.00  0.00    +0.000 OA
BRANCH  11  12
ATOM     12  C   UNL     1       6.020   3.350  12.352  0.00  0.00    +0.000 C 
BRANCH  12  13
ATOM     13  C   UNL     1       5.298   2.549  11.276  0.00  0.00    +0.000 C 
ATOM     14  F   UNL     1       5.463   1.218  11.510  0.00  0.00    +0.000 F 
ATOM     15  F   UNL     1       3.962   2.783  11.349  0.00  0.00    +0.000 F 
ENDBRANCH  12  13
ENDBRANCH  11  12
ENDBRANCH   9  11
ENDBRANCH   2   5
BRANCH   1  16
ATOM     16  C   UNL     1       2.833   4.320  19.325  0.00  0.00    +0.000 C 
BRANCH  16  17
ATOM     17  C   UNL     1       2.334   5.693  19.711  0.00  0.00    +0.000 A 
ATOM     18  C   UNL     1       2.511   6.900  18.940  0.00  0.00    +0.000 A 
ATOM     19  C   UNL     1       1.952   8.006  19.544  0.00  0.00    +0.000 A 
ATOM     20  S   UNL     1       1.207   7.615  21.028  0.00  0.00    +0.000 S 
ATOM     21  C   UNL     1       1.626   5.965  20.870  0.00  0.00    +0.000 A 
ENDBRANCH  16  17
BRANCH  16  23
ATOM     22  N   UNL     1       0.680   2.595  18.979  0.00  0.00    +0.000 NA
ATOM     23  C   UNL     1       1.656   3.377  19.136  0.00  0.00    +0.000 C 
ENDBRANCH  16  23
ENDBRANCH   1  16
TORSDOF 7
ENDMDL
MODEL 5
REMARK VINA RESULT:      -6.7      5.780      8.707
REMARK  Name = 
REMARK  7 active torsions:
REMARK  status: ('A' for Active; 'I' for Inactive)
REMARK    1  A    between atoms: C_2  and  C_3
REMARK    2  A    between atoms: C_3  and  N_4
REMARK    3  A    between atoms: C_3  and  C_18
REMARK    4  A    between atoms: C_5  and  C_7
REMARK    5  A    between atoms: C_11  and  O_12
REMARK    6  A    between atoms: O_12  and  C_13
REMARK    7  A    between atoms: C_13  and  C_14
REMARK                            x       y       z     vdW  Elec       q    Type
REMARK                         _______ _______ _______ _____ _____    ______ ____
ROOT
ATOM      1  N   UNL     1       4.301   6.205  18.266  0.00  0.00    +0.000 N 
ATOM      2  C   UNL     1       3.261   6.291  19.161  0.00  0.00    +0.000 C 
ATOM      3  O   UNL     1       3.016   5.406  19.973  0.00  0.00    +0.000 OA
ATOM      4  H   UNL     1       4.616   7.030  17.779  0.00  0.00    +0.000 HD
ENDROOT
BRANCH   2   5
ATOM      5  C   UNL     1       2.423   7.518  19.114  0.00  0.00    +0.000 A 
ATOM      6  C   UNL     1       2.220   8.229  17.930  0.00  0.00    +0.000 A 
ATOM      7  C   UNL     1       1.368   9.319  17.968  0.00  0.00    +0.000 A 
ATOM      8  N   UNL     1       0.712   9.719  19.077  0.00  0.00    +0.000 NA
ATOM      9  C   UNL     1       0.923   9.007  20.203  0.00  0.00    +0.000 A 
ATOM     10  C   UNL     1       1.766   7.916  20.278  0.00  0.00    +0.000 A 
BRANCH   9  11
ATOM     11  O   UNL     1       0.249   9.358  21.350  0.00  0.00    +0.000 OA
BRANCH  11  12
ATOM     12  C   UNL     1      -0.034  10.762  21.440  0.00  0.00    +0.000 C 
BRANCH  12  13
ATOM     13  C   UNL     1      -1.036  11.093  22.539  0.00  0.00    +0.000 C 
ATOM     14  F   UNL     1      -0.915  10.191  23.552  0.00  0.00    +0.000 F 
ATOM     15  F   UNL     1      -0.743  12.306  23.076  0.00  0.00    +0.000 F 
ENDBRANCH  12  13
ENDBRANCH  11  12
ENDBRANCH   9  11
ENDBRANCH   2   5
BRANCH   1  16
ATOM     16  C   UNL     1       5.182   5.045  18.274  0.00  0.00    +0.000 C 
BRANCH  16  17
ATOM     17  C   UNL     1       5.680   4.850  16.861  0.00  0.00    +0.000 A 
ATOM     18  C   UNL     1       6.923   5.356  16.329  0.00  0.00    +0.000 A 
ATOM     19  C   UNL     1       7.109   5.026  15.004  0.00  0.00    +0.000 A 
ATOM     20  S   UNL     1       5.814   4.106  14.385  0.00  0.00    +0.000 S 
ATOM     21  C   UNL     1       4.995   4.143  15.886  0.00  0.00    +0.000 A 
ENDBRANCH  16  17
BRANCH  16  23
ATOM     22  N   UNL     1       7.339   5.376  19.997  0.00  0.00    +0.000 NA
ATOM     23  C   UNL     1       6.361   5.226  19.215  0.00  0.00    +0.000 C 
ENDBRANCH  16  23
ENDBRANCH   1  16
TORSDOF 7
ENDMDL
MODEL 6
REMARK VINA RESULT:      -6.6      1.338      1.338
REMARK  Name = 
REMARK  7 active torsions:
REMARK  status: ('A' for Active; 'I' for Inactive)
REMARK    1  A    between atoms: C_2  and  C_3
REMARK    2  A    between atoms: C_3  and  N_4
REMARK    3  A    between atoms: C_3  and  C_18
REMARK    4  A    between atoms: C_5  and  C_7
REMARK    5  A    between atoms: C_11  and  O_12
REMARK    6  A    between atoms: O_12  and  C_13
REMARK    7  A    between atoms: C_13  and  C_14
REMARK                            x       y       z     vdW  Elec       q    Type
REMARK                         _______ _______ _______ _____ _____    ______ ____
ROOT
ATOM      1  N   UNL     1       3.373   5.827  18.609  0.00  0.00    +0.000 N 
ATOM      2  C   UNL     1       3.741   6.722  17.633  0.00  0.00    +0.000 C 
ATOM      3  O   UNL     1       2.974   7.571  17.195  0.00  0.00    +0.000 OA
ATOM      4  H   UNL     1       4.079   5.304  19.106  0.00  0.00    +0.000 HD
ENDROOT
BRANCH   2   5
ATOM      5  C   UNL     1       5.130   6.626  17.111  0.00  0.00    +0.000 A 
ATOM      6  C   UNL     1       6.230   7.054  17.856  0.00  0.00    +0.000 A 
ATOM      7  C   UNL     1       7.491   6.862  17.318  0.00  0.00    +0.000 A 
ATOM      8  N   UNL     1       7.715   6.271  16.127  0.00  0.00    +0.000 NA
ATOM      9  C   UNL     1       6.632   5.862  15.434  0.00  0.00    +0.000 A 
ATOM     10  C   UNL     1       5.332   6.022  15.871  0.00  0.00    +0.000 A 
BRANCH   9  11
ATOM     11  O   UNL     1       6.814   5.223  14.229  0.00  0.00    +0.000 OA
BRANCH  11  12
ATOM     12  C   UNL     1       5.932   4.107  14.035  0.00  0.00    +0.000 C 
BRANCH  12  13
ATOM     13  C   UNL     1       6.115   3.440  12.678  0.00  0.00    +0.000 C 
ATOM     14  F   UNL     1       4.930   3.435  12.008  0.00  0.00    +0.000 F 
ATOM     15  F   UNL     1       6.973   4.171  11.920  0.00  0.00    +0.000 F 
ENDBRANCH  12  13
ENDBRANCH  11  12
ENDBRANCH   9  11
ENDBRANCH   2   5
BRANCH   1  16
ATOM     16  C   UNL     1       2.037   5.880  19.188  0.00  0.00    +0.000 C 
BRANCH  16  17
ATOM     17  C   UNL     1       1.781   4.547  19.850  0.00  0.00    +0.000 A 
ATOM     18  C   UNL     1       1.197   3.390  19.213  0.00  0.00    +0.000 A 
ATOM     19  C   UNL     1       1.079   2.315  20.067  0.00  0.00    +0.000 A 
ATOM     20  S   UNL     1       1.668   2.669  21.628  0.00  0.00    +0.000 S 
ATOM     21  C   UNL     1       2.086   4.264  21.171  0.00  0.00    +0.000 A 
ENDBRANCH  16  17
BRANCH  16  23
ATOM     22  N   UNL     1       1.783   7.925  21.055  0.00  0.00    +0.000 NA
ATOM     23  C   UNL     1       1.898   6.998  20.208  0.00  0.00    +0.000 C 
ENDBRANCH  16  23
ENDBRANCH   1  16
TORSDOF 7
ENDMDL
MODEL 7
REMARK VINA RESULT:      -6.6      3.197      3.904
REMARK  Name = 
REMARK  7 active torsions:
REMARK  status: ('A' for Active; 'I' for Inactive)
REMARK    1  A    between atoms: C_2  and  C_3
REMARK    2  A    between atoms: C_3  and  N_4
REMARK    3  A    between atoms: C_3  and  C_18
REMARK    4  A    between atoms: C_5  and  C_7
REMARK    5  A    between atoms: C_11  and  O_12
REMARK    6  A    between atoms: O_12  and  C_13
REMARK    7  A    between atoms: C_13  and  C_14
REMARK                            x       y       z     vdW  Elec       q    Type
REMARK                         _______ _______ _______ _____ _____    ______ ____
ROOT
ATOM      1  N   UNL     1       3.401   5.832  18.204  0.00  0.00    +0.000 N 
ATOM      2  C   UNL     1       3.638   4.852  17.270  0.00  0.00    +0.000 C 
ATOM      3  O   UNL     1       2.812   3.989  16.996  0.00  0.00    +0.000 OA
ATOM      4  H   UNL     1       3.993   6.649  18.239  0.00  0.00    +0.000 HD
ENDROOT
BRANCH   2   5
ATOM      5  C   UNL     1       4.958   4.869  16.586  0.00  0.00    +0.000 A 
ATOM      6  C   UNL     1       5.281   3.956  15.580  0.00  0.00    +0.000 A 
ATOM      7  C   UNL     1       6.507   4.092  14.951  0.00  0.00    +0.000 A 
ATOM      8  N   UNL     1       7.395   5.064  15.244  0.00  0.00    +0.000 NA
ATOM      9  C   UNL     1       7.052   5.934  16.216  0.00  0.00    +0.000 A 
ATOM     10  C   UNL     1       5.863   5.876  16.917  0.00  0.00    +0.000 A 
BRANCH   9  11
ATOM     11  O   UNL     1       7.912   6.962  16.526  0.00  0.00    +0.000 OA
BRANCH  11  12
ATOM     12  C   UNL     1       7.513   7.713  17.682  0.00  0.00    +0.000 C 
BRANCH  12  13
ATOM     13  C   UNL     1       8.356   8.964  17.892  0.00  0.00    +0.000 C 
ATOM     14  F   UNL     1       7.560  10.067  17.828  0.00  0.00    +0.000 F 
ATOM     15  F   UNL     1       8.887   8.954  19.143  0.00  0.00    +0.000 F 
ENDBRANCH  12  13
ENDBRANCH  11  12
ENDBRANCH   9  11
ENDBRANCH   2   5
BRANCH   1  16
ATOM     16  C   UNL     1       2.119   5.895  18.892  0.00  0.00    +0.000 C 
BRANCH  16  17
ATOM     17  C   UNL     1       2.020   4.669  19.770  0.00  0.00    +0.000 A 
ATOM     18  C   UNL     1       0.927   3.727  19.778  0.00  0.00    +0.000 A 
ATOM     19  C   UNL     1       1.109   2.708  20.689  0.00  0.00    +0.000 A 
ATOM     20  S   UNL     1       2.582   2.861  21.535  0.00  0.00    +0.000 S 
ATOM     21  C   UNL     1       2.987   4.290  20.687  0.00  0.00    +0.000 A 
ENDBRANCH  16  17
BRANCH  16  23
ATOM     22  N   UNL     1       1.871   8.189  20.444  0.00  0.00    +0.000 NA
ATOM     23  C   UNL     1       1.984   7.149  19.740  0.00  0.00    +0.000 C 
ENDBRANCH  16  23
ENDBRANCH   1  16
TORSDOF 7
ENDMDL
MODEL 8
REMARK VINA RESULT:      -6.6      4.804      6.820
REMARK  Name = 
REMARK  7 active torsions:
REMARK  status: ('A' for Active; 'I' for Inactive)
REMARK    1  A    between atoms: C_2  and  C_3
REMARK    2  A    between atoms: C_3  and  N_4
REMARK    3  A    between atoms: C_3  and  C_18
REMARK    4  A    between atoms: C_5  and  C_7
REMARK    5  A    between atoms: C_11  and  O_12
REMARK    6  A    between atoms: O_12  and  C_13
REMARK    7  A    between atoms: C_13  and  C_14
REMARK                            x       y       z     vdW  Elec       q    Type
REMARK                         _______ _______ _______ _____ _____    ______ ____
ROOT
ATOM      1  N   UNL     1       1.007   9.496  19.250  0.00  0.00    +0.000 N 
ATOM      2  C   UNL     1       1.976   9.186  18.326  0.00  0.00    +0.000 C 
ATOM      3  O   UNL     1       2.362   9.986  17.482  0.00  0.00    +0.000 OA
ATOM      4  H   UNL     1       0.879   8.911  20.062  0.00  0.00    +0.000 HD
ENDROOT
BRANCH   2   5
ATOM      5  C   UNL     1       2.557   7.818  18.382  0.00  0.00    +0.000 A 
ATOM      6  C   UNL     1       3.508   7.381  17.459  0.00  0.00    +0.000 A 
ATOM      7  C   UNL     1       4.044   6.116  17.631  0.00  0.00    +0.000 A 
ATOM      8  N   UNL     1       3.712   5.294  18.649  0.00  0.00    +0.000 NA
ATOM      9  C   UNL     1       2.796   5.748  19.528  0.00  0.00    +0.000 A 
ATOM     10  C   UNL     1       2.187   6.984  19.437  0.00  0.00    +0.000 A 
BRANCH   9  11
ATOM     11  O   UNL     1       2.452   4.958  20.600  0.00  0.00    +0.000 OA
BRANCH  11  12
ATOM     12  C   UNL     1       1.108   4.457  20.533  0.00  0.00    +0.000 C 
BRANCH  12  13
ATOM     13  C   UNL     1       1.015   3.112  19.825  0.00  0.00    +0.000 C 
ATOM     14  F   UNL     1       0.880   3.310  18.485  0.00  0.00    +0.000 F 
ATOM     15  F   UNL     1       2.175   2.425  19.990  0.00  0.00    +0.000 F 
ENDBRANCH  12  13
ENDBRANCH  11  12
ENDBRANCH   9  11
ENDBRANCH   2   5
BRANCH   1  16
ATOM     16  C   UNL     1       0.414  10.826  19.273  0.00  0.00    +0.000 C 
BRANCH  16  17
ATOM     17  C   UNL     1      -0.936  10.728  18.603  0.00  0.00    +0.000 A 
ATOM     18  C   UNL     1      -1.287   9.809  17.546  0.00  0.00    +0.000 A 
ATOM     19  C   UNL     1      -2.591   9.952  17.126  0.00  0.00    +0.000 A 
ATOM     20  S   UNL     1      -3.411  11.174  17.988  0.00  0.00    +0.000 S 
ATOM     21  C   UNL     1      -2.025  11.518  18.930  0.00  0.00    +0.000 A 
ENDBRANCH  16  17
BRANCH  16  23
ATOM     22  N   UNL     1       0.115  11.799  21.860  0.00  0.00    +0.000 NA
ATOM     23  C   UNL     1       0.251  11.358  20.687  0.00  0.00    +0.000 C 
ENDBRANCH  16  23
ENDBRANCH   1  16
TORSDOF 7
ENDMDL
MODEL 9
REMARK VINA RESULT:      -6.6      0.927      1.078
REMARK  Name = 
REMARK  7 active torsions:
REMARK  status: ('A' for Active; 'I' for Inactive)
REMARK    1  A    between atoms: C_2  and  C_3
REMARK    2  A    between atoms: C_3  and  N_4
REMARK    3  A    between atoms: C_3  and  C_18
REMARK    4  A    between atoms: C_5  and  C_7
REMARK    5  A    between atoms: C_11  and  O_12
REMARK    6  A    between atoms: O_12  and  C_13
REMARK    7  A    between atoms: C_13  and  C_14
REMARK                            x       y       z     vdW  Elec       q    Type
REMARK                         _______ _______ _______ _____ _____    ______ ____
ROOT
ATOM      1  N   UNL     1       3.209   6.196  18.776  0.00  0.00    +0.000 N 
ATOM      2  C   UNL     1       3.484   5.361  17.719  0.00  0.00    +0.000 C 
ATOM      3  O   UNL     1       2.681   4.534  17.305  0.00  0.00    +0.000 OA
ATOM      4  H   UNL     1       3.784   7.008  18.941  0.00  0.00    +0.000 HD
ENDROOT
BRANCH   2   5
ATOM      5  C   UNL     1       4.819   5.496  17.077  0.00  0.00    +0.000 A 
ATOM      6  C   UNL     1       5.752   6.442  17.504  0.00  0.00    +0.000 A 
ATOM      7  C   UNL     1       6.994   6.448  16.892  0.00  0.00    +0.000 A 
ATOM      8  N   UNL     1       7.356   5.582  15.923  0.00  0.00    +0.000 NA
ATOM      9  C   UNL     1       6.435   4.676  15.538  0.00  0.00    +0.000 A 
ATOM     10  C   UNL     1       5.163   4.596  16.068  0.00  0.00    +0.000 A 
BRANCH   9  11
ATOM     11  O   UNL     1       6.771   3.751  14.576  0.00  0.00    +0.000 OA
BRANCH  11  12
ATOM     12  C   UNL     1       5.890   3.758  13.443  0.00  0.00    +0.000 C 
BRANCH  12  13
ATOM     13  C   UNL     1       6.626   3.954  12.124  0.00  0.00    +0.000 C 
ATOM     14  F   UNL     1       7.608   4.883  12.284  0.00  0.00    +0.000 F 
ATOM     15  F   UNL     1       7.252   2.801  11.773  0.00  0.00    +0.000 F 
ENDBRANCH  12  13
ENDBRANCH  11  12
ENDBRANCH   9  11
ENDBRANCH   2   5
BRANCH   1  16
ATOM     16  C   UNL     1       1.911   6.140  19.435  0.00  0.00    +0.000 C 
BRANCH  16  17
ATOM     17  C   UNL     1       1.832   4.817  20.161  0.00  0.00    +0.000 A 
ATOM     18  C   UNL     1       0.787   3.834  20.006  0.00  0.00    +0.000 A 
ATOM     19  C   UNL     1       0.976   2.725  20.802  0.00  0.00    +0.000 A 
ATOM     20  S   UNL     1       2.400   2.841  21.733  0.00  0.00    +0.000 S 
ATOM     21  C   UNL     1       2.773   4.375  21.076  0.00  0.00    +0.000 A 
ENDBRANCH  16  17
BRANCH  16  23
ATOM     22  N   UNL     1       1.558   8.227  21.239  0.00  0.00    +0.000 NA
ATOM     23  C   UNL     1       1.718   7.281  20.421  0.00  0.00    +0.000 C 
ENDBRANCH  16  23
ENDBRANCH   1  16
TORSDOF 7
ENDMDL
