MODEL 1
REMARK VINA RESULT:      -8.3      0.000      0.000
REMARK  Name = 
REMARK  6 active torsions:
REMARK  status: ('A' for Active; 'I' for Inactive)
REMARK    1  A    between atoms: C_1  and  C_2
REMARK    2  A    between atoms: C_7  and  C_8
REMARK    3  A    between atoms: C_8  and  N_9
REMARK    4  A    between atoms: C_15  and  C_16
REMARK    5  A    between atoms: C_16  and  N_17
REMARK    6  A    between atoms: C_18  and  C_20
REMARK                            x       y       z     vdW  Elec       q    Type
REMARK                         _______ _______ _______ _____ _____    ______ ____
ROOT
ATOM      1  N   UNL     1       3.541   6.467  18.321  0.00  0.00    +0.000 NA
ATOM      2  C   UNL     1       4.340   5.937  19.390  0.00  0.00    +0.000 C 
ATOM      3  C   UNL     1       5.473   5.312  18.616  0.00  0.00    +0.000 C 
ATOM      4  C   UNL     1       6.634   5.066  19.536  0.00  0.00    +0.000 C 
ATOM      5  O   UNL     1       7.628   4.662  18.630  0.00  0.00    +0.000 OA
ATOM      6  C   UNL     1       7.182   5.127  17.347  0.00  0.00    +0.000 C 
ATOM      7  C   UNL     1       5.994   6.253  17.438  0.00  0.00    +0.000 C 
ATOM      8  C   UNL     1       4.383   6.376  17.123  0.00  0.00    +0.000 C 
ENDROOT
BRANCH   1   9
ATOM      9  C   UNL     1       2.231   5.819  18.138  0.00  0.00    +0.000 C 
BRANCH   9  16
ATOM     10  C   UNL     1       2.810   2.999  17.115  0.00  0.00    +0.000 C 
ATOM     11  C   UNL     1       2.316   3.266  18.510  0.00  0.00    +0.000 A 
ATOM     12  C   UNL     1       2.073   2.164  19.353  0.00  0.00    +0.000 A 
ATOM     13  C   UNL     1       1.572   2.339  20.642  0.00  0.00    +0.000 A 
ATOM     14  C   UNL     1       1.295   3.618  21.107  0.00  0.00    +0.000 A 
ATOM     15  C   UNL     1       1.531   4.718  20.286  0.00  0.00    +0.000 A 
ATOM     16  C   UNL     1       2.055   4.568  18.985  0.00  0.00    +0.000 A 
ENDBRANCH   9  16
ENDBRANCH   1   9
BRANCH   7  17
ATOM     17  C   UNL     1       6.213   6.549  15.855  0.00  0.00    +0.000 C 
BRANCH  17  18
ATOM     18  N   UNL     1       5.887   5.450  14.957  0.00  0.00    +0.000 N 
ATOM     19  C   UNL     1       6.784   4.955  14.027  0.00  0.00    +0.000 C 
ATOM     20  O   UNL     1       7.864   5.501  13.825  0.00  0.00    +0.000 OA
ATOM     21  H   UNL     1       4.990   4.991  15.054  0.00  0.00    +0.000 HD
BRANCH  19  22
ATOM     22  C   UNL     1       6.272   3.656  13.356  0.00  0.00    +0.000 C 
ATOM     23  C   UNL     1       4.884   3.673  12.669  0.00  0.00    +0.000 C 
ATOM     24  C   UNL     1       5.479   2.736  11.599  0.00  0.00    +0.000 C 
ATOM     25  C   UNL     1       6.853   3.332  11.950  0.00  0.00    +0.000 C 
ENDBRANCH  19  22
ENDBRANCH  17  18
ENDBRANCH   7  17
TORSDOF 5
ENDMDL
MODEL 2
REMARK VINA RESULT:      -8.1      3.533      7.731
REMARK  Name = 
REMARK  6 active torsions:
REMARK  status: ('A' for Active; 'I' for Inactive)
REMARK    1  A    between atoms: C_1  and  C_2
REMARK    2  A    between atoms: C_7  and  C_8
REMARK    3  A    between atoms: C_8  and  N_9
REMARK    4  A    between atoms: C_15  and  C_16
REMARK    5  A    between atoms: C_16  and  N_17
REMARK    6  A    between atoms: C_18  and  C_20
REMARK                            x       y       z     vdW  Elec       q    Type
REMARK                         _______ _______ _______ _____ _____    ______ ____
ROOT
ATOM      1  N   UNL     1       3.443   4.196  17.374  0.00  0.00    +0.000 NA
ATOM      2  C   UNL     1       2.796   3.089  18.020  0.00  0.00    +0.000 C 
ATOM      3  C   UNL     1       2.675   3.612  19.430  0.00  0.00    +0.000 C 
ATOM      4  C   UNL     1       1.660   2.800  20.180  0.00  0.00    +0.000 C 
ATOM      5  O   UNL     1       1.553   3.525  21.378  0.00  0.00    +0.000 OA
ATOM      6  C   UNL     1       2.074   4.829  21.079  0.00  0.00    +0.000 C 
ATOM      7  C   UNL     1       2.191   5.131  19.472  0.00  0.00    +0.000 C 
ATOM      8  C   UNL     1       3.365   5.306  18.331  0.00  0.00    +0.000 C 
ENDROOT
BRANCH   1   9
ATOM      9  C   UNL     1       4.821   3.938  16.922  0.00  0.00    +0.000 C 
BRANCH   9  16
ATOM     10  C   UNL     1       5.265   6.562  15.419  0.00  0.00    +0.000 C 
ATOM     11  C   UNL     1       6.020   6.211  16.671  0.00  0.00    +0.000 A 
ATOM     12  C   UNL     1       6.997   7.114  17.134  0.00  0.00    +0.000 A 
ATOM     13  C   UNL     1       7.763   6.829  18.264  0.00  0.00    +0.000 A 
ATOM     14  C   UNL     1       7.574   5.633  18.943  0.00  0.00    +0.000 A 
ATOM     15  C   UNL     1       6.611   4.730  18.498  0.00  0.00    +0.000 A 
ATOM     16  C   UNL     1       5.811   5.004  17.369  0.00  0.00    +0.000 A 
ENDBRANCH   9  16
ENDBRANCH   1   9
BRANCH   7  17
ATOM     17  C   UNL     1       2.463   6.694  19.830  0.00  0.00    +0.000 C 
BRANCH  17  18
ATOM     18  N   UNL     1       1.548   7.288  20.792  0.00  0.00    +0.000 N 
ATOM     19  C   UNL     1       1.095   8.591  20.685  0.00  0.00    +0.000 C 
ATOM     20  O   UNL     1       1.539   9.356  19.836  0.00  0.00    +0.000 OA
ATOM     21  H   UNL     1       1.183   6.711  21.539  0.00  0.00    +0.000 HD
BRANCH  19  22
ATOM     22  C   UNL     1      -0.030   8.904  21.703  0.00  0.00    +0.000 C 
ATOM     23  C   UNL     1       0.367   9.354  23.132  0.00  0.00    +0.000 C 
ATOM     24  C   UNL     1      -0.851  10.299  23.098  0.00  0.00    +0.000 C 
ATOM     25  C   UNL     1      -0.718  10.293  21.566  0.00  0.00    +0.000 C 
ENDBRANCH  19  22
ENDBRANCH  17  18
ENDBRANCH   7  17
TORSDOF 5
ENDMDL
MODEL 3
REMARK VINA RESULT:      -8.1      1.111      1.539
REMARK  Name = 
REMARK  6 active torsions:
REMARK  status: ('A' for Active; 'I' for Inactive)
REMARK    1  A    between atoms: C_1  and  C_2
REMARK    2  A    between atoms: C_7  and  C_8
REMARK    3  A    between atoms: C_8  and  N_9
REMARK    4  A    between atoms: C_15  and  C_16
REMARK    5  A    between atoms: C_16  and  N_17
REMARK    6  A    between atoms: C_18  and  C_20
REMARK                            x       y       z     vdW  Elec       q    Type
REMARK                         _______ _______ _______ _____ _____    ______ ____
ROOT
ATOM      1  N   UNL     1       3.990   4.804  17.019  0.00  0.00    +0.000 NA
ATOM      2  C   UNL     1       4.306   5.358  18.305  0.00  0.00    +0.000 C 
ATOM      3  C   UNL     1       5.723   4.873  18.484  0.00  0.00    +0.000 C 
ATOM      4  C   UNL     1       6.395   5.676  19.560  0.00  0.00    +0.000 C 
ATOM      5  O   UNL     1       7.720   5.220  19.462  0.00  0.00    +0.000 OA
ATOM      6  C   UNL     1       7.820   4.623  18.161  0.00  0.00    +0.000 C 
ATOM      7  C   UNL     1       6.591   5.039  17.157  0.00  0.00    +0.000 C 
ATOM      8  C   UNL     1       5.270   4.340  16.469  0.00  0.00    +0.000 C 
ENDROOT
BRANCH   1   9
ATOM      9  C   UNL     1       2.965   3.746  17.028  0.00  0.00    +0.000 C 
BRANCH   9  16
ATOM     10  C   UNL     1       3.771   1.284  18.649  0.00  0.00    +0.000 C 
ATOM     11  C   UNL     1       2.791   2.303  19.161  0.00  0.00    +0.000 A 
ATOM     12  C   UNL     1       2.197   2.081  20.419  0.00  0.00    +0.000 A 
ATOM     13  C   UNL     1       1.248   2.963  20.933  0.00  0.00    +0.000 A 
ATOM     14  C   UNL     1       0.869   4.076  20.195  0.00  0.00    +0.000 A 
ATOM     15  C   UNL     1       1.449   4.311  18.950  0.00  0.00    +0.000 A 
ATOM     16  C   UNL     1       2.424   3.443  18.417  0.00  0.00    +0.000 A 
ENDBRANCH   9  16
ENDBRANCH   1   9
BRANCH   7  17
ATOM     17  C   UNL     1       7.435   4.391  15.928  0.00  0.00    +0.000 C 
BRANCH  17  18
ATOM     18  N   UNL     1       6.693   4.188  14.692  0.00  0.00    +0.000 N 
ATOM     19  C   UNL     1       7.103   4.717  13.481  0.00  0.00    +0.000 C 
ATOM     20  O   UNL     1       8.051   5.490  13.407  0.00  0.00    +0.000 OA
ATOM     21  H   UNL     1       5.876   3.592  14.706  0.00  0.00    +0.000 HD
BRANCH  19  22
ATOM     22  C   UNL     1       6.265   4.176  12.295  0.00  0.00    +0.000 C 
ATOM     23  C   UNL     1       6.628   2.792  11.700  0.00  0.00    +0.000 C 
ATOM     24  C   UNL     1       5.117   2.560  11.498  0.00  0.00    +0.000 C 
ATOM     25  C   UNL     1       4.887   3.549  12.653  0.00  0.00    +0.000 C 
ENDBRANCH  19  22
ENDBRANCH  17  18
ENDBRANCH   7  17
TORSDOF 5
ENDMDL
MODEL 4
REMARK VINA RESULT:      -8.1      3.098      4.928
REMARK  Name = 
REMARK  6 active torsions:
REMARK  status: ('A' for Active; 'I' for Inactive)
REMARK    1  A    between atoms: C_1  and  C_2
REMARK    2  A    between atoms: C_7  and  C_8
REMARK    3  A    between atoms: C_8  and  N_9
REMARK    4  A    between atoms: C_15  and  C_16
REMARK    5  A    between atoms: C_16  and  N_17
REMARK    6  A    between atoms: C_18  and  C_20
REMARK                            x       y       z     vdW  Elec       q    Type
REMARK                         _______ _______ _______ _____ _____    ______ ____
ROOT
ATOM      1  N   UNL     1       2.492   6.085  20.166  0.00  0.00    +0.000 NA
ATOM      2  C   UNL     1       1.379   5.185  20.275  0.00  0.00    +0.000 C 
ATOM      3  C   UNL     1       1.883   4.010  19.473  0.00  0.00    +0.000 C 
ATOM      4  C   UNL     1       1.065   2.794  19.798  0.00  0.00    +0.000 C 
ATOM      5  O   UNL     1       1.774   1.791  19.118  0.00  0.00    +0.000 OA
ATOM      6  C   UNL     1       3.079   2.341  18.886  0.00  0.00    +0.000 C 
ATOM      7  C   UNL     1       3.403   3.660  19.805  0.00  0.00    +0.000 C 
ATOM      8  C   UNL     1       3.589   5.284  19.610  0.00  0.00    +0.000 C 
ENDROOT
BRANCH   1   9
ATOM      9  C   UNL     1       2.235   7.306  19.385  0.00  0.00    +0.000 C 
BRANCH   9  16
ATOM     10  C   UNL     1       0.875   9.707  18.070  0.00  0.00    +0.000 C 
ATOM     11  C   UNL     1       0.859   9.484  19.557  0.00  0.00    +0.000 A 
ATOM     12  C   UNL     1       0.227  10.448  20.367  0.00  0.00    +0.000 A 
ATOM     13  C   UNL     1       0.214  10.325  21.756  0.00  0.00    +0.000 A 
ATOM     14  C   UNL     1       0.841   9.242  22.359  0.00  0.00    +0.000 A 
ATOM     15  C   UNL     1       1.469   8.280  21.571  0.00  0.00    +0.000 A 
ATOM     16  C   UNL     1       1.480   8.373  20.164  0.00  0.00    +0.000 A 
ENDBRANCH   9  16
ENDBRANCH   1   9
BRANCH   7  17
ATOM     17  C   UNL     1       4.959   3.541  19.350  0.00  0.00    +0.000 C 
BRANCH  17  18
ATOM     18  N   UNL     1       5.277   4.089  18.039  0.00  0.00    +0.000 N 
ATOM     19  C   UNL     1       6.558   4.466  17.679  0.00  0.00    +0.000 C 
ATOM     20  O   UNL     1       7.477   4.473  18.491  0.00  0.00    +0.000 OA
ATOM     21  H   UNL     1       4.544   4.146  17.344  0.00  0.00    +0.000 HD
BRANCH  19  22
ATOM     22  C   UNL     1       6.664   4.809  16.171  0.00  0.00    +0.000 C 
ATOM     23  C   UNL     1       6.291   3.719  15.135  0.00  0.00    +0.000 C 
ATOM     24  C   UNL     1       5.695   4.846  14.268  0.00  0.00    +0.000 C 
ATOM     25  C   UNL     1       5.493   5.638  15.570  0.00  0.00    +0.000 C 
ENDBRANCH  19  22
ENDBRANCH  17  18
ENDBRANCH   7  17
TORSDOF 5
ENDMDL
MODEL 5
REMARK VINA RESULT:      -8.1      0.487      1.495
REMARK  Name = 
REMARK  6 active torsions:
REMARK  status: ('A' for Active; 'I' for Inactive)
REMARK    1  A    between atoms: C_1  and  C_2
REMARK    2  A    between atoms: C_7  and  C_8
REMARK    3  A    between atoms: C_8  and  N_9
REMARK    4  A    between atoms: C_15  and  C_16
REMARK    5  A    between atoms: C_16  and  N_17
REMARK    6  A    between atoms: C_18  and  C_20
REMARK                            x       y       z     vdW  Elec       q    Type
REMARK                         _______ _______ _______ _____ _____    ______ ____
ROOT
ATOM      1  N   UNL     1       3.488   6.555  18.246  0.00  0.00    +0.000 NA
ATOM      2  C   UNL     1       4.223   6.015  19.356  0.00  0.00    +0.000 C 
ATOM      3  C   UNL     1       5.385   5.370  18.641  0.00  0.00    +0.000 C 
ATOM      4  C   UNL     1       6.492   5.108  19.621  0.00  0.00    +0.000 C 
ATOM      5  O   UNL     1       7.525   4.688  18.768  0.00  0.00    +0.000 OA
ATOM      6  C   UNL     1       7.153   5.157  17.463  0.00  0.00    +0.000 C 
ATOM      7  C   UNL     1       5.979   6.302  17.492  0.00  0.00    +0.000 C 
ATOM      8  C   UNL     1       4.390   6.449  17.093  0.00  0.00    +0.000 C 
ENDROOT
BRANCH   1   9
ATOM      9  C   UNL     1       2.180   5.927  17.997  0.00  0.00    +0.000 C 
BRANCH   9  16
ATOM     10  C   UNL     1       1.257   4.796  20.682  0.00  0.00    +0.000 C 
ATOM     11  C   UNL     1       1.735   3.919  19.558  0.00  0.00    +0.000 A 
ATOM     12  C   UNL     1       1.797   2.529  19.778  0.00  0.00    +0.000 A 
ATOM     13  C   UNL     1       2.273   1.664  18.794  0.00  0.00    +0.000 A 
ATOM     14  C   UNL     1       2.705   2.174  17.577  0.00  0.00    +0.000 A 
ATOM     15  C   UNL     1       2.649   3.547  17.343  0.00  0.00    +0.000 A 
ATOM     16  C   UNL     1       2.155   4.440  18.316  0.00  0.00    +0.000 A 
ENDBRANCH   9  16
ENDBRANCH   1   9
BRANCH   7  17
ATOM     17  C   UNL     1       6.285   6.592  15.921  0.00  0.00    +0.000 C 
BRANCH  17  18
ATOM     18  N   UNL     1       5.987   5.497  15.009  0.00  0.00    +0.000 N 
ATOM     19  C   UNL     1       6.909   5.017  14.095  0.00  0.00    +0.000 C 
ATOM     20  O   UNL     1       7.988   5.572  13.920  0.00  0.00    +0.000 OA
ATOM     21  H   UNL     1       5.092   5.030  15.083  0.00  0.00    +0.000 HD
BRANCH  19  22
ATOM     22  C   UNL     1       6.422   3.718  13.404  0.00  0.00    +0.000 C 
ATOM     23  C   UNL     1       4.977   3.671  12.845  0.00  0.00    +0.000 C 
ATOM     24  C   UNL     1       5.530   2.831  11.678  0.00  0.00    +0.000 C 
ATOM     25  C   UNL     1       6.889   3.503  11.935  0.00  0.00    +0.000 C 
ENDBRANCH  19  22
ENDBRANCH  17  18
ENDBRANCH   7  17
TORSDOF 5
ENDMDL
MODEL 6
REMARK VINA RESULT:      -7.9      3.479      7.269
REMARK  Name = 
REMARK  6 active torsions:
REMARK  status: ('A' for Active; 'I' for Inactive)
REMARK    1  A    between atoms: C_1  and  C_2
REMARK    2  A    between atoms: C_7  and  C_8
REMARK    3  A    between atoms: C_8  and  N_9
REMARK    4  A    between atoms: C_15  and  C_16
REMARK    5  A    between atoms: C_16  and  N_17
REMARK    6  A    between atoms: C_18  and  C_20
REMARK                            x       y       z     vdW  Elec       q    Type
REMARK                         _______ _______ _______ _____ _____    ______ ____
ROOT
ATOM      1  N   UNL     1       3.631   4.428  17.367  0.00  0.00    +0.000 NA
ATOM      2  C   UNL     1       2.727   3.317  17.460  0.00  0.00    +0.000 C 
ATOM      3  C   UNL     1       2.291   3.422  18.900  0.00  0.00    +0.000 C 
ATOM      4  C   UNL     1       1.036   2.624  19.104  0.00  0.00    +0.000 C 
ATOM      5  O   UNL     1       0.690   2.978  20.418  0.00  0.00    +0.000 OA
ATOM      6  C   UNL     1       1.402   4.197  20.681  0.00  0.00    +0.000 C 
ATOM      7  C   UNL     1       1.970   4.925  19.326  0.00  0.00    +0.000 C 
ATOM      8  C   UNL     1       3.415   5.209  18.592  0.00  0.00    +0.000 C 
ENDROOT
BRANCH   1   9
ATOM      9  C   UNL     1       5.045   4.069  17.170  0.00  0.00    +0.000 C 
BRANCH   9  16
ATOM     10  C   UNL     1       5.240   6.688  15.607  0.00  0.00    +0.000 C 
ATOM     11  C   UNL     1       6.102   6.397  16.804  0.00  0.00    +0.000 A 
ATOM     12  C   UNL     1       7.060   7.357  17.184  0.00  0.00    +0.000 A 
ATOM     13  C   UNL     1       7.921   7.130  18.257  0.00  0.00    +0.000 A 
ATOM     14  C   UNL     1       7.845   5.936  18.963  0.00  0.00    +0.000 A 
ATOM     15  C   UNL     1       6.901   4.978  18.601  0.00  0.00    +0.000 A 
ATOM     16  C   UNL     1       6.008   5.191  17.531  0.00  0.00    +0.000 A 
ENDBRANCH   9  16
ENDBRANCH   1   9
BRANCH   7  17
ATOM     17  C   UNL     1       2.295   6.242  20.223  0.00  0.00    +0.000 C 
BRANCH  17  18
ATOM     18  N   UNL     1       1.725   7.491  19.738  0.00  0.00    +0.000 N 
ATOM     19  C   UNL     1       1.304   8.498  20.588  0.00  0.00    +0.000 C 
ATOM     20  O   UNL     1       1.275   8.340  21.804  0.00  0.00    +0.000 OA
ATOM     21  H   UNL     1       1.687   7.654  18.740  0.00  0.00    +0.000 HD
BRANCH  19  22
ATOM     22  C   UNL     1       0.945   9.796  19.823  0.00  0.00    +0.000 C 
ATOM     23  C   UNL     1       0.749   9.722  18.287  0.00  0.00    +0.000 C 
ATOM     24  C   UNL     1      -0.376  10.763  18.451  0.00  0.00    +0.000 C 
ATOM     25  C   UNL     1      -0.542  10.247  19.890  0.00  0.00    +0.000 C 
ENDBRANCH  19  22
ENDBRANCH  17  18
ENDBRANCH   7  17
TORSDOF 5
ENDMDL
MODEL 7
REMARK VINA RESULT:      -7.9      3.361      5.549
REMARK  Name = 
REMARK  6 active torsions:
REMARK  status: ('A' for Active; 'I' for Inactive)
REMARK    1  A    between atoms: C_1  and  C_2
REMARK    2  A    between atoms: C_7  and  C_8
REMARK    3  A    between atoms: C_8  and  N_9
REMARK    4  A    between atoms: C_15  and  C_16
REMARK    5  A    between atoms: C_16  and  N_17
REMARK    6  A    between atoms: C_18  and  C_20
REMARK                            x       y       z     vdW  Elec       q    Type
REMARK                         _______ _______ _______ _____ _____    ______ ____
ROOT
ATOM      1  N   UNL     1       2.471   6.095  19.801  0.00  0.00    +0.000 NA
ATOM      2  C   UNL     1       1.458   5.167  19.384  0.00  0.00    +0.000 C 
ATOM      3  C   UNL     1       2.279   4.189  18.581  0.00  0.00    +0.000 C 
ATOM      4  C   UNL     1       1.505   2.915  18.401  0.00  0.00    +0.000 C 
ATOM      5  O   UNL     1       2.470   2.085  17.807  0.00  0.00    +0.000 OA
ATOM      6  C   UNL     1       3.733   2.698  18.106  0.00  0.00    +0.000 C 
ATOM      7  C   UNL     1       3.648   3.812  19.306  0.00  0.00    +0.000 C 
ATOM      8  C   UNL     1       3.748   5.445  19.483  0.00  0.00    +0.000 C 
ENDROOT
BRANCH   1   9
ATOM      9  C   UNL     1       2.365   7.443  19.217  0.00  0.00    +0.000 C 
BRANCH   9  16
ATOM     10  C   UNL     1       0.850   9.810  18.017  0.00  0.00    +0.000 C 
ATOM     11  C   UNL     1       0.809   9.486  19.485  0.00  0.00    +0.000 A 
ATOM     12  C   UNL     1       0.076  10.337  20.335  0.00  0.00    +0.000 A 
ATOM     13  C   UNL     1       0.034  10.119  21.712  0.00  0.00    +0.000 A 
ATOM     14  C   UNL     1       0.731   9.052  22.263  0.00  0.00    +0.000 A 
ATOM     15  C   UNL     1       1.459   8.199  21.435  0.00  0.00    +0.000 A 
ATOM     16  C   UNL     1       1.502   8.389  20.039  0.00  0.00    +0.000 A 
ENDBRANCH   9  16
ENDBRANCH   1   9
BRANCH   7  17
ATOM     17  C   UNL     1       5.273   3.820  19.353  0.00  0.00    +0.000 C 
BRANCH  17  18
ATOM     18  N   UNL     1       5.919   4.926  18.660  0.00  0.00    +0.000 N 
ATOM     19  C   UNL     1       7.082   5.518  19.120  0.00  0.00    +0.000 C 
ATOM     20  O   UNL     1       7.565   5.221  20.208  0.00  0.00    +0.000 OA
ATOM     21  H   UNL     1       5.535   5.238  17.778  0.00  0.00    +0.000 HD
BRANCH  19  22
ATOM     22  C   UNL     1       7.675   6.514  18.093  0.00  0.00    +0.000 C 
ATOM     23  C   UNL     1       6.718   7.499  17.376  0.00  0.00    +0.000 C 
ATOM     24  C   UNL     1       7.846   8.546  17.457  0.00  0.00    +0.000 C 
ATOM     25  C   UNL     1       8.371   7.776  18.680  0.00  0.00    +0.000 C 
ENDBRANCH  19  22
ENDBRANCH  17  18
ENDBRANCH   7  17
TORSDOF 5
ENDMDL
MODEL 8
REMARK VINA RESULT:      -7.8      3.162      5.388
REMARK  Name = 
REMARK  6 active torsions:
REMARK  status: ('A' for Active; 'I' for Inactive)
REMARK    1  A    between atoms: C_1  and  C_2
REMARK    2  A    between atoms: C_7  and  C_8
REMARK    3  A    between atoms: C_8  and  N_9
REMARK    4  A    between atoms: C_15  and  C_16
REMARK    5  A    between atoms: C_16  and  N_17
REMARK    6  A    between atoms: C_18  and  C_20
REMARK                            x       y       z     vdW  Elec       q    Type
REMARK                         _______ _______ _______ _____ _____    ______ ____
ROOT
ATOM      1  N   UNL     1       2.751   6.243  19.658  0.00  0.00    +0.000 NA
ATOM      2  C   UNL     1       1.679   5.505  20.264  0.00  0.00    +0.000 C 
ATOM      3  C   UNL     1       1.602   4.309  19.348  0.00  0.00    +0.000 C 
ATOM      4  C   UNL     1       0.840   3.206  20.025  0.00  0.00    +0.000 C 
ATOM      5  O   UNL     1       1.023   2.146  19.123  0.00  0.00    +0.000 OA
ATOM      6  C   UNL     1       2.160   2.516  18.328  0.00  0.00    +0.000 C 
ATOM      7  C   UNL     1       3.043   3.733  18.983  0.00  0.00    +0.000 C 
ATOM      8  C   UNL     1       3.361   5.321  18.693  0.00  0.00    +0.000 C 
ENDROOT
BRANCH   1   9
ATOM      9  C   UNL     1       2.359   7.523  19.044  0.00  0.00    +0.000 C 
BRANCH   9  16
ATOM     10  C   UNL     1       0.565   9.786  18.045  0.00  0.00    +0.000 C 
ATOM     11  C   UNL     1       0.709   9.454  19.504  0.00  0.00    +0.000 A 
ATOM     12  C   UNL     1       0.018  10.250  20.439  0.00  0.00    +0.000 A 
ATOM     13  C   UNL     1       0.143  10.024  21.809  0.00  0.00    +0.000 A 
ATOM     14  C   UNL     1       0.966   9.005  22.269  0.00  0.00    +0.000 A 
ATOM     15  C   UNL     1       1.655   8.208  21.357  0.00  0.00    +0.000 A 
ATOM     16  C   UNL     1       1.531   8.405  19.966  0.00  0.00    +0.000 A 
ENDBRANCH   9  16
ENDBRANCH   1   9
BRANCH   7  17
ATOM     17  C   UNL     1       4.206   3.417  17.892  0.00  0.00    +0.000 C 
BRANCH  17  18
ATOM     18  N   UNL     1       5.458   4.136  18.078  0.00  0.00    +0.000 N 
ATOM     19  C   UNL     1       6.347   4.367  17.042  0.00  0.00    +0.000 C 
ATOM     20  O   UNL     1       6.184   3.867  15.934  0.00  0.00    +0.000 OA
ATOM     21  H   UNL     1       5.662   4.533  18.986  0.00  0.00    +0.000 HD
BRANCH  19  22
ATOM     22  C   UNL     1       7.483   5.336  17.454  0.00  0.00    +0.000 C 
ATOM     23  C   UNL     1       7.268   6.858  17.264  0.00  0.00    +0.000 C 
ATOM     24  C   UNL     1       8.051   7.063  18.575  0.00  0.00    +0.000 C 
ATOM     25  C   UNL     1       7.608   5.646  18.974  0.00  0.00    +0.000 C 
ENDBRANCH  19  22
ENDBRANCH  17  18
ENDBRANCH   7  17
TORSDOF 5
ENDMDL
MODEL 9
REMARK VINA RESULT:      -7.7      3.543      7.953
REMARK  Name = 
REMARK  6 active torsions:
REMARK  status: ('A' for Active; 'I' for Inactive)
REMARK    1  A    between atoms: C_1  and  C_2
REMARK    2  A    between atoms: C_7  and  C_8
REMARK    3  A    between atoms: C_8  and  N_9
REMARK    4  A    between atoms: C_15  and  C_16
REMARK    5  A    between atoms: C_16  and  N_17
REMARK    6  A    between atoms: C_18  and  C_20
REMARK                            x       y       z     vdW  Elec       q    Type
REMARK                         _______ _______ _______ _____ _____    ______ ____
ROOT
ATOM      1  N   UNL     1       3.745   4.207  17.363  0.00  0.00    +0.000 NA
ATOM      2  C   UNL     1       2.743   3.240  17.717  0.00  0.00    +0.000 C 
ATOM      3  C   UNL     1       2.335   3.740  19.081  0.00  0.00    +0.000 C 
ATOM      4  C   UNL     1       1.014   3.135  19.460  0.00  0.00    +0.000 C 
ATOM      5  O   UNL     1       0.716   3.835  20.641  0.00  0.00    +0.000 OA
ATOM      6  C   UNL     1       1.539   5.010  20.602  0.00  0.00    +0.000 C 
ATOM      7  C   UNL     1       2.158   5.324  19.116  0.00  0.00    +0.000 C 
ATOM      8  C   UNL     1       3.615   5.283  18.352  0.00  0.00    +0.000 C 
ENDROOT
BRANCH   1   9
ATOM      9  C   UNL     1       5.118   3.682  17.279  0.00  0.00    +0.000 C 
BRANCH   9  16
ATOM     10  C   UNL     1       7.250   5.870  17.190  0.00  0.00    +0.000 C 
ATOM     11  C   UNL     1       6.823   5.109  15.965  0.00  0.00    +0.000 A 
ATOM     12  C   UNL     1       7.403   5.456  14.730  0.00  0.00    +0.000 A 
ATOM     13  C   UNL     1       7.019   4.821  13.549  0.00  0.00    +0.000 A 
ATOM     14  C   UNL     1       6.042   3.835  13.583  0.00  0.00    +0.000 A 
ATOM     15  C   UNL     1       5.459   3.479  14.797  0.00  0.00    +0.000 A 
ATOM     16  C   UNL     1       5.844   4.094  16.007  0.00  0.00    +0.000 A 
ENDBRANCH   9  16
ENDBRANCH   1   9
BRANCH   7  17
ATOM     17  C   UNL     1       2.612   6.787  19.662  0.00  0.00    +0.000 C 
BRANCH  17  18
ATOM     18  N   UNL     1       1.728   7.394  20.646  0.00  0.00    +0.000 N 
ATOM     19  C   UNL     1       1.130   8.627  20.451  0.00  0.00    +0.000 C 
ATOM     20  O   UNL     1       1.412   9.331  19.487  0.00  0.00    +0.000 OA
ATOM     21  H   UNL     1       1.496   6.872  21.481  0.00  0.00    +0.000 HD
BRANCH  19  22
ATOM     22  C   UNL     1       0.074   8.942  21.540  0.00  0.00    +0.000 C 
ATOM     23  C   UNL     1       0.564   9.343  22.954  0.00  0.00    +0.000 C 
ATOM     24  C   UNL     1      -0.627  10.320  23.014  0.00  0.00    +0.000 C 
ATOM     25  C   UNL     1      -0.582  10.351  21.477  0.00  0.00    +0.000 C 
ENDBRANCH  19  22
ENDBRANCH  17  18
ENDBRANCH   7  17
TORSDOF 5
ENDMDL
