MODEL 1
REMARK VINA RESULT:      -7.9      0.000      0.000
REMARK  Name = 
REMARK  9 active torsions:
REMARK  status: ('A' for Active; 'I' for Inactive)
REMARK    1  A    between atoms: C_1  and  C_2
REMARK    2  A    between atoms: C_2  and  N_3
REMARK    3  A    between atoms: C_2  and  C_25
REMARK    4  A    between atoms: C_4  and  C_6
REMARK    5  A    between atoms: C_9  and  O_10
REMARK    6  A    between atoms: O_10  and  C_11
REMARK    7  A    between atoms: C_11  and  C_12
REMARK    8  A    between atoms: C_18  and  C_19
REMARK    9  A    between atoms: C_25  and  C_27
REMARK                            x       y       z     vdW  Elec       q    Type
REMARK                         _______ _______ _______ _____ _____    ______ ____
ROOT
ATOM      1  C   UNL     1       2.340   7.271  18.645  0.00  0.00    +0.000 A 
ATOM      2  C   UNL     1       2.482   8.326  17.741  0.00  0.00    +0.000 A 
ATOM      3  C   UNL     1       1.944   9.573  18.025  0.00  0.00    +0.000 A 
ATOM      4  C   UNL     1       1.263   9.803  19.228  0.00  0.00    +0.000 A 
ATOM      5  C   UNL     1       1.054   8.742  20.131  0.00  0.00    +0.000 A 
ATOM      6  C   UNL     1       1.639   7.481  19.847  0.00  0.00    +0.000 A 
ATOM      7 CL   UNL     1       1.545   6.211  21.034  0.00  0.00    +0.000 Cl
ENDROOT
BRANCH   1   9
ATOM      8  N   UNL     1       4.313   5.836  18.535  0.00  0.00    +0.000 N 
ATOM      9  C   UNL     1       2.983   5.996  18.228  0.00  0.00    +0.000 C 
ATOM     10  O   UNL     1       2.303   5.133  17.681  0.00  0.00    +0.000 OA
ATOM     11  H   UNL     1       4.816   6.609  18.954  0.00  0.00    +0.000 HD
BRANCH   8  13
ATOM     12  C   UNL     1       5.013   3.569  19.224  0.00  0.00    +0.000 C 
ATOM     13  C   UNL     1       5.080   4.652  18.149  0.00  0.00    +0.000 C 
BRANCH  13  14
ATOM     14  C   UNL     1       6.496   5.023  17.706  0.00  0.00    +0.000 C 
ATOM     15  O   UNL     1       7.542   4.541  18.144  0.00  0.00    +0.000 OA
BRANCH  14  16
ATOM     16  C   UNL     1       6.615   6.190  16.724  0.00  0.00    +0.000 C 
ATOM     17  N   UNL     1       7.697   7.003  16.924  0.00  0.00    +0.000 N 
ATOM     18  O   UNL     1       5.779   6.385  15.858  0.00  0.00    +0.000 OA
ATOM     19  H   UNL     1       8.287   6.860  17.736  0.00  0.00    +0.000 HD
ATOM     20  H   UNL     1       7.797   7.840  16.368  0.00  0.00    +0.000 HD
ENDBRANCH  14  16
ENDBRANCH  13  14
ENDBRANCH   8  13
ENDBRANCH   1   9
BRANCH   5  21
ATOM     21  C   UNL     1       0.217   8.905  21.377  0.00  0.00    +0.000 C 
ATOM     22  F   UNL     1      -0.700   7.925  21.614  0.00  0.00    +0.000 F 
ATOM     23  F   UNL     1       0.987   8.937  22.505  0.00  0.00    +0.000 F 
ATOM     24  F   UNL     1      -0.500  10.066  21.383  0.00  0.00    +0.000 F 
ENDBRANCH   5  21
BRANCH   4  25
ATOM     25  O   UNL     1       0.795  11.050  19.572  0.00  0.00    +0.000 OA
BRANCH  25  26
ATOM     26  C   UNL     1       0.165  11.782  18.507  0.00  0.00    +0.000 C 
BRANCH  26  27
ATOM     27  C   UNL     1      -1.258  11.368  18.220  0.00  0.00    +0.000 A 
ATOM     28  C   UNL     1      -1.565  10.214  17.505  0.00  0.00    +0.000 A 
ATOM     29  C   UNL     1      -2.899   9.825  17.404  0.00  0.00    +0.000 A 
ATOM     30  C   UNL     1      -3.885  10.587  18.019  0.00  0.00    +0.000 A 
ATOM     31  C   UNL     1      -3.499  11.722  18.709  0.00  0.00    +0.000 A 
ATOM     32  N   UNL     1      -2.216  12.123  18.824  0.00  0.00    +0.000 NA
ENDBRANCH  26  27
ENDBRANCH  25  26
ENDBRANCH   4  25
TORSDOF 8
ENDMDL
MODEL 2
REMARK VINA RESULT:      -7.9      3.453      8.361
REMARK  Name = 
REMARK  9 active torsions:
REMARK  status: ('A' for Active; 'I' for Inactive)
REMARK    1  A    between atoms: C_1  and  C_2
REMARK    2  A    between atoms: C_2  and  N_3
REMARK    3  A    between atoms: C_2  and  C_25
REMARK    4  A    between atoms: C_4  and  C_6
REMARK    5  A    between atoms: C_9  and  O_10
REMARK    6  A    between atoms: O_10  and  C_11
REMARK    7  A    between atoms: C_11  and  C_12
REMARK    8  A    between atoms: C_18  and  C_19
REMARK    9  A    between atoms: C_25  and  C_27
REMARK                            x       y       z     vdW  Elec       q    Type
REMARK                         _______ _______ _______ _____ _____    ______ ____
ROOT
ATOM      1  C   UNL     1       2.732   7.068  18.688  0.00  0.00    +0.000 A 
ATOM      2  C   UNL     1       3.556   7.541  17.664  0.00  0.00    +0.000 A 
ATOM      3  C   UNL     1       4.411   6.677  16.994  0.00  0.00    +0.000 A 
ATOM      4  C   UNL     1       4.454   5.315  17.319  0.00  0.00    +0.000 A 
ATOM      5  C   UNL     1       3.678   4.822  18.387  0.00  0.00    +0.000 A 
ATOM      6  C   UNL     1       2.782   5.706  19.042  0.00  0.00    +0.000 A 
ATOM      7 CL   UNL     1       1.686   5.076  20.239  0.00  0.00    +0.000 Cl
ENDROOT
BRANCH   1   9
ATOM      8  N   UNL     1       1.178   8.937  18.456  0.00  0.00    +0.000 N 
ATOM      9  C   UNL     1       1.849   8.092  19.308  0.00  0.00    +0.000 C 
ATOM     10  O   UNL     1       1.719   8.112  20.527  0.00  0.00    +0.000 OA
ATOM     11  H   UNL     1       1.367   8.884  17.463  0.00  0.00    +0.000 HD
BRANCH   8  13
ATOM     12  C   UNL     1      -0.841  10.271  17.961  0.00  0.00    +0.000 C 
ATOM     13  C   UNL     1       0.311  10.016  18.930  0.00  0.00    +0.000 C 
BRANCH  13  14
ATOM     14  C   UNL     1       1.119  11.260  19.300  0.00  0.00    +0.000 C 
ATOM     15  O   UNL     1       1.859  11.894  18.547  0.00  0.00    +0.000 OA
BRANCH  14  16
ATOM     16  C   UNL     1       1.098  11.667  20.775  0.00  0.00    +0.000 C 
ATOM     17  N   UNL     1       0.476  10.777  21.609  0.00  0.00    +0.000 N 
ATOM     18  O   UNL     1       1.573  12.724  21.154  0.00  0.00    +0.000 OA
ATOM     19  H   UNL     1      -0.006   9.977  21.216  0.00  0.00    +0.000 HD
ATOM     20  H   UNL     1       0.350  11.016  22.582  0.00  0.00    +0.000 HD
ENDBRANCH  14  16
ENDBRANCH  13  14
ENDBRANCH   8  13
ENDBRANCH   1   9
BRANCH   5  21
ATOM     21  C   UNL     1       3.785   3.393  18.861  0.00  0.00    +0.000 C 
ATOM     22  F   UNL     1       2.841   2.988  19.757  0.00  0.00    +0.000 F 
ATOM     23  F   UNL     1       3.682   2.506  17.826  0.00  0.00    +0.000 F 
ATOM     24  F   UNL     1       4.979   3.125  19.464  0.00  0.00    +0.000 F 
ENDBRANCH   5  21
BRANCH   4  25
ATOM     25  O   UNL     1       5.229   4.423  16.614  0.00  0.00    +0.000 OA
BRANCH  25  26
ATOM     26  C   UNL     1       6.493   4.936  16.161  0.00  0.00    +0.000 C 
BRANCH  26  27
ATOM     27  C   UNL     1       6.798   4.657  14.709  0.00  0.00    +0.000 A 
ATOM     28  C   UNL     1       6.050   3.760  13.953  0.00  0.00    +0.000 A 
ATOM     29  C   UNL     1       6.303   3.663  12.587  0.00  0.00    +0.000 A 
ATOM     30  C   UNL     1       7.284   4.464  12.012  0.00  0.00    +0.000 A 
ATOM     31  C   UNL     1       7.985   5.328  12.832  0.00  0.00    +0.000 A 
ATOM     32  N   UNL     1       7.762   5.444  14.158  0.00  0.00    +0.000 NA
ENDBRANCH  26  27
ENDBRANCH  25  26
ENDBRANCH   4  25
TORSDOF 8
ENDMDL
MODEL 3
REMARK VINA RESULT:      -7.8      3.452      8.428
REMARK  Name = 
REMARK  9 active torsions:
REMARK  status: ('A' for Active; 'I' for Inactive)
REMARK    1  A    between atoms: C_1  and  C_2
REMARK    2  A    between atoms: C_2  and  N_3
REMARK    3  A    between atoms: C_2  and  C_25
REMARK    4  A    between atoms: C_4  and  C_6
REMARK    5  A    between atoms: C_9  and  O_10
REMARK    6  A    between atoms: O_10  and  C_11
REMARK    7  A    between atoms: C_11  and  C_12
REMARK    8  A    between atoms: C_18  and  C_19
REMARK    9  A    between atoms: C_25  and  C_27
REMARK                            x       y       z     vdW  Elec       q    Type
REMARK                         _______ _______ _______ _____ _____    ______ ____
ROOT
ATOM      1  C   UNL     1       2.755   7.374  18.422  0.00  0.00    +0.000 A 
ATOM      2  C   UNL     1       3.638   7.722  17.398  0.00  0.00    +0.000 A 
ATOM      3  C   UNL     1       4.588   6.813  16.950  0.00  0.00    +0.000 A 
ATOM      4  C   UNL     1       4.669   5.529  17.502  0.00  0.00    +0.000 A 
ATOM      5  C   UNL     1       3.829   5.172  18.577  0.00  0.00    +0.000 A 
ATOM      6  C   UNL     1       2.839   6.095  19.003  0.00  0.00    +0.000 A 
ATOM      7 CL   UNL     1       1.677   5.605  20.203  0.00  0.00    +0.000 Cl
ENDROOT
BRANCH   1   9
ATOM      8  N   UNL     1       1.530   8.616  20.131  0.00  0.00    +0.000 N 
ATOM      9  C   UNL     1       1.774   8.430  18.791  0.00  0.00    +0.000 C 
ATOM     10  O   UNL     1       1.269   9.114  17.907  0.00  0.00    +0.000 OA
ATOM     11  H   UNL     1       1.957   7.987  20.799  0.00  0.00    +0.000 HD
BRANCH   8  13
ATOM     12  C   UNL     1       1.220  10.936  20.921  0.00  0.00    +0.000 C 
ATOM     13  C   UNL     1       0.560   9.589  20.633  0.00  0.00    +0.000 C 
BRANCH  13  14
ATOM     14  C   UNL     1      -0.255   9.018  21.794  0.00  0.00    +0.000 C 
ATOM     15  O   UNL     1      -0.956   8.005  21.759  0.00  0.00    +0.000 OA
BRANCH  14  16
ATOM     16  C   UNL     1      -0.298   9.860  23.070  0.00  0.00    +0.000 C 
ATOM     17  N   UNL     1      -1.279  10.814  23.098  0.00  0.00    +0.000 N 
ATOM     18  O   UNL     1       0.512   9.703  23.968  0.00  0.00    +0.000 OA
ATOM     19  H   UNL     1      -1.842  10.977  22.271  0.00  0.00    +0.000 HD
ATOM     20  H   UNL     1      -1.317  11.463  23.871  0.00  0.00    +0.000 HD
ENDBRANCH  14  16
ENDBRANCH  13  14
ENDBRANCH   8  13
ENDBRANCH   1   9
BRANCH   5  21
ATOM     21  C   UNL     1       3.963   3.849  19.292  0.00  0.00    +0.000 C 
ATOM     22  F   UNL     1       3.504   2.756  18.620  0.00  0.00    +0.000 F 
ATOM     23  F   UNL     1       5.267   3.557  19.576  0.00  0.00    +0.000 F 
ATOM     24  F   UNL     1       3.307   3.828  20.488  0.00  0.00    +0.000 F 
ENDBRANCH   5  21
BRANCH   4  25
ATOM     25  O   UNL     1       5.542   4.582  17.019  0.00  0.00    +0.000 OA
BRANCH  25  26
ATOM     26  C   UNL     1       6.722   5.105  16.387  0.00  0.00    +0.000 C 
BRANCH  26  27
ATOM     27  C   UNL     1       6.866   4.738  14.930  0.00  0.00    +0.000 A 
ATOM     28  C   UNL     1       6.025   3.820  14.309  0.00  0.00    +0.000 A 
ATOM     29  C   UNL     1       6.131   3.640  12.932  0.00  0.00    +0.000 A 
ATOM     30  C   UNL     1       7.061   4.381  12.212  0.00  0.00    +0.000 A 
ATOM     31  C   UNL     1       7.863   5.271  12.903  0.00  0.00    +0.000 A 
ATOM     32  N   UNL     1       7.783   5.466  14.236  0.00  0.00    +0.000 NA
ENDBRANCH  26  27
ENDBRANCH  25  26
ENDBRANCH   4  25
TORSDOF 8
ENDMDL
MODEL 4
REMARK VINA RESULT:      -7.8      3.502      8.344
REMARK  Name = 
REMARK  9 active torsions:
REMARK  status: ('A' for Active; 'I' for Inactive)
REMARK    1  A    between atoms: C_1  and  C_2
REMARK    2  A    between atoms: C_2  and  N_3
REMARK    3  A    between atoms: C_2  and  C_25
REMARK    4  A    between atoms: C_4  and  C_6
REMARK    5  A    between atoms: C_9  and  O_10
REMARK    6  A    between atoms: O_10  and  C_11
REMARK    7  A    between atoms: C_11  and  C_12
REMARK    8  A    between atoms: C_18  and  C_19
REMARK    9  A    between atoms: C_25  and  C_27
REMARK                            x       y       z     vdW  Elec       q    Type
REMARK                         _______ _______ _______ _____ _____    ______ ____
ROOT
ATOM      1  C   UNL     1       2.681   7.067  18.651  0.00  0.00    +0.000 A 
ATOM      2  C   UNL     1       3.578   7.546  17.694  0.00  0.00    +0.000 A 
ATOM      3  C   UNL     1       4.374   6.666  16.974  0.00  0.00    +0.000 A 
ATOM      4  C   UNL     1       4.283   5.284  17.180  0.00  0.00    +0.000 A 
ATOM      5  C   UNL     1       3.430   4.777  18.180  0.00  0.00    +0.000 A 
ATOM      6  C   UNL     1       2.596   5.682  18.886  0.00  0.00    +0.000 A 
ATOM      7 CL   UNL     1       1.407   5.058  19.995  0.00  0.00    +0.000 Cl
ENDROOT
BRANCH   1   9
ATOM      8  N   UNL     1       1.250   9.042  18.536  0.00  0.00    +0.000 N 
ATOM      9  C   UNL     1       1.874   8.113  19.334  0.00  0.00    +0.000 C 
ATOM     10  O   UNL     1       1.759   8.079  20.555  0.00  0.00    +0.000 OA
ATOM     11  H   UNL     1       1.424   9.028  17.539  0.00  0.00    +0.000 HD
BRANCH   8  13
ATOM     12  C   UNL     1      -0.844  10.332  18.304  0.00  0.00    +0.000 C 
ATOM     13  C   UNL     1       0.461  10.149  19.076  0.00  0.00    +0.000 C 
BRANCH  13  14
ATOM     14  C   UNL     1       1.301  11.420  19.214  0.00  0.00    +0.000 C 
ATOM     15  O   UNL     1       2.039  11.898  18.352  0.00  0.00    +0.000 OA
BRANCH  14  16
ATOM     16  C   UNL     1       1.318  12.072  20.598  0.00  0.00    +0.000 C 
ATOM     17  N   UNL     1       2.019  13.246  20.673  0.00  0.00    +0.000 N 
ATOM     18  O   UNL     1       0.773  11.553  21.557  0.00  0.00    +0.000 OA
ATOM     19  H   UNL     1       2.552  13.562  19.870  0.00  0.00    +0.000 HD
ATOM     20  H   UNL     1       2.144  13.692  21.570  0.00  0.00    +0.000 HD
ENDBRANCH  14  16
ENDBRANCH  13  14
ENDBRANCH   8  13
ENDBRANCH   1   9
BRANCH   5  21
ATOM     21  C   UNL     1       3.391   3.309  18.531  0.00  0.00    +0.000 C 
ATOM     22  F   UNL     1       4.285   2.514  17.879  0.00  0.00    +0.000 F 
ATOM     23  F   UNL     1       3.643   3.097  19.857  0.00  0.00    +0.000 F 
ATOM     24  F   UNL     1       2.174   2.740  18.287  0.00  0.00    +0.000 F 
ENDBRANCH   5  21
BRANCH   4  25
ATOM     25  O   UNL     1       4.997   4.386  16.421  0.00  0.00    +0.000 OA
BRANCH  25  26
ATOM     26  C   UNL     1       6.328   4.803  16.071  0.00  0.00    +0.000 C 
BRANCH  26  27
ATOM     27  C   UNL     1       6.698   4.569  14.627  0.00  0.00    +0.000 A 
ATOM     28  C   UNL     1       5.993   3.687  13.814  0.00  0.00    +0.000 A 
ATOM     29  C   UNL     1       6.307   3.632  12.457  0.00  0.00    +0.000 A 
ATOM     30  C   UNL     1       7.304   4.457  11.949  0.00  0.00    +0.000 A 
ATOM     31  C   UNL     1       7.960   5.303  12.824  0.00  0.00    +0.000 A 
ATOM     32  N   UNL     1       7.679   5.378  14.141  0.00  0.00    +0.000 NA
ENDBRANCH  26  27
ENDBRANCH  25  26
ENDBRANCH   4  25
TORSDOF 8
ENDMDL
MODEL 5
REMARK VINA RESULT:      -7.6      1.808      2.658
REMARK  Name = 
REMARK  9 active torsions:
REMARK  status: ('A' for Active; 'I' for Inactive)
REMARK    1  A    between atoms: C_1  and  C_2
REMARK    2  A    between atoms: C_2  and  N_3
REMARK    3  A    between atoms: C_2  and  C_25
REMARK    4  A    between atoms: C_4  and  C_6
REMARK    5  A    between atoms: C_9  and  O_10
REMARK    6  A    between atoms: O_10  and  C_11
REMARK    7  A    between atoms: C_11  and  C_12
REMARK    8  A    between atoms: C_18  and  C_19
REMARK    9  A    between atoms: C_25  and  C_27
REMARK                            x       y       z     vdW  Elec       q    Type
REMARK                         _______ _______ _______ _____ _____    ______ ____
ROOT
ATOM      1  C   UNL     1       2.365   7.584  18.777  0.00  0.00    +0.000 A 
ATOM      2  C   UNL     1       2.429   8.610  17.832  0.00  0.00    +0.000 A 
ATOM      3  C   UNL     1       1.793   9.822  18.067  0.00  0.00    +0.000 A 
ATOM      4  C   UNL     1       1.091  10.045  19.258  0.00  0.00    +0.000 A 
ATOM      5  C   UNL     1       0.962   9.007  20.203  0.00  0.00    +0.000 A 
ATOM      6  C   UNL     1       1.644   7.785  19.968  0.00  0.00    +0.000 A 
ATOM      7 CL   UNL     1       1.644   6.559  21.205  0.00  0.00    +0.000 Cl
ENDROOT
BRANCH   1   9
ATOM      8  N   UNL     1       2.391   5.174  18.384  0.00  0.00    +0.000 N 
ATOM      9  C   UNL     1       3.107   6.347  18.411  0.00  0.00    +0.000 C 
ATOM     10  O   UNL     1       4.292   6.427  18.107  0.00  0.00    +0.000 OA
ATOM     11  H   UNL     1       1.425   5.182  18.685  0.00  0.00    +0.000 HD
BRANCH   8  13
ATOM     12  C   UNL     1       2.237   3.144  16.984  0.00  0.00    +0.000 C 
ATOM     13  C   UNL     1       3.002   3.879  18.082  0.00  0.00    +0.000 C 
BRANCH  13  14
ATOM     14  C   UNL     1       3.234   3.061  19.354  0.00  0.00    +0.000 C 
ATOM     15  O   UNL     1       2.365   2.685  20.142  0.00  0.00    +0.000 OA
BRANCH  14  16
ATOM     16  C   UNL     1       4.693   2.804  19.737  0.00  0.00    +0.000 C 
ATOM     17  N   UNL     1       5.599   3.645  19.149  0.00  0.00    +0.000 N 
ATOM     18  O   UNL     1       5.007   1.893  20.483  0.00  0.00    +0.000 OA
ATOM     19  H   UNL     1       5.286   4.303  18.444  0.00  0.00    +0.000 HD
ATOM     20  H   UNL     1       6.586   3.484  19.289  0.00  0.00    +0.000 HD
ENDBRANCH  14  16
ENDBRANCH  13  14
ENDBRANCH   8  13
ENDBRANCH   1   9
BRANCH   5  21
ATOM     21  C   UNL     1       0.109   9.152  21.440  0.00  0.00    +0.000 C 
ATOM     22  F   UNL     1      -0.711  10.240  21.477  0.00  0.00    +0.000 F 
ATOM     23  F   UNL     1      -0.727   8.084  21.608  0.00  0.00    +0.000 F 
ATOM     24  F   UNL     1       0.848   9.231  22.584  0.00  0.00    +0.000 F 
ENDBRANCH   5  21
BRANCH   4  25
ATOM     25  O   UNL     1       0.526  11.264  19.553  0.00  0.00    +0.000 OA
BRANCH  25  26
ATOM     26  C   UNL     1      -0.194  11.881  18.472  0.00  0.00    +0.000 C 
BRANCH  26  27
ATOM     27  C   UNL     1      -1.610  11.387  18.300  0.00  0.00    +0.000 A 
ATOM     28  C   UNL     1      -2.690  11.995  18.930  0.00  0.00    +0.000 A 
ATOM     29  C   UNL     1      -3.978  11.570  18.611  0.00  0.00    +0.000 A 
ATOM     30  C   UNL     1      -4.154  10.561  17.671  0.00  0.00    +0.000 A 
ATOM     31  C   UNL     1      -3.028  10.004  17.092  0.00  0.00    +0.000 A 
ATOM     32  N   UNL     1      -1.770  10.395  17.382  0.00  0.00    +0.000 NA
ENDBRANCH  26  27
ENDBRANCH  25  26
ENDBRANCH   4  25
TORSDOF 8
ENDMDL
MODEL 6
REMARK VINA RESULT:      -7.6      0.640      1.012
REMARK  Name = 
REMARK  9 active torsions:
REMARK  status: ('A' for Active; 'I' for Inactive)
REMARK    1  A    between atoms: C_1  and  C_2
REMARK    2  A    between atoms: C_2  and  N_3
REMARK    3  A    between atoms: C_2  and  C_25
REMARK    4  A    between atoms: C_4  and  C_6
REMARK    5  A    between atoms: C_9  and  O_10
REMARK    6  A    between atoms: O_10  and  C_11
REMARK    7  A    between atoms: C_11  and  C_12
REMARK    8  A    between atoms: C_18  and  C_19
REMARK    9  A    between atoms: C_25  and  C_27
REMARK                            x       y       z     vdW  Elec       q    Type
REMARK                         _______ _______ _______ _____ _____    ______ ____
ROOT
ATOM      1  C   UNL     1       2.370   7.400  18.647  0.00  0.00    +0.000 A 
ATOM      2  C   UNL     1       2.483   8.460  17.744  0.00  0.00    +0.000 A 
ATOM      3  C   UNL     1       1.925   9.697  18.038  0.00  0.00    +0.000 A 
ATOM      4  C   UNL     1       1.252   9.911  19.248  0.00  0.00    +0.000 A 
ATOM      5  C   UNL     1       1.071   8.843  20.150  0.00  0.00    +0.000 A 
ATOM      6  C   UNL     1       1.676   7.594  19.856  0.00  0.00    +0.000 A 
ATOM      7 CL   UNL     1       1.618   6.319  21.041  0.00  0.00    +0.000 Cl
ENDROOT
BRANCH   1   9
ATOM      8  N   UNL     1       4.356   5.983  18.554  0.00  0.00    +0.000 N 
ATOM      9  C   UNL     1       3.031   6.138  18.220  0.00  0.00    +0.000 C 
ATOM     10  O   UNL     1       2.372   5.282  17.641  0.00  0.00    +0.000 OA
ATOM     11  H   UNL     1       4.843   6.750  18.999  0.00  0.00    +0.000 HD
BRANCH   8  13
ATOM     12  C   UNL     1       4.893   3.635  19.103  0.00  0.00    +0.000 C 
ATOM     13  C   UNL     1       5.140   4.812  18.162  0.00  0.00    +0.000 C 
BRANCH  13  14
ATOM     14  C   UNL     1       6.614   5.168  17.962  0.00  0.00    +0.000 C 
ATOM     15  O   UNL     1       7.577   4.447  18.227  0.00  0.00    +0.000 OA
BRANCH  14  16
ATOM     16  C   UNL     1       6.909   6.601  17.513  0.00  0.00    +0.000 C 
ATOM     17  N   UNL     1       7.927   7.218  18.189  0.00  0.00    +0.000 N 
ATOM     18  O   UNL     1       6.254   7.146  16.642  0.00  0.00    +0.000 OA
ATOM     19  H   UNL     1       8.351   6.755  18.985  0.00  0.00    +0.000 HD
ATOM     20  H   UNL     1       8.125   8.191  18.006  0.00  0.00    +0.000 HD
ENDBRANCH  14  16
ENDBRANCH  13  14
ENDBRANCH   8  13
ENDBRANCH   1   9
BRANCH   5  21
ATOM     21  C   UNL     1       0.244   8.987  21.405  0.00  0.00    +0.000 C 
ATOM     22  F   UNL     1      -0.490  10.130  21.509  0.00  0.00    +0.000 F 
ATOM     23  F   UNL     1      -0.669   7.978  21.529  0.00  0.00    +0.000 F 
ATOM     24  F   UNL     1       0.998   8.949  22.541  0.00  0.00    +0.000 F 
ENDBRANCH   5  21
BRANCH   4  25
ATOM     25  O   UNL     1       0.765  11.148  19.600  0.00  0.00    +0.000 OA
BRANCH  25  26
ATOM     26  C   UNL     1       0.164  11.896  18.530  0.00  0.00    +0.000 C 
BRANCH  26  27
ATOM     27  C   UNL     1      -1.343  11.965  18.583  0.00  0.00    +0.000 A 
ATOM     28  C   UNL     1      -2.147  11.389  17.605  0.00  0.00    +0.000 A 
ATOM     29  C   UNL     1      -3.527  11.372  17.797  0.00  0.00    +0.000 A 
ATOM     30  C   UNL     1      -4.065  11.918  18.956  0.00  0.00    +0.000 A 
ATOM     31  C   UNL     1      -3.199  12.474  19.880  0.00  0.00    +0.000 A 
ATOM     32  N   UNL     1      -1.860  12.506  19.721  0.00  0.00    +0.000 NA
ENDBRANCH  26  27
ENDBRANCH  25  26
ENDBRANCH   4  25
TORSDOF 8
ENDMDL
MODEL 7
REMARK VINA RESULT:      -7.6      3.963      5.355
REMARK  Name = 
REMARK  9 active torsions:
REMARK  status: ('A' for Active; 'I' for Inactive)
REMARK    1  A    between atoms: C_1  and  C_2
REMARK    2  A    between atoms: C_2  and  N_3
REMARK    3  A    between atoms: C_2  and  C_25
REMARK    4  A    between atoms: C_4  and  C_6
REMARK    5  A    between atoms: C_9  and  O_10
REMARK    6  A    between atoms: O_10  and  C_11
REMARK    7  A    between atoms: C_11  and  C_12
REMARK    8  A    between atoms: C_18  and  C_19
REMARK    9  A    between atoms: C_25  and  C_27
REMARK                            x       y       z     vdW  Elec       q    Type
REMARK                         _______ _______ _______ _____ _____    ______ ____
ROOT
ATOM      1  C   UNL     1       4.941   5.165  16.510  0.00  0.00    +0.000 A 
ATOM      2  C   UNL     1       4.924   6.557  16.612  0.00  0.00    +0.000 A 
ATOM      3  C   UNL     1       4.010   7.190  17.444  0.00  0.00    +0.000 A 
ATOM      4  C   UNL     1       3.102   6.448  18.208  0.00  0.00    +0.000 A 
ATOM      5  C   UNL     1       3.058   5.045  18.081  0.00  0.00    +0.000 A 
ATOM      6  C   UNL     1       4.018   4.406  17.254  0.00  0.00    +0.000 A 
ATOM      7 CL   UNL     1       4.096   2.667  17.226  0.00  0.00    +0.000 Cl
ENDROOT
BRANCH   1   9
ATOM      8  N   UNL     1       5.659   4.512  14.270  0.00  0.00    +0.000 N 
ATOM      9  C   UNL     1       5.982   4.614  15.602  0.00  0.00    +0.000 C 
ATOM     10  O   UNL     1       7.083   4.324  16.058  0.00  0.00    +0.000 OA
ATOM     11  H   UNL     1       4.717   4.735  13.975  0.00  0.00    +0.000 HD
BRANCH   8  13
ATOM     12  C   UNL     1       7.549   5.003  12.756  0.00  0.00    +0.000 C 
ATOM     13  C   UNL     1       6.571   3.950  13.273  0.00  0.00    +0.000 C 
BRANCH  13  14
ATOM     14  C   UNL     1       5.810   3.196  12.181  0.00  0.00    +0.000 C 
ATOM     15  O   UNL     1       4.629   3.365  11.872  0.00  0.00    +0.000 OA
BRANCH  14  16
ATOM     16  C   UNL     1       6.557   2.043  11.508  0.00  0.00    +0.000 C 
ATOM     17  N   UNL     1       5.866   0.863  11.453  0.00  0.00    +0.000 N 
ATOM     18  O   UNL     1       7.694   2.175  11.090  0.00  0.00    +0.000 OA
ATOM     19  H   UNL     1       4.973   0.784  11.928  0.00  0.00    +0.000 HD
ATOM     20  H   UNL     1       6.324   0.036  11.099  0.00  0.00    +0.000 HD
ENDBRANCH  14  16
ENDBRANCH  13  14
ENDBRANCH   8  13
ENDBRANCH   1   9
BRANCH   5  21
ATOM     21  C   UNL     1       2.013   4.210  18.782  0.00  0.00    +0.000 C 
ATOM     22  F   UNL     1       2.474   3.119  19.457  0.00  0.00    +0.000 F 
ATOM     23  F   UNL     1       1.330   4.933  19.718  0.00  0.00    +0.000 F 
ATOM     24  F   UNL     1       1.069   3.720  17.927  0.00  0.00    +0.000 F 
ENDBRANCH   5  21
BRANCH   4  25
ATOM     25  O   UNL     1       2.245   7.045  19.103  0.00  0.00    +0.000 OA
BRANCH  25  26
ATOM     26  C   UNL     1       1.893   8.405  18.800  0.00  0.00    +0.000 C 
BRANCH  26  27
ATOM     27  C   UNL     1       1.178   9.131  19.913  0.00  0.00    +0.000 A 
ATOM     28  C   UNL     1       0.301  10.183  19.670  0.00  0.00    +0.000 A 
ATOM     29  C   UNL     1      -0.427  10.707  20.736  0.00  0.00    +0.000 A 
ATOM     30  C   UNL     1      -0.268  10.167  22.008  0.00  0.00    +0.000 A 
ATOM     31  C   UNL     1       0.626   9.124  22.167  0.00  0.00    +0.000 A 
ATOM     32  N   UNL     1       1.344   8.596  21.154  0.00  0.00    +0.000 NA
ENDBRANCH  26  27
ENDBRANCH  25  26
ENDBRANCH   4  25
TORSDOF 8
ENDMDL
MODEL 8
REMARK VINA RESULT:      -7.6      2.034      3.065
REMARK  Name = 
REMARK  9 active torsions:
REMARK  status: ('A' for Active; 'I' for Inactive)
REMARK    1  A    between atoms: C_1  and  C_2
REMARK    2  A    between atoms: C_2  and  N_3
REMARK    3  A    between atoms: C_2  and  C_25
REMARK    4  A    between atoms: C_4  and  C_6
REMARK    5  A    between atoms: C_9  and  O_10
REMARK    6  A    between atoms: O_10  and  C_11
REMARK    7  A    between atoms: C_11  and  C_12
REMARK    8  A    between atoms: C_18  and  C_19
REMARK    9  A    between atoms: C_25  and  C_27
REMARK                            x       y       z     vdW  Elec       q    Type
REMARK                         _______ _______ _______ _____ _____    ______ ____
ROOT
ATOM      1  C   UNL     1       2.213   7.806  18.810  0.00  0.00    +0.000 A 
ATOM      2  C   UNL     1       2.156   8.804  17.835  0.00  0.00    +0.000 A 
ATOM      3  C   UNL     1       1.457   9.980  18.072  0.00  0.00    +0.000 A 
ATOM      4  C   UNL     1       0.810  10.196  19.295  0.00  0.00    +0.000 A 
ATOM      5  C   UNL     1       0.801   9.182  20.274  0.00  0.00    +0.000 A 
ATOM      6  C   UNL     1       1.547   7.999  20.035  0.00  0.00    +0.000 A 
ATOM      7 CL   UNL     1       1.697   6.816  21.304  0.00  0.00    +0.000 Cl
ENDROOT
BRANCH   1   9
ATOM      8  N   UNL     1       2.469   5.379  18.731  0.00  0.00    +0.000 N 
ATOM      9  C   UNL     1       3.011   6.608  18.438  0.00  0.00    +0.000 C 
ATOM     10  O   UNL     1       4.078   6.758  17.852  0.00  0.00    +0.000 OA
ATOM     11  H   UNL     1       1.601   5.337  19.250  0.00  0.00    +0.000 HD
BRANCH   8  13
ATOM     12  C   UNL     1       2.640   3.460  17.185  0.00  0.00    +0.000 C 
ATOM     13  C   UNL     1       3.164   4.121  18.458  0.00  0.00    +0.000 C 
BRANCH  13  14
ATOM     14  C   UNL     1       3.177   3.212  19.689  0.00  0.00    +0.000 C 
ATOM     15  O   UNL     1       4.010   2.339  19.937  0.00  0.00    +0.000 OA
BRANCH  14  16
ATOM     16  C   UNL     1       1.969   3.318  20.622  0.00  0.00    +0.000 C 
ATOM     17  N   UNL     1       2.259   3.205  21.955  0.00  0.00    +0.000 N 
ATOM     18  O   UNL     1       0.837   3.458  20.190  0.00  0.00    +0.000 OA
ATOM     19  H   UNL     1       3.201   2.967  22.243  0.00  0.00    +0.000 HD
ATOM     20  H   UNL     1       1.504   3.183  22.625  0.00  0.00    +0.000 HD
ENDBRANCH  14  16
ENDBRANCH  13  14
ENDBRANCH   8  13
ENDBRANCH   1   9
BRANCH   5  21
ATOM     21  C   UNL     1       0.011   9.313  21.554  0.00  0.00    +0.000 C 
ATOM     22  F   UNL     1      -0.814  10.394  21.640  0.00  0.00    +0.000 F 
ATOM     23  F   UNL     1      -0.806   8.237  21.757  0.00  0.00    +0.000 F 
ATOM     24  F   UNL     1       0.807   9.390  22.660  0.00  0.00    +0.000 F 
ENDBRANCH   5  21
BRANCH   4  25
ATOM     25  O   UNL     1       0.184  11.385  19.587  0.00  0.00    +0.000 OA
BRANCH  25  26
ATOM     26  C   UNL     1      -0.405  12.059  18.462  0.00  0.00    +0.000 C 
BRANCH  26  27
ATOM     27  C   UNL     1      -1.874  11.776  18.262  0.00  0.00    +0.000 A 
ATOM     28  C   UNL     1      -2.821  12.040  19.246  0.00  0.00    +0.000 A 
ATOM     29  C   UNL     1      -4.170  11.885  18.935  0.00  0.00    +0.000 A 
ATOM     30  C   UNL     1      -4.538  11.480  17.657  0.00  0.00    +0.000 A 
ATOM     31  C   UNL     1      -3.536  11.234  16.736  0.00  0.00    +0.000 A 
ATOM     32  N   UNL     1      -2.223  11.375  17.008  0.00  0.00    +0.000 NA
ENDBRANCH  26  27
ENDBRANCH  25  26
ENDBRANCH   4  25
TORSDOF 8
ENDMDL
MODEL 9
REMARK VINA RESULT:      -7.6      3.906      5.353
REMARK  Name = 
REMARK  9 active torsions:
REMARK  status: ('A' for Active; 'I' for Inactive)
REMARK    1  A    between atoms: C_1  and  C_2
REMARK    2  A    between atoms: C_2  and  N_3
REMARK    3  A    between atoms: C_2  and  C_25
REMARK    4  A    between atoms: C_4  and  C_6
REMARK    5  A    between atoms: C_9  and  O_10
REMARK    6  A    between atoms: O_10  and  C_11
REMARK    7  A    between atoms: C_11  and  C_12
REMARK    8  A    between atoms: C_18  and  C_19
REMARK    9  A    between atoms: C_25  and  C_27
REMARK                            x       y       z     vdW  Elec       q    Type
REMARK                         _______ _______ _______ _____ _____    ______ ____
ROOT
ATOM      1  C   UNL     1       4.879   5.087  16.548  0.00  0.00    +0.000 A 
ATOM      2  C   UNL     1       4.918   6.477  16.680  0.00  0.00    +0.000 A 
ATOM      3  C   UNL     1       4.050   7.126  17.548  0.00  0.00    +0.000 A 
ATOM      4  C   UNL     1       3.132   6.402  18.318  0.00  0.00    +0.000 A 
ATOM      5  C   UNL     1       3.031   5.005  18.163  0.00  0.00    +0.000 A 
ATOM      6  C   UNL     1       3.946   4.348  17.299  0.00  0.00    +0.000 A 
ATOM      7 CL   UNL     1       3.955   2.608  17.232  0.00  0.00    +0.000 Cl
ENDROOT
BRANCH   1   9
ATOM      8  N   UNL     1       5.512   4.445  14.279  0.00  0.00    +0.000 N 
ATOM      9  C   UNL     1       5.876   4.518  15.603  0.00  0.00    +0.000 C 
ATOM     10  O   UNL     1       6.980   4.187  16.023  0.00  0.00    +0.000 OA
ATOM     11  H   UNL     1       4.569   4.702  14.015  0.00  0.00    +0.000 HD
BRANCH   8  13
ATOM     12  C   UNL     1       7.394   4.889  12.742  0.00  0.00    +0.000 C 
ATOM     13  C   UNL     1       6.377   3.869  13.250  0.00  0.00    +0.000 C 
BRANCH  13  14
ATOM     14  C   UNL     1       5.560   3.185  12.152  0.00  0.00    +0.000 C 
ATOM     15  O   UNL     1       4.428   3.503  11.786  0.00  0.00    +0.000 OA
BRANCH  14  16
ATOM     16  C   UNL     1       6.162   1.912  11.554  0.00  0.00    +0.000 C 
ATOM     17  N   UNL     1       7.500   1.986  11.271  0.00  0.00    +0.000 N 
ATOM     18  O   UNL     1       5.480   0.930  11.320  0.00  0.00    +0.000 OA
ATOM     19  H   UNL     1       7.984   2.871  11.374  0.00  0.00    +0.000 HD
ATOM     20  H   UNL     1       7.949   1.215  10.798  0.00  0.00    +0.000 HD
ENDBRANCH  14  16
ENDBRANCH  13  14
ENDBRANCH   8  13
ENDBRANCH   1   9
BRANCH   5  21
ATOM     21  C   UNL     1       1.972   4.195  18.871  0.00  0.00    +0.000 C 
ATOM     22  F   UNL     1       1.214   4.868  19.782  0.00  0.00    +0.000 F 
ATOM     23  F   UNL     1       1.068   3.664  17.995  0.00  0.00    +0.000 F 
ATOM     24  F   UNL     1       2.490   3.136  19.560  0.00  0.00    +0.000 F 
ENDBRANCH   5  21
BRANCH   4  25
ATOM     25  O   UNL     1       2.321   7.011  19.247  0.00  0.00    +0.000 OA
BRANCH  25  26
ATOM     26  C   UNL     1       1.855   8.322  18.886  0.00  0.00    +0.000 C 
BRANCH  26  27
ATOM     27  C   UNL     1       1.097   9.039  19.977  0.00  0.00    +0.000 A 
ATOM     28  C   UNL     1       0.769   8.424  21.180  0.00  0.00    +0.000 A 
ATOM     29  C   UNL     1       0.195   9.193  22.190  0.00  0.00    +0.000 A 
ATOM     30  C   UNL     1      -0.030  10.548  21.978  0.00  0.00    +0.000 A 
ATOM     31  C   UNL     1       0.320  11.084  20.752  0.00  0.00    +0.000 A 
ATOM     32  N   UNL     1       0.878  10.365  19.756  0.00  0.00    +0.000 NA
ENDBRANCH  26  27
ENDBRANCH  25  26
ENDBRANCH   4  25
TORSDOF 8
ENDMDL
