MODEL 1
REMARK VINA RESULT:      -6.8      0.000      0.000
REMARK  Name = 
REMARK  5 active torsions:
REMARK  status: ('A' for Active; 'I' for Inactive)
REMARK    1  A    between atoms: C_2  and  C_3
REMARK    2  A    between atoms: C_8  and  C_10
REMARK    3  A    between atoms: C_10  and  N_11
REMARK    4  A    between atoms: N_11  and  C_12
REMARK    5  A    between atoms: C_12  and  C_13
REMARK                            x       y       z     vdW  Elec       q    Type
REMARK                         _______ _______ _______ _____ _____    ______ ____
ROOT
ATOM      1  C   UNL     1       3.920   4.345  16.765  0.00  0.00    +0.000 C 
ENDROOT
BRANCH   1   7
ATOM      2  C   UNL     1       2.211   4.918  20.284  0.00  0.00    +0.000 C 
ATOM      3  C   UNL     1       0.867   4.221  20.485  0.00  0.00    +0.000 C 
ATOM      4  C   UNL     1       1.085   2.831  19.906  0.00  0.00    +0.000 C 
ATOM      5  C   UNL     1       1.947   3.060  18.672  0.00  0.00    +0.000 C 
ATOM      6  C   UNL     1       2.675   4.347  18.960  0.00  0.00    +0.000 C 
ATOM      7  C   UNL     1       3.541   4.923  18.102  0.00  0.00    +0.000 C 
ATOM      8  F   UNL     1       4.138   6.077  18.477  0.00  0.00    +0.000 F 
BRANCH   2  10
ATOM      9  N   UNL     1       1.911   7.683  20.255  0.00  0.00    +0.000 NA
ATOM     10  C   UNL     1       2.048   6.430  20.268  0.00  0.00    +0.000 C 
ENDBRANCH   2  10
ENDBRANCH   1   7
BRANCH   1  11
ATOM     11  N   UNL     1       5.069   3.447  16.875  0.00  0.00    +0.000 NA
ATOM     12  H   UNL     1       4.827   2.541  16.474  0.00  0.00    +0.000 HD
BRANCH  11  13
ATOM     13  C   UNL     1       6.227   3.990  16.166  0.00  0.00    +0.000 C 
BRANCH  13  14
ATOM     14  C   UNL     1       6.886   5.097  16.957  0.00  0.00    +0.000 A 
ATOM     15  C   UNL     1       6.921   6.408  16.459  0.00  0.00    +0.000 A 
ATOM     16  C   UNL     1       7.522   7.428  17.194  0.00  0.00    +0.000 A 
ATOM     17  C   UNL     1       8.091   7.143  18.432  0.00  0.00    +0.000 A 
ATOM     18  F   UNL     1       8.673   8.122  19.131  0.00  0.00    +0.000 F 
ATOM     19  C   UNL     1       8.059   5.854  18.950  0.00  0.00    +0.000 A 
ATOM     20  C   UNL     1       7.454   4.833  18.218  0.00  0.00    +0.000 A 
ENDBRANCH  13  14
ENDBRANCH  11  13
ENDBRANCH   1  11
TORSDOF 5
ENDMDL
MODEL 2
REMARK VINA RESULT:      -6.7      0.131      1.117
REMARK  Name = 
REMARK  5 active torsions:
REMARK  status: ('A' for Active; 'I' for Inactive)
REMARK    1  A    between atoms: C_2  and  C_3
REMARK    2  A    between atoms: C_8  and  C_10
REMARK    3  A    between atoms: C_10  and  N_11
REMARK    4  A    between atoms: N_11  and  C_12
REMARK    5  A    between atoms: C_12  and  C_13
REMARK                            x       y       z     vdW  Elec       q    Type
REMARK                         _______ _______ _______ _____ _____    ______ ____
ROOT
ATOM      1  C   UNL     1       4.015   4.495  16.819  0.00  0.00    +0.000 C 
ENDROOT
BRANCH   1   7
ATOM      2  C   UNL     1       2.233   4.934  20.320  0.00  0.00    +0.000 C 
ATOM      3  C   UNL     1       0.914   4.183  20.488  0.00  0.00    +0.000 C 
ATOM      4  C   UNL     1       1.193   2.814  19.885  0.00  0.00    +0.000 C 
ATOM      5  C   UNL     1       2.065   3.099  18.670  0.00  0.00    +0.000 C 
ATOM      6  C   UNL     1       2.739   4.407  18.994  0.00  0.00    +0.000 C 
ATOM      7  C   UNL     1       3.595   5.032  18.161  0.00  0.00    +0.000 C 
ATOM      8  F   UNL     1       4.141   6.200  18.567  0.00  0.00    +0.000 F 
BRANCH   2  10
ATOM      9  N   UNL     1       1.830   7.686  20.340  0.00  0.00    +0.000 NA
ATOM     10  C   UNL     1       2.013   6.438  20.332  0.00  0.00    +0.000 C 
ENDBRANCH   2  10
ENDBRANCH   1   7
BRANCH   1  11
ATOM     11  N   UNL     1       5.105   3.528  16.946  0.00  0.00    +0.000 NA
ATOM     12  H   UNL     1       4.821   2.643  16.525  0.00  0.00    +0.000 HD
BRANCH  11  13
ATOM     13  C   UNL     1       6.313   4.010  16.276  0.00  0.00    +0.000 C 
BRANCH  13  14
ATOM     14  C   UNL     1       6.938   5.161  17.031  0.00  0.00    +0.000 A 
ATOM     15  C   UNL     1       7.468   4.969  18.316  0.00  0.00    +0.000 A 
ATOM     16  C   UNL     1       8.050   6.030  19.007  0.00  0.00    +0.000 A 
ATOM     17  C   UNL     1       8.106   7.289  18.417  0.00  0.00    +0.000 A 
ATOM     18  F   UNL     1       8.658   8.306  19.084  0.00  0.00    +0.000 F 
ATOM     19  C   UNL     1       7.596   7.500  17.141  0.00  0.00    +0.000 A 
ATOM     20  C   UNL     1       7.018   6.439  16.446  0.00  0.00    +0.000 A 
ENDBRANCH  13  14
ENDBRANCH  11  13
ENDBRANCH   1  11
TORSDOF 5
ENDMDL
MODEL 3
REMARK VINA RESULT:      -6.7      1.648      2.437
REMARK  Name = 
REMARK  5 active torsions:
REMARK  status: ('A' for Active; 'I' for Inactive)
REMARK    1  A    between atoms: C_2  and  C_3
REMARK    2  A    between atoms: C_8  and  C_10
REMARK    3  A    between atoms: C_10  and  N_11
REMARK    4  A    between atoms: N_11  and  C_12
REMARK    5  A    between atoms: C_12  and  C_13
REMARK                            x       y       z     vdW  Elec       q    Type
REMARK                         _______ _______ _______ _____ _____    ______ ____
ROOT
ATOM      1  C   UNL     1       3.910   3.708  16.992  0.00  0.00    +0.000 C 
ENDROOT
BRANCH   1   7
ATOM      2  C   UNL     1       1.706   4.827  20.077  0.00  0.00    +0.000 C 
ATOM      3  C   UNL     1       2.048   6.192  20.671  0.00  0.00    +0.000 C 
ATOM      4  C   UNL     1       2.250   7.082  19.453  0.00  0.00    +0.000 C 
ATOM      5  C   UNL     1       2.964   6.193  18.444  0.00  0.00    +0.000 C 
ATOM      6  C   UNL     1       2.565   4.793  18.831  0.00  0.00    +0.000 C 
ATOM      7  C   UNL     1       3.000   3.689  18.191  0.00  0.00    +0.000 C 
ATOM      8  F   UNL     1       2.566   2.486  18.630  0.00  0.00    +0.000 F 
BRANCH   2  10
ATOM      9  N   UNL     1       2.274   2.782  21.874  0.00  0.00    +0.000 NA
ATOM     10  C   UNL     1       2.016   3.709  21.059  0.00  0.00    +0.000 C 
ENDBRANCH   2  10
ENDBRANCH   1   7
BRANCH   1  11
ATOM     11  N   UNL     1       5.273   3.314  17.348  0.00  0.00    +0.000 NA
ATOM     12  H   UNL     1       5.364   2.302  17.261  0.00  0.00    +0.000 HD
BRANCH  11  13
ATOM     13  C   UNL     1       6.249   3.959  16.469  0.00  0.00    +0.000 C 
BRANCH  13  14
ATOM     14  C   UNL     1       6.894   5.148  17.144  0.00  0.00    +0.000 A 
ATOM     15  C   UNL     1       7.412   5.038  18.444  0.00  0.00    +0.000 A 
ATOM     16  C   UNL     1       8.013   6.133  19.061  0.00  0.00    +0.000 A 
ATOM     17  C   UNL     1       8.099   7.345  18.383  0.00  0.00    +0.000 A 
ATOM     18  F   UNL     1       8.669   8.396  18.980  0.00  0.00    +0.000 F 
ATOM     19  C   UNL     1       7.601   7.475  17.091  0.00  0.00    +0.000 A 
ATOM     20  C   UNL     1       7.004   6.379  16.470  0.00  0.00    +0.000 A 
ENDBRANCH  13  14
ENDBRANCH  11  13
ENDBRANCH   1  11
TORSDOF 5
ENDMDL
MODEL 4
REMARK VINA RESULT:      -6.5      2.221      5.699
REMARK  Name = 
REMARK  5 active torsions:
REMARK  status: ('A' for Active; 'I' for Inactive)
REMARK    1  A    between atoms: C_2  and  C_3
REMARK    2  A    between atoms: C_8  and  C_10
REMARK    3  A    between atoms: C_10  and  N_11
REMARK    4  A    between atoms: N_11  and  C_12
REMARK    5  A    between atoms: C_12  and  C_13
REMARK                            x       y       z     vdW  Elec       q    Type
REMARK                         _______ _______ _______ _____ _____    ______ ____
ROOT
ATOM      1  C   UNL     1       2.913   6.666  18.044  0.00  0.00    +0.000 C 
ENDROOT
BRANCH   1   7
ATOM      2  C   UNL     1       6.483   6.009  16.479  0.00  0.00    +0.000 C 
ATOM      3  C   UNL     1       6.888   4.542  16.353  0.00  0.00    +0.000 C 
ATOM      4  C   UNL     1       5.634   3.859  15.828  0.00  0.00    +0.000 C 
ATOM      5  C   UNL     1       4.488   4.549  16.556  0.00  0.00    +0.000 C 
ATOM      6  C   UNL     1       5.034   5.908  16.907  0.00  0.00    +0.000 C 
ATOM      7  C   UNL     1       4.334   6.842  17.582  0.00  0.00    +0.000 C 
ATOM      8  F   UNL     1       4.932   8.029  17.833  0.00  0.00    +0.000 F 
BRANCH   2  10
ATOM      9  N   UNL     1       8.092   7.340  18.316  0.00  0.00    +0.000 NA
ATOM     10  C   UNL     1       7.363   6.737  17.483  0.00  0.00    +0.000 C 
ENDBRANCH   2  10
ENDBRANCH   1   7
BRANCH   1  11
ATOM     11  N   UNL     1       2.821   6.649  19.504  0.00  0.00    +0.000 NA
ATOM     12  H   UNL     1       2.442   7.539  19.827  0.00  0.00    +0.000 HD
BRANCH  11  13
ATOM     13  C   UNL     1       1.953   5.564  19.961  0.00  0.00    +0.000 C 
BRANCH  13  14
ATOM     14  C   UNL     1       2.482   4.217  19.527  0.00  0.00    +0.000 A 
ATOM     15  C   UNL     1       3.720   3.751  19.995  0.00  0.00    +0.000 A 
ATOM     16  C   UNL     1       4.203   2.504  19.600  0.00  0.00    +0.000 A 
ATOM     17  C   UNL     1       3.450   1.717  18.734  0.00  0.00    +0.000 A 
ATOM     18  F   UNL     1       3.918   0.525  18.350  0.00  0.00    +0.000 F 
ATOM     19  C   UNL     1       2.216   2.154  18.266  0.00  0.00    +0.000 A 
ATOM     20  C   UNL     1       1.730   3.398  18.664  0.00  0.00    +0.000 A 
ENDBRANCH  13  14
ENDBRANCH  11  13
ENDBRANCH   1  11
TORSDOF 5
ENDMDL
MODEL 5
REMARK VINA RESULT:      -6.5      2.280      3.029
REMARK  Name = 
REMARK  5 active torsions:
REMARK  status: ('A' for Active; 'I' for Inactive)
REMARK    1  A    between atoms: C_2  and  C_3
REMARK    2  A    between atoms: C_8  and  C_10
REMARK    3  A    between atoms: C_10  and  N_11
REMARK    4  A    between atoms: N_11  and  C_12
REMARK    5  A    between atoms: C_12  and  C_13
REMARK                            x       y       z     vdW  Elec       q    Type
REMARK                         _______ _______ _______ _____ _____    ______ ____
ROOT
ATOM      1  C   UNL     1       2.241   6.271  18.232  0.00  0.00    +0.000 C 
ENDROOT
BRANCH   1   7
ATOM      2  C   UNL     1       3.317   2.818  19.829  0.00  0.00    +0.000 C 
ATOM      3  C   UNL     1       3.051   1.583  18.970  0.00  0.00    +0.000 C 
ATOM      4  C   UNL     1       3.491   2.005  17.576  0.00  0.00    +0.000 C 
ATOM      5  C   UNL     1       3.044   3.456  17.454  0.00  0.00    +0.000 C 
ATOM      6  C   UNL     1       2.992   3.950  18.876  0.00  0.00    +0.000 C 
ATOM      7  C   UNL     1       2.619   5.199  19.219  0.00  0.00    +0.000 C 
ATOM      8  F   UNL     1       2.618   5.527  20.531  0.00  0.00    +0.000 F 
BRANCH   2  10
ATOM      9  N   UNL     1       1.737   2.806  22.118  0.00  0.00    +0.000 NA
ATOM     10  C   UNL     1       2.454   2.811  21.080  0.00  0.00    +0.000 C 
ENDBRANCH   2  10
ENDBRANCH   1   7
BRANCH   1  11
ATOM     11  N   UNL     1       3.290   7.283  18.112  0.00  0.00    +0.000 NA
ATOM     12  H   UNL     1       3.913   7.219  18.918  0.00  0.00    +0.000 HD
BRANCH  11  13
ATOM     13  C   UNL     1       4.069   7.088  16.889  0.00  0.00    +0.000 C 
BRANCH  13  14
ATOM     14  C   UNL     1       5.294   6.242  17.148  0.00  0.00    +0.000 A 
ATOM     15  C   UNL     1       5.834   5.437  16.133  0.00  0.00    +0.000 A 
ATOM     16  C   UNL     1       6.969   4.664  16.372  0.00  0.00    +0.000 A 
ATOM     17  C   UNL     1       7.570   4.692  17.627  0.00  0.00    +0.000 A 
ATOM     18  F   UNL     1       8.654   3.944  17.856  0.00  0.00    +0.000 F 
ATOM     19  C   UNL     1       7.058   5.489  18.644  0.00  0.00    +0.000 A 
ATOM     20  C   UNL     1       5.926   6.266  18.406  0.00  0.00    +0.000 A 
ENDBRANCH  13  14
ENDBRANCH  11  13
ENDBRANCH   1  11
TORSDOF 5
ENDMDL
MODEL 6
REMARK VINA RESULT:      -6.4      2.343      5.339
REMARK  Name = 
REMARK  5 active torsions:
REMARK  status: ('A' for Active; 'I' for Inactive)
REMARK    1  A    between atoms: C_2  and  C_3
REMARK    2  A    between atoms: C_8  and  C_10
REMARK    3  A    between atoms: C_10  and  N_11
REMARK    4  A    between atoms: N_11  and  C_12
REMARK    5  A    between atoms: C_12  and  C_13
REMARK                            x       y       z     vdW  Elec       q    Type
REMARK                         _______ _______ _______ _____ _____    ______ ____
ROOT
ATOM      1  C   UNL     1       3.896   2.321  18.091  0.00  0.00    +0.000 C 
ENDROOT
BRANCH   1   7
ATOM      2  C   UNL     1       6.070   5.613  17.849  0.00  0.00    +0.000 C 
ATOM      3  C   UNL     1       6.912   5.755  16.582  0.00  0.00    +0.000 C 
ATOM      4  C   UNL     1       5.973   5.319  15.467  0.00  0.00    +0.000 C 
ATOM      5  C   UNL     1       5.194   4.151  16.056  0.00  0.00    +0.000 C 
ATOM      6  C   UNL     1       5.232   4.390  17.543  0.00  0.00    +0.000 C 
ATOM      7  C   UNL     1       4.665   3.565  18.447  0.00  0.00    +0.000 C 
ATOM      8  F   UNL     1       4.762   3.889  19.756  0.00  0.00    +0.000 F 
BRANCH   2  10
ATOM      9  N   UNL     1       7.682   5.320  20.097  0.00  0.00    +0.000 NA
ATOM     10  C   UNL     1       6.952   5.453  19.078  0.00  0.00    +0.000 C 
ENDBRANCH   2  10
ENDBRANCH   1   7
BRANCH   1  11
ATOM     11  N   UNL     1       2.632   2.643  17.429  0.00  0.00    +0.000 NA
ATOM     12  H   UNL     1       2.329   1.841  16.875  0.00  0.00    +0.000 HD
BRANCH  11  13
ATOM     13  C   UNL     1       1.595   2.968  18.408  0.00  0.00    +0.000 C 
BRANCH  13  14
ATOM     14  C   UNL     1       1.732   4.390  18.902  0.00  0.00    +0.000 A 
ATOM     15  C   UNL     1       1.585   4.690  20.264  0.00  0.00    +0.000 A 
ATOM     16  C   UNL     1       1.720   6.001  20.718  0.00  0.00    +0.000 A 
ATOM     17  C   UNL     1       2.003   7.019  19.812  0.00  0.00    +0.000 A 
ATOM     18  F   UNL     1       2.124   8.276  20.249  0.00  0.00    +0.000 F 
ATOM     19  C   UNL     1       2.163   6.743  18.459  0.00  0.00    +0.000 A 
ATOM     20  C   UNL     1       2.033   5.432  18.004  0.00  0.00    +0.000 A 
ENDBRANCH  13  14
ENDBRANCH  11  13
ENDBRANCH   1  11
TORSDOF 5
ENDMDL
MODEL 7
REMARK VINA RESULT:      -6.4      2.401      5.605
REMARK  Name = 
REMARK  5 active torsions:
REMARK  status: ('A' for Active; 'I' for Inactive)
REMARK    1  A    between atoms: C_2  and  C_3
REMARK    2  A    between atoms: C_8  and  C_10
REMARK    3  A    between atoms: C_10  and  N_11
REMARK    4  A    between atoms: N_11  and  C_12
REMARK    5  A    between atoms: C_12  and  C_13
REMARK                            x       y       z     vdW  Elec       q    Type
REMARK                         _______ _______ _______ _____ _____    ______ ____
ROOT
ATOM      1  C   UNL     1       4.041   3.576  19.068  0.00  0.00    +0.000 C 
ENDROOT
BRANCH   1   7
ATOM      2  C   UNL     1       6.722   5.633  17.017  0.00  0.00    +0.000 C 
ATOM      3  C   UNL     1       7.509   6.671  17.815  0.00  0.00    +0.000 C 
ATOM      4  C   UNL     1       7.855   5.952  19.110  0.00  0.00    +0.000 C 
ATOM      5  C   UNL     1       6.616   5.130  19.436  0.00  0.00    +0.000 C 
ATOM      6  C   UNL     1       5.955   4.906  18.101  0.00  0.00    +0.000 C 
ATOM      7  C   UNL     1       4.801   4.227  17.944  0.00  0.00    +0.000 C 
ATOM      8  F   UNL     1       4.309   4.088  16.692  0.00  0.00    +0.000 F 
BRANCH   2  10
ATOM      9  N   UNL     1       5.086   6.852  15.127  0.00  0.00    +0.000 NA
ATOM     10  C   UNL     1       5.828   6.299  15.983  0.00  0.00    +0.000 C 
ENDBRANCH   2  10
ENDBRANCH   1   7
BRANCH   1  11
ATOM     11  N   UNL     1       2.733   4.201  19.262  0.00  0.00    +0.000 NA
ATOM     12  H   UNL     1       2.065   3.493  19.571  0.00  0.00    +0.000 HD
BRANCH  11  13
ATOM     13  C   UNL     1       2.803   5.262  20.267  0.00  0.00    +0.000 C 
BRANCH  13  14
ATOM     14  C   UNL     1       2.430   6.602  19.676  0.00  0.00    +0.000 A 
ATOM     15  C   UNL     1       1.700   7.535  20.428  0.00  0.00    +0.000 A 
ATOM     16  C   UNL     1       1.363   8.774  19.884  0.00  0.00    +0.000 A 
ATOM     17  C   UNL     1       1.755   9.086  18.585  0.00  0.00    +0.000 A 
ATOM     18  F   UNL     1       1.425  10.271  18.064  0.00  0.00    +0.000 F 
ATOM     19  C   UNL     1       2.487   8.180  17.826  0.00  0.00    +0.000 A 
ATOM     20  C   UNL     1       2.828   6.943  18.370  0.00  0.00    +0.000 A 
ENDBRANCH  13  14
ENDBRANCH  11  13
ENDBRANCH   1  11
TORSDOF 5
ENDMDL
MODEL 8
REMARK VINA RESULT:      -6.4      2.262      6.320
REMARK  Name = 
REMARK  5 active torsions:
REMARK  status: ('A' for Active; 'I' for Inactive)
REMARK    1  A    between atoms: C_2  and  C_3
REMARK    2  A    between atoms: C_8  and  C_10
REMARK    3  A    between atoms: C_10  and  N_11
REMARK    4  A    between atoms: N_11  and  C_12
REMARK    5  A    between atoms: C_12  and  C_13
REMARK                            x       y       z     vdW  Elec       q    Type
REMARK                         _______ _______ _______ _____ _____    ______ ____
ROOT
ATOM      1  C   UNL     1       4.132   7.696  17.513  0.00  0.00    +0.000 C 
ENDROOT
BRANCH   1   7
ATOM      2  C   UNL     1       6.562   4.686  16.700  0.00  0.00    +0.000 C 
ATOM      3  C   UNL     1       7.719   4.490  17.677  0.00  0.00    +0.000 C 
ATOM      4  C   UNL     1       7.077   4.667  19.045  0.00  0.00    +0.000 C 
ATOM      5  C   UNL     1       6.074   5.797  18.855  0.00  0.00    +0.000 C 
ATOM      6  C   UNL     1       5.735   5.752  17.388  0.00  0.00    +0.000 C 
ATOM      7  C   UNL     1       4.881   6.608  16.792  0.00  0.00    +0.000 C 
ATOM      8  F   UNL     1       4.653   6.463  15.467  0.00  0.00    +0.000 F 
BRANCH   2  10
ATOM      9  N   UNL     1       7.488   5.448  14.190  0.00  0.00    +0.000 NA
ATOM     10  C   UNL     1       7.068   5.103  15.328  0.00  0.00    +0.000 C 
ENDBRANCH   2  10
ENDBRANCH   1   7
BRANCH   1  11
ATOM     11  N   UNL     1       2.738   7.321  17.749  0.00  0.00    +0.000 NA
ATOM     12  H   UNL     1       2.471   6.588  17.092  0.00  0.00    +0.000 HD
BRANCH  11  13
ATOM     13  C   UNL     1       2.553   6.829  19.114  0.00  0.00    +0.000 C 
BRANCH  13  14
ATOM     14  C   UNL     1       2.081   5.393  19.121  0.00  0.00    +0.000 A 
ATOM     15  C   UNL     1       1.584   4.809  20.296  0.00  0.00    +0.000 A 
ATOM     16  C   UNL     1       1.142   3.487  20.297  0.00  0.00    +0.000 A 
ATOM     17  C   UNL     1       1.195   2.742  19.123  0.00  0.00    +0.000 A 
ATOM     18  F   UNL     1       0.778   1.472  19.128  0.00  0.00    +0.000 F 
ATOM     19  C   UNL     1       1.675   3.302  17.945  0.00  0.00    +0.000 A 
ATOM     20  C   UNL     1       2.112   4.626  17.941  0.00  0.00    +0.000 A 
ENDBRANCH  13  14
ENDBRANCH  11  13
ENDBRANCH   1  11
TORSDOF 5
ENDMDL
MODEL 9
REMARK VINA RESULT:      -6.3      2.234      6.209
REMARK  Name = 
REMARK  5 active torsions:
REMARK  status: ('A' for Active; 'I' for Inactive)
REMARK    1  A    between atoms: C_2  and  C_3
REMARK    2  A    between atoms: C_8  and  C_10
REMARK    3  A    between atoms: C_10  and  N_11
REMARK    4  A    between atoms: N_11  and  C_12
REMARK    5  A    between atoms: C_12  and  C_13
REMARK                            x       y       z     vdW  Elec       q    Type
REMARK                         _______ _______ _______ _____ _____    ______ ____
ROOT
ATOM      1  C   UNL     1       3.926   7.528  17.463  0.00  0.00    +0.000 C 
ENDROOT
BRANCH   1   7
ATOM      2  C   UNL     1       6.606   4.675  16.914  0.00  0.00    +0.000 C 
ATOM      3  C   UNL     1       7.761   4.653  17.914  0.00  0.00    +0.000 C 
ATOM      4  C   UNL     1       7.085   4.884  19.258  0.00  0.00    +0.000 C 
ATOM      5  C   UNL     1       5.996   5.909  18.969  0.00  0.00    +0.000 C 
ATOM      6  C   UNL     1       5.685   5.719  17.508  0.00  0.00    +0.000 C 
ATOM      7  C   UNL     1       4.773   6.453  16.838  0.00  0.00    +0.000 C 
ATOM      8  F   UNL     1       4.578   6.185  15.527  0.00  0.00    +0.000 F 
BRANCH   2  10
ATOM      9  N   UNL     1       7.504   5.311  14.359  0.00  0.00    +0.000 NA
ATOM     10  C   UNL     1       7.098   5.022  15.518  0.00  0.00    +0.000 C 
ENDBRANCH   2  10
ENDBRANCH   1   7
BRANCH   1  11
ATOM     11  N   UNL     1       2.774   6.963  18.166  0.00  0.00    +0.000 NA
ATOM     12  H   UNL     1       1.946   7.521  17.956  0.00  0.00    +0.000 HD
BRANCH  11  13
ATOM     13  C   UNL     1       2.536   5.580  17.753  0.00  0.00    +0.000 C 
BRANCH  13  14
ATOM     14  C   UNL     1       2.148   4.715  18.930  0.00  0.00    +0.000 A 
ATOM     15  C   UNL     1       2.583   5.034  20.225  0.00  0.00    +0.000 A 
ATOM     16  C   UNL     1       2.217   4.239  21.310  0.00  0.00    +0.000 A 
ATOM     17  C   UNL     1       1.415   3.121  21.106  0.00  0.00    +0.000 A 
ATOM     18  F   UNL     1       1.072   2.356  22.147  0.00  0.00    +0.000 F 
ATOM     19  C   UNL     1       0.964   2.791  19.833  0.00  0.00    +0.000 A 
ATOM     20  C   UNL     1       1.325   3.588  18.747  0.00  0.00    +0.000 A 
ENDBRANCH  13  14
ENDBRANCH  11  13
ENDBRANCH   1  11
TORSDOF 5
ENDMDL
