MODEL 1
REMARK VINA RESULT:      -8.0      0.000      0.000
REMARK  Name = 
REMARK  6 active torsions:
REMARK  status: ('A' for Active; 'I' for Inactive)
REMARK    1  A    between atoms: C_2  and  O_3
REMARK    2  A    between atoms: C_2  and  C_4
REMARK    3  A    between atoms: C_4  and  N_5
REMARK    4  A    between atoms: C_8  and  C_9
REMARK    5  A    between atoms: C_9  and  N_10
REMARK    6  A    between atoms: C_11  and  C_13
REMARK                            x       y       z     vdW  Elec       q    Type
REMARK                         _______ _______ _______ _____ _____    ______ ____
ROOT
ATOM      1  N   UNL     1       1.947   7.692  20.885  0.00  0.00    +0.000 N 
ATOM      2  C   UNL     1       2.261   7.551  19.535  0.00  0.00    +0.000 C 
ATOM      3  O   UNL     1       2.115   8.457  18.730  0.00  0.00    +0.000 OA
ATOM      4  H   UNL     1       2.089   6.894  21.484  0.00  0.00    +0.000 HD
ENDROOT
BRANCH   2   5
ATOM      5  C   UNL     1       2.798   6.239  19.172  0.00  0.00    +0.000 A 
ATOM      6  C   UNL     1       2.540   5.034  19.817  0.00  0.00    +0.000 A 
ATOM      7  N   UNL     1       3.283   4.059  19.193  0.00  0.00    +0.000 N 
ATOM      8  C   UNL     1       3.964   4.567  18.114  0.00  0.00    +0.000 A 
ATOM      9  C   UNL     1       4.800   3.939  17.179  0.00  0.00    +0.000 A 
ATOM     10  C   UNL     1       5.375   4.724  16.177  0.00  0.00    +0.000 A 
ATOM     11  C   UNL     1       5.129   6.092  16.117  0.00  0.00    +0.000 A 
ATOM     12  C   UNL     1       4.296   6.708  17.058  0.00  0.00    +0.000 A 
ATOM     13  C   UNL     1       3.685   5.939  18.075  0.00  0.00    +0.000 A 
ATOM     14  C   UNL     1       3.330   2.684  19.656  0.00  0.00    +0.000 C 
ATOM     15  C   UNL     1       2.783   2.575  21.069  0.00  0.00    +0.000 C 
ATOM     16  C   UNL     1       1.514   3.404  21.167  0.00  0.00    +0.000 C 
ATOM     17  O   UNL     1       1.775   4.782  20.885  0.00  0.00    +0.000 OA
ENDBRANCH   2   5
BRANCH   1  18
ATOM     18  C   UNL     1       1.385   8.904  21.438  0.00  0.00    +0.000 C 
BRANCH  18  22
ATOM     19  N   UNL     1      -1.025  11.740  21.769  0.00  0.00    +0.000 NA
ATOM     20  C   UNL     1      -0.412  11.298  20.498  0.00  0.00    +0.000 C 
ATOM     21  C   UNL     1      -0.679   9.805  20.244  0.00  0.00    +0.000 C 
ATOM     22  C   UNL     1      -0.156   8.910  21.380  0.00  0.00    +0.000 C 
ATOM     23  C   UNL     1      -0.789   9.410  22.683  0.00  0.00    +0.000 C 
ATOM     24  C   UNL     1      -0.511  10.903  22.896  0.00  0.00    +0.000 C 
BRANCH  19  25
ATOM     25  C   UNL     1      -0.692  13.166  22.070  0.00  0.00    +0.000 C 
BRANCH  25  27
ATOM     26  O   UNL     1      -0.790  14.286  24.215  0.00  0.00    +0.000 OA
ATOM     27  C   UNL     1      -1.400  13.773  23.283  0.00  0.00    +0.000 C 
BRANCH  27  28
ATOM     28  O   UNL     1      -2.747  13.645  23.313  0.00  0.00    +0.000 OA
ATOM     29  H   UNL     1      -3.020  12.849  23.809  0.00  0.00    +0.000 HD
ENDBRANCH  27  28
ENDBRANCH  25  27
ENDBRANCH  19  25
ENDBRANCH  18  22
ENDBRANCH   1  18
TORSDOF 6
ENDMDL
MODEL 2
REMARK VINA RESULT:      -7.9      1.211      3.045
REMARK  Name = 
REMARK  6 active torsions:
REMARK  status: ('A' for Active; 'I' for Inactive)
REMARK    1  A    between atoms: C_2  and  O_3
REMARK    2  A    between atoms: C_2  and  C_4
REMARK    3  A    between atoms: C_4  and  N_5
REMARK    4  A    between atoms: C_8  and  C_9
REMARK    5  A    between atoms: C_9  and  N_10
REMARK    6  A    between atoms: C_11  and  C_13
REMARK                            x       y       z     vdW  Elec       q    Type
REMARK                         _______ _______ _______ _____ _____    ______ ____
ROOT
ATOM      1  N   UNL     1       2.018   7.504  20.385  0.00  0.00    +0.000 N 
ATOM      2  C   UNL     1       2.234   7.396  19.013  0.00  0.00    +0.000 C 
ATOM      3  O   UNL     1       2.036   8.324  18.243  0.00  0.00    +0.000 OA
ATOM      4  H   UNL     1       2.198   6.690  20.951  0.00  0.00    +0.000 HD
ENDROOT
BRANCH   2   5
ATOM      5  C   UNL     1       2.736   6.092  18.579  0.00  0.00    +0.000 A 
ATOM      6  C   UNL     1       3.811   5.864  17.726  0.00  0.00    +0.000 A 
ATOM      7  N   UNL     1       3.910   4.505  17.536  0.00  0.00    +0.000 N 
ATOM      8  C   UNL     1       2.986   3.827  18.291  0.00  0.00    +0.000 A 
ATOM      9  C   UNL     1       2.753   2.452  18.440  0.00  0.00    +0.000 A 
ATOM     10  C   UNL     1       1.717   2.046  19.283  0.00  0.00    +0.000 A 
ATOM     11  C   UNL     1       0.934   2.983  19.950  0.00  0.00    +0.000 A 
ATOM     12  C   UNL     1       1.174   4.353  19.791  0.00  0.00    +0.000 A 
ATOM     13  C   UNL     1       2.226   4.797  18.957  0.00  0.00    +0.000 A 
ATOM     14  C   UNL     1       4.872   3.903  16.629  0.00  0.00    +0.000 C 
ATOM     15  C   UNL     1       5.450   4.948  15.690  0.00  0.00    +0.000 C 
ATOM     16  C   UNL     1       5.785   6.194  16.491  0.00  0.00    +0.000 C 
ATOM     17  O   UNL     1       4.616   6.738  17.112  0.00  0.00    +0.000 OA
ENDBRANCH   2   5
BRANCH   1  18
ATOM     18  C   UNL     1       1.505   8.704  21.007  0.00  0.00    +0.000 C 
BRANCH  18  22
ATOM     19  N   UNL     1      -0.829  11.516  21.788  0.00  0.00    +0.000 NA
ATOM     20  C   UNL     1      -0.272  11.229  20.448  0.00  0.00    +0.000 C 
ATOM     21  C   UNL     1      -0.580   9.785  20.017  0.00  0.00    +0.000 C 
ATOM     22  C   UNL     1      -0.037   8.744  21.010  0.00  0.00    +0.000 C 
ATOM     23  C   UNL     1      -0.612   9.085  22.389  0.00  0.00    +0.000 C 
ATOM     24  C   UNL     1      -0.293  10.534  22.779  0.00  0.00    +0.000 C 
BRANCH  19  25
ATOM     25  C   UNL     1      -0.455  12.886  22.253  0.00  0.00    +0.000 C 
BRANCH  25  27
ATOM     26  O   UNL     1      -0.966  14.355  24.110  0.00  0.00    +0.000 OA
ATOM     27  C   UNL     1      -1.357  13.492  23.330  0.00  0.00    +0.000 C 
BRANCH  27  28
ATOM     28  O   UNL     1      -2.600  12.968  23.431  0.00  0.00    +0.000 OA
ATOM     29  H   UNL     1      -2.871  12.528  22.601  0.00  0.00    +0.000 HD
ENDBRANCH  27  28
ENDBRANCH  25  27
ENDBRANCH  19  25
ENDBRANCH  18  22
ENDBRANCH   1  18
TORSDOF 6
ENDMDL
MODEL 3
REMARK VINA RESULT:      -7.8      1.391      1.552
REMARK  Name = 
REMARK  6 active torsions:
REMARK  status: ('A' for Active; 'I' for Inactive)
REMARK    1  A    between atoms: C_2  and  O_3
REMARK    2  A    between atoms: C_2  and  C_4
REMARK    3  A    between atoms: C_4  and  N_5
REMARK    4  A    between atoms: C_8  and  C_9
REMARK    5  A    between atoms: C_9  and  N_10
REMARK    6  A    between atoms: C_11  and  C_13
REMARK                            x       y       z     vdW  Elec       q    Type
REMARK                         _______ _______ _______ _____ _____    ______ ____
ROOT
ATOM      1  N   UNL     1       1.891   7.477  20.683  0.00  0.00    +0.000 N 
ATOM      2  C   UNL     1       2.213   7.482  19.328  0.00  0.00    +0.000 C 
ATOM      3  O   UNL     1       2.153   8.492  18.644  0.00  0.00    +0.000 OA
ATOM      4  H   UNL     1       1.959   6.600  21.176  0.00  0.00    +0.000 HD
ENDROOT
BRANCH   2   5
ATOM      5  C   UNL     1       2.650   6.187  18.804  0.00  0.00    +0.000 A 
ATOM      6  C   UNL     1       2.184   4.938  19.198  0.00  0.00    +0.000 A 
ATOM      7  N   UNL     1       2.893   3.989  18.499  0.00  0.00    +0.000 N 
ATOM      8  C   UNL     1       3.758   4.571  17.605  0.00  0.00    +0.000 A 
ATOM      9  C   UNL     1       4.635   3.999  16.672  0.00  0.00    +0.000 A 
ATOM     10  C   UNL     1       5.414   4.855  15.890  0.00  0.00    +0.000 A 
ATOM     11  C   UNL     1       5.325   6.235  16.042  0.00  0.00    +0.000 A 
ATOM     12  C   UNL     1       4.448   6.793  16.979  0.00  0.00    +0.000 A 
ATOM     13  C   UNL     1       3.634   5.956  17.774  0.00  0.00    +0.000 A 
ATOM     14  C   UNL     1       2.734   2.562  18.719  0.00  0.00    +0.000 C 
ATOM     15  C   UNL     1       2.001   2.300  20.024  0.00  0.00    +0.000 C 
ATOM     16  C   UNL     1       0.826   3.256  20.125  0.00  0.00    +0.000 C 
ATOM     17  O   UNL     1       1.266   4.618  20.117  0.00  0.00    +0.000 OA
ENDBRANCH   2   5
BRANCH   1  18
ATOM     18  C   UNL     1       1.419   8.650  21.383  0.00  0.00    +0.000 C 
BRANCH  18  22
ATOM     19  N   UNL     1      -0.773  11.665  21.654  0.00  0.00    +0.000 NA
ATOM     20  C   UNL     1      -0.220  11.135  20.389  0.00  0.00    +0.000 C 
ATOM     21  C   UNL     1      -0.599   9.657  20.194  0.00  0.00    +0.000 C 
ATOM     22  C   UNL     1      -0.118   8.767  21.352  0.00  0.00    +0.000 C 
ATOM     23  C   UNL     1      -0.687   9.357  22.648  0.00  0.00    +0.000 C 
ATOM     24  C   UNL     1      -0.297  10.833  22.801  0.00  0.00    +0.000 C 
BRANCH  19  25
ATOM     25  C   UNL     1      -0.332  13.073  21.896  0.00  0.00    +0.000 C 
BRANCH  25  27
ATOM     26  O   UNL     1       0.746  14.242  20.069  0.00  0.00    +0.000 OA
ATOM     27  C   UNL     1       0.867  13.545  21.071  0.00  0.00    +0.000 C 
BRANCH  27  28
ATOM     28  O   UNL     1       2.078  13.086  21.463  0.00  0.00    +0.000 OA
ATOM     29  H   UNL     1       2.287  13.364  22.377  0.00  0.00    +0.000 HD
ENDBRANCH  27  28
ENDBRANCH  25  27
ENDBRANCH  19  25
ENDBRANCH  18  22
ENDBRANCH   1  18
TORSDOF 6
ENDMDL
MODEL 4
REMARK VINA RESULT:      -7.7      1.251      1.302
REMARK  Name = 
REMARK  6 active torsions:
REMARK  status: ('A' for Active; 'I' for Inactive)
REMARK    1  A    between atoms: C_2  and  O_3
REMARK    2  A    between atoms: C_2  and  C_4
REMARK    3  A    between atoms: C_4  and  N_5
REMARK    4  A    between atoms: C_8  and  C_9
REMARK    5  A    between atoms: C_9  and  N_10
REMARK    6  A    between atoms: C_11  and  C_13
REMARK                            x       y       z     vdW  Elec       q    Type
REMARK                         _______ _______ _______ _____ _____    ______ ____
ROOT
ATOM      1  N   UNL     1       1.851   7.632  20.749  0.00  0.00    +0.000 N 
ATOM      2  C   UNL     1       2.201   7.601  19.401  0.00  0.00    +0.000 C 
ATOM      3  O   UNL     1       2.165   8.594  18.691  0.00  0.00    +0.000 OA
ATOM      4  H   UNL     1       1.901   6.768  21.264  0.00  0.00    +0.000 HD
ENDROOT
BRANCH   2   5
ATOM      5  C   UNL     1       2.635   6.290  18.917  0.00  0.00    +0.000 A 
ATOM      6  C   UNL     1       2.202   5.053  19.384  0.00  0.00    +0.000 A 
ATOM      7  N   UNL     1       2.896   4.083  18.700  0.00  0.00    +0.000 N 
ATOM      8  C   UNL     1       3.717   4.636  17.748  0.00  0.00    +0.000 A 
ATOM      9  C   UNL     1       4.565   4.034  16.807  0.00  0.00    +0.000 A 
ATOM     10  C   UNL     1       5.302   4.863  15.958  0.00  0.00    +0.000 A 
ATOM     11  C   UNL     1       5.199   6.247  16.052  0.00  0.00    +0.000 A 
ATOM     12  C   UNL     1       4.352   6.836  16.997  0.00  0.00    +0.000 A 
ATOM     13  C   UNL     1       3.581   6.025  17.860  0.00  0.00    +0.000 A 
ATOM     14  C   UNL     1       2.765   2.666  18.989  0.00  0.00    +0.000 C 
ATOM     15  C   UNL     1       2.087   2.453  20.332  0.00  0.00    +0.000 C 
ATOM     16  C   UNL     1       0.904   3.399  20.437  0.00  0.00    +0.000 C 
ATOM     17  O   UNL     1       1.325   4.764  20.351  0.00  0.00    +0.000 OA
ENDBRANCH   2   5
BRANCH   1  18
ATOM     18  C   UNL     1       1.377   8.827  21.409  0.00  0.00    +0.000 C 
BRANCH  18  22
ATOM     19  N   UNL     1      -0.908  11.779  21.241  0.00  0.00    +0.000 NA
ATOM     20  C   UNL     1      -0.410  11.031  20.068  0.00  0.00    +0.000 C 
ATOM     21  C   UNL     1      -0.742   9.533  20.182  0.00  0.00    +0.000 C 
ATOM     22  C   UNL     1      -0.162   8.896  21.455  0.00  0.00    +0.000 C 
ATOM     23  C   UNL     1      -0.678   9.708  22.649  0.00  0.00    +0.000 C 
ATOM     24  C   UNL     1      -0.337  11.196  22.493  0.00  0.00    +0.000 C 
BRANCH  19  25
ATOM     25  C   UNL     1      -0.509  13.218  21.183  0.00  0.00    +0.000 C 
BRANCH  25  27
ATOM     26  O   UNL     1      -0.997  15.204  19.885  0.00  0.00    +0.000 OA
ATOM     27  C   UNL     1      -1.379  14.114  20.300  0.00  0.00    +0.000 C 
BRANCH  27  28
ATOM     28  O   UNL     1      -2.637  13.675  20.060  0.00  0.00    +0.000 OA
ATOM     29  H   UNL     1      -3.157  14.336  19.564  0.00  0.00    +0.000 HD
ENDBRANCH  27  28
ENDBRANCH  25  27
ENDBRANCH  19  25
ENDBRANCH  18  22
ENDBRANCH   1  18
TORSDOF 6
ENDMDL
MODEL 5
REMARK VINA RESULT:      -7.7      1.601      3.253
REMARK  Name = 
REMARK  6 active torsions:
REMARK  status: ('A' for Active; 'I' for Inactive)
REMARK    1  A    between atoms: C_2  and  O_3
REMARK    2  A    between atoms: C_2  and  C_4
REMARK    3  A    between atoms: C_4  and  N_5
REMARK    4  A    between atoms: C_8  and  C_9
REMARK    5  A    between atoms: C_9  and  N_10
REMARK    6  A    between atoms: C_11  and  C_13
REMARK                            x       y       z     vdW  Elec       q    Type
REMARK                         _______ _______ _______ _____ _____    ______ ____
ROOT
ATOM      1  N   UNL     1       1.959   7.518  20.615  0.00  0.00    +0.000 N 
ATOM      2  C   UNL     1       2.222   7.481  19.247  0.00  0.00    +0.000 C 
ATOM      3  O   UNL     1       2.064   8.452  18.522  0.00  0.00    +0.000 OA
ATOM      4  H   UNL     1       2.108   6.672  21.142  0.00  0.00    +0.000 HD
ENDROOT
BRANCH   2   5
ATOM      5  C   UNL     1       2.724   6.195  18.761  0.00  0.00    +0.000 A 
ATOM      6  C   UNL     1       3.775   6.003  17.871  0.00  0.00    +0.000 A 
ATOM      7  N   UNL     1       3.883   4.652  17.638  0.00  0.00    +0.000 N 
ATOM      8  C   UNL     1       2.987   3.942  18.400  0.00  0.00    +0.000 A 
ATOM      9  C   UNL     1       2.773   2.561  18.516  0.00  0.00    +0.000 A 
ATOM     10  C   UNL     1       1.766   2.121  19.377  0.00  0.00    +0.000 A 
ATOM     11  C   UNL     1       0.994   3.030  20.093  0.00  0.00    +0.000 A 
ATOM     12  C   UNL     1       1.216   4.406  19.967  0.00  0.00    +0.000 A 
ATOM     13  C   UNL     1       2.238   4.884  19.116  0.00  0.00    +0.000 A 
ATOM     14  C   UNL     1       4.822   4.086  16.687  0.00  0.00    +0.000 C 
ATOM     15  C   UNL     1       5.362   5.164  15.761  0.00  0.00    +0.000 C 
ATOM     16  C   UNL     1       5.708   6.389  16.588  0.00  0.00    +0.000 C 
ATOM     17  O   UNL     1       4.553   6.903  17.259  0.00  0.00    +0.000 OA
ENDBRANCH   2   5
BRANCH   1  18
ATOM     18  C   UNL     1       1.438   8.689  21.282  0.00  0.00    +0.000 C 
BRANCH  18  22
ATOM     19  N   UNL     1      -0.907  11.542  21.856  0.00  0.00    +0.000 NA
ATOM     20  C   UNL     1      -0.345  11.164  20.542  0.00  0.00    +0.000 C 
ATOM     21  C   UNL     1      -0.647   9.692  20.213  0.00  0.00    +0.000 C 
ATOM     22  C   UNL     1      -0.104   8.725  21.277  0.00  0.00    +0.000 C 
ATOM     23  C   UNL     1      -0.684   9.160  22.628  0.00  0.00    +0.000 C 
ATOM     24  C   UNL     1      -0.371  10.634  22.915  0.00  0.00    +0.000 C 
BRANCH  19  25
ATOM     25  C   UNL     1      -0.538  12.943  22.225  0.00  0.00    +0.000 C 
BRANCH  25  27
ATOM     26  O   UNL     1       1.740  13.426  21.558  0.00  0.00    +0.000 OA
ATOM     27  C   UNL     1       0.541  13.597  21.360  0.00  0.00    +0.000 C 
BRANCH  27  28
ATOM     28  O   UNL     1       0.103  14.443  20.399  0.00  0.00    +0.000 OA
ATOM     29  H   UNL     1       0.013  13.990  19.538  0.00  0.00    +0.000 HD
ENDBRANCH  27  28
ENDBRANCH  25  27
ENDBRANCH  19  25
ENDBRANCH  18  22
ENDBRANCH   1  18
TORSDOF 6
ENDMDL
MODEL 6
REMARK VINA RESULT:      -7.7      2.114      3.619
REMARK  Name = 
REMARK  6 active torsions:
REMARK  status: ('A' for Active; 'I' for Inactive)
REMARK    1  A    between atoms: C_2  and  O_3
REMARK    2  A    between atoms: C_2  and  C_4
REMARK    3  A    between atoms: C_4  and  N_5
REMARK    4  A    between atoms: C_8  and  C_9
REMARK    5  A    between atoms: C_9  and  N_10
REMARK    6  A    between atoms: C_11  and  C_13
REMARK                            x       y       z     vdW  Elec       q    Type
REMARK                         _______ _______ _______ _____ _____    ______ ____
ROOT
ATOM      1  N   UNL     1       1.952   7.748  20.824  0.00  0.00    +0.000 N 
ATOM      2  C   UNL     1       2.227   7.646  19.462  0.00  0.00    +0.000 C 
ATOM      3  O   UNL     1       2.119   8.593  18.699  0.00  0.00    +0.000 OA
ATOM      4  H   UNL     1       2.058   6.917  21.385  0.00  0.00    +0.000 HD
ENDROOT
BRANCH   2   5
ATOM      5  C   UNL     1       2.675   6.321  19.031  0.00  0.00    +0.000 A 
ATOM      6  C   UNL     1       3.659   6.050  18.086  0.00  0.00    +0.000 A 
ATOM      7  N   UNL     1       3.731   4.685  17.939  0.00  0.00    +0.000 N 
ATOM      8  C   UNL     1       2.882   4.045  18.808  0.00  0.00    +0.000 A 
ATOM      9  C   UNL     1       2.657   2.678  19.032  0.00  0.00    +0.000 A 
ATOM     10  C   UNL     1       1.706   2.315  19.988  0.00  0.00    +0.000 A 
ATOM     11  C   UNL     1       1.000   3.284  20.692  0.00  0.00    +0.000 A 
ATOM     12  C   UNL     1       1.231   4.645  20.458  0.00  0.00    +0.000 A 
ATOM     13  C   UNL     1       2.197   5.046  19.508  0.00  0.00    +0.000 A 
ATOM     14  C   UNL     1       4.594   4.039  16.966  0.00  0.00    +0.000 C 
ATOM     15  C   UNL     1       5.083   5.042  15.935  0.00  0.00    +0.000 C 
ATOM     16  C   UNL     1       5.503   6.314  16.650  0.00  0.00    +0.000 C 
ATOM     17  O   UNL     1       4.405   6.892  17.362  0.00  0.00    +0.000 OA
ENDBRANCH   2   5
BRANCH   1  18
ATOM     18  C   UNL     1       1.477   8.966  21.440  0.00  0.00    +0.000 C 
BRANCH  18  22
ATOM     19  N   UNL     1      -1.090  11.548  20.599  0.00  0.00    +0.000 NA
ATOM     20  C   UNL     1      -0.637  10.479  19.683  0.00  0.00    +0.000 C 
ATOM     21  C   UNL     1      -0.810   9.091  20.322  0.00  0.00    +0.000 C 
ATOM     22  C   UNL     1      -0.050   8.954  21.652  0.00  0.00    +0.000 C 
ATOM     23  C   UNL     1      -0.523  10.089  22.567  0.00  0.00    +0.000 C 
ATOM     24  C   UNL     1      -0.345  11.455  21.891  0.00  0.00    +0.000 C 
BRANCH  19  25
ATOM     25  C   UNL     1      -0.840  12.904  20.022  0.00  0.00    +0.000 C 
BRANCH  25  27
ATOM     26  O   UNL     1       0.944  13.088  18.394  0.00  0.00    +0.000 OA
ATOM     27  C   UNL     1      -0.253  12.928  18.610  0.00  0.00    +0.000 C 
BRANCH  27  28
ATOM     28  O   UNL     1      -1.142  12.839  17.593  0.00  0.00    +0.000 OA
ATOM     29  H   UNL     1      -1.779  13.581  17.610  0.00  0.00    +0.000 HD
ENDBRANCH  27  28
ENDBRANCH  25  27
ENDBRANCH  19  25
ENDBRANCH  18  22
ENDBRANCH   1  18
TORSDOF 6
ENDMDL
MODEL 7
REMARK VINA RESULT:      -7.6      1.714      3.490
REMARK  Name = 
REMARK  6 active torsions:
REMARK  status: ('A' for Active; 'I' for Inactive)
REMARK    1  A    between atoms: C_2  and  O_3
REMARK    2  A    between atoms: C_2  and  C_4
REMARK    3  A    between atoms: C_4  and  N_5
REMARK    4  A    between atoms: C_8  and  C_9
REMARK    5  A    between atoms: C_9  and  N_10
REMARK    6  A    between atoms: C_11  and  C_13
REMARK                            x       y       z     vdW  Elec       q    Type
REMARK                         _______ _______ _______ _____ _____    ______ ____
ROOT
ATOM      1  N   UNL     1       1.892   8.481  18.326  0.00  0.00    +0.000 N 
ATOM      2  C   UNL     1       2.194   7.508  19.276  0.00  0.00    +0.000 C 
ATOM      3  O   UNL     1       2.057   7.696  20.475  0.00  0.00    +0.000 OA
ATOM      4  H   UNL     1       2.040   8.249  17.357  0.00  0.00    +0.000 HD
ENDROOT
BRANCH   2   5
ATOM      5  C   UNL     1       2.665   6.240  18.716  0.00  0.00    +0.000 A 
ATOM      6  C   UNL     1       3.700   6.076  17.802  0.00  0.00    +0.000 A 
ATOM      7  N   UNL     1       3.779   4.737  17.498  0.00  0.00    +0.000 N 
ATOM      8  C   UNL     1       2.881   4.005  18.235  0.00  0.00    +0.000 A 
ATOM      9  C   UNL     1       2.642   2.623  18.281  0.00  0.00    +0.000 A 
ATOM     10  C   UNL     1       1.638   2.157  19.132  0.00  0.00    +0.000 A 
ATOM     11  C   UNL     1       0.894   3.041  19.906  0.00  0.00    +0.000 A 
ATOM     12  C   UNL     1       1.139   4.418  19.849  0.00  0.00    +0.000 A 
ATOM     13  C   UNL     1       2.159   4.921  19.009  0.00  0.00    +0.000 A 
ATOM     14  C   UNL     1       4.695   4.205  16.505  0.00  0.00    +0.000 C 
ATOM     15  C   UNL     1       5.244   5.319  15.630  0.00  0.00    +0.000 C 
ATOM     16  C   UNL     1       5.624   6.493  16.514  0.00  0.00    +0.000 C 
ATOM     17  O   UNL     1       4.487   6.992  17.227  0.00  0.00    +0.000 OA
ENDBRANCH   2   5
BRANCH   1  18
ATOM     18  C   UNL     1       1.432   9.805  18.678  0.00  0.00    +0.000 C 
BRANCH  18  22
ATOM     19  N   UNL     1      -0.647  12.552  20.126  0.00  0.00    +0.000 NA
ATOM     20  C   UNL     1      -0.460  12.309  18.679  0.00  0.00    +0.000 C 
ATOM     21  C   UNL     1      -0.853  10.870  18.303  0.00  0.00    +0.000 C 
ATOM     22  C   UNL     1      -0.054   9.816  19.087  0.00  0.00    +0.000 C 
ATOM     23  C   UNL     1      -0.250  10.111  20.579  0.00  0.00    +0.000 C 
ATOM     24  C   UNL     1       0.142  11.556  20.912  0.00  0.00    +0.000 C 
BRANCH  19  25
ATOM     25  C   UNL     1      -0.180  13.917  20.516  0.00  0.00    +0.000 C 
BRANCH  25  27
ATOM     26  O   UNL     1      -0.323  14.093  22.927  0.00  0.00    +0.000 OA
ATOM     27  C   UNL     1       0.390  14.046  21.930  0.00  0.00    +0.000 C 
BRANCH  27  28
ATOM     28  O   UNL     1       1.733  14.184  22.022  0.00  0.00    +0.000 OA
ATOM     29  H   UNL     1       2.195  13.374  21.729  0.00  0.00    +0.000 HD
ENDBRANCH  27  28
ENDBRANCH  25  27
ENDBRANCH  19  25
ENDBRANCH  18  22
ENDBRANCH   1  18
TORSDOF 6
ENDMDL
MODEL 8
REMARK VINA RESULT:      -7.6      1.791      3.561
REMARK  Name = 
REMARK  6 active torsions:
REMARK  status: ('A' for Active; 'I' for Inactive)
REMARK    1  A    between atoms: C_2  and  O_3
REMARK    2  A    between atoms: C_2  and  C_4
REMARK    3  A    between atoms: C_4  and  N_5
REMARK    4  A    between atoms: C_8  and  C_9
REMARK    5  A    between atoms: C_9  and  N_10
REMARK    6  A    between atoms: C_11  and  C_13
REMARK                            x       y       z     vdW  Elec       q    Type
REMARK                         _______ _______ _______ _____ _____    ______ ____
ROOT
ATOM      1  N   UNL     1       1.932   8.218  18.877  0.00  0.00    +0.000 N 
ATOM      2  C   UNL     1       2.121   7.045  19.605  0.00  0.00    +0.000 C 
ATOM      3  O   UNL     1       1.828   6.952  20.787  0.00  0.00    +0.000 OA
ATOM      4  H   UNL     1       2.206   8.215  17.908  0.00  0.00    +0.000 HD
ENDROOT
BRANCH   2   5
ATOM      5  C   UNL     1       2.673   5.933  18.830  0.00  0.00    +0.000 A 
ATOM      6  C   UNL     1       3.741   5.997  17.941  0.00  0.00    +0.000 A 
ATOM      7  N   UNL     1       3.899   4.747  17.389  0.00  0.00    +0.000 N 
ATOM      8  C   UNL     1       3.020   3.845  17.937  0.00  0.00    +0.000 A 
ATOM      9  C   UNL     1       2.852   2.472  17.707  0.00  0.00    +0.000 A 
ATOM     10  C   UNL     1       1.851   1.803  18.414  0.00  0.00    +0.000 A 
ATOM     11  C   UNL     1       1.039   2.485  19.315  0.00  0.00    +0.000 A 
ATOM     12  C   UNL     1       1.214   3.857  19.533  0.00  0.00    +0.000 A 
ATOM     13  C   UNL     1       2.229   4.560  18.845  0.00  0.00    +0.000 A 
ATOM     14  C   UNL     1       4.869   4.461  16.348  0.00  0.00    +0.000 C 
ATOM     15  C   UNL     1       5.382   5.748  15.724  0.00  0.00    +0.000 C 
ATOM     16  C   UNL     1       5.675   6.744  16.832  0.00  0.00    +0.000 C 
ATOM     17  O   UNL     1       4.495   7.042  17.584  0.00  0.00    +0.000 OA
ENDBRANCH   2   5
BRANCH   1  18
ATOM     18  C   UNL     1       1.417   9.433  19.467  0.00  0.00    +0.000 C 
BRANCH  18  22
ATOM     19  N   UNL     1      -0.765  12.444  19.832  0.00  0.00    +0.000 NA
ATOM     20  C   UNL     1       0.708  12.451  19.952  0.00  0.00    +0.000 C 
ATOM     21  C   UNL     1       1.370  11.861  18.695  0.00  0.00    +0.000 C 
ATOM     22  C   UNL     1       0.907  10.425  18.403  0.00  0.00    +0.000 C 
ATOM     23  C   UNL     1      -0.623  10.449  18.309  0.00  0.00    +0.000 C 
ATOM     24  C   UNL     1      -1.245  11.052  19.574  0.00  0.00    +0.000 C 
BRANCH  19  25
ATOM     25  C   UNL     1      -1.419  12.928  21.086  0.00  0.00    +0.000 C 
BRANCH  25  27
ATOM     26  O   UNL     1      -0.543  11.704  22.984  0.00  0.00    +0.000 OA
ATOM     27  C   UNL     1      -0.601  12.764  22.368  0.00  0.00    +0.000 C 
BRANCH  27  28
ATOM     28  O   UNL     1       0.003  13.880  22.838  0.00  0.00    +0.000 OA
ATOM     29  H   UNL     1      -0.648  14.510  23.206  0.00  0.00    +0.000 HD
ENDBRANCH  27  28
ENDBRANCH  25  27
ENDBRANCH  19  25
ENDBRANCH  18  22
ENDBRANCH   1  18
TORSDOF 6
ENDMDL
MODEL 9
REMARK VINA RESULT:      -7.6      2.023      3.628
REMARK  Name = 
REMARK  6 active torsions:
REMARK  status: ('A' for Active; 'I' for Inactive)
REMARK    1  A    between atoms: C_2  and  O_3
REMARK    2  A    between atoms: C_2  and  C_4
REMARK    3  A    between atoms: C_4  and  N_5
REMARK    4  A    between atoms: C_8  and  C_9
REMARK    5  A    between atoms: C_9  and  N_10
REMARK    6  A    between atoms: C_11  and  C_13
REMARK                            x       y       z     vdW  Elec       q    Type
REMARK                         _______ _______ _______ _____ _____    ______ ____
ROOT
ATOM      1  N   UNL     1       1.900   8.441  18.266  0.00  0.00    +0.000 N 
ATOM      2  C   UNL     1       2.231   7.464  19.201  0.00  0.00    +0.000 C 
ATOM      3  O   UNL     1       2.118   7.643  20.404  0.00  0.00    +0.000 OA
ATOM      4  H   UNL     1       2.028   8.218  17.292  0.00  0.00    +0.000 HD
ENDROOT
BRANCH   2   5
ATOM      5  C   UNL     1       2.698   6.204  18.622  0.00  0.00    +0.000 A 
ATOM      6  C   UNL     1       3.739   6.050  17.712  0.00  0.00    +0.000 A 
ATOM      7  N   UNL     1       3.813   4.716  17.385  0.00  0.00    +0.000 N 
ATOM      8  C   UNL     1       2.906   3.976  18.103  0.00  0.00    +0.000 A 
ATOM      9  C   UNL     1       2.660   2.595  18.123  0.00  0.00    +0.000 A 
ATOM     10  C   UNL     1       1.648   2.119  18.960  0.00  0.00    +0.000 A 
ATOM     11  C   UNL     1       0.904   2.993  19.745  0.00  0.00    +0.000 A 
ATOM     12  C   UNL     1       1.157   4.369  19.713  0.00  0.00    +0.000 A 
ATOM     13  C   UNL     1       2.184   4.883  18.889  0.00  0.00    +0.000 A 
ATOM     14  C   UNL     1       4.732   4.197  16.388  0.00  0.00    +0.000 C 
ATOM     15  C   UNL     1       5.291   5.324  15.536  0.00  0.00    +0.000 C 
ATOM     16  C   UNL     1       5.672   6.480  16.443  0.00  0.00    +0.000 C 
ATOM     17  O   UNL     1       4.534   6.972  17.158  0.00  0.00    +0.000 OA
ENDBRANCH   2   5
BRANCH   1  18
ATOM     18  C   UNL     1       1.438   9.760  18.637  0.00  0.00    +0.000 C 
BRANCH  18  22
ATOM     19  N   UNL     1      -0.669  12.506  20.044  0.00  0.00    +0.000 NA
ATOM     20  C   UNL     1      -0.474  12.247  18.601  0.00  0.00    +0.000 C 
ATOM     21  C   UNL     1      -0.854  10.801  18.241  0.00  0.00    +0.000 C 
ATOM     22  C   UNL     1      -0.050   9.763  19.041  0.00  0.00    +0.000 C 
ATOM     23  C   UNL     1      -0.253  10.074  20.528  0.00  0.00    +0.000 C 
ATOM     24  C   UNL     1       0.126  11.527  20.845  0.00  0.00    +0.000 C 
BRANCH  19  25
ATOM     25  C   UNL     1      -0.215  13.880  20.419  0.00  0.00    +0.000 C 
BRANCH  25  27
ATOM     26  O   UNL     1      -2.187  15.235  20.796  0.00  0.00    +0.000 OA
ATOM     27  C   UNL     1      -1.195  15.013  20.109  0.00  0.00    +0.000 C 
BRANCH  27  28
ATOM     28  O   UNL     1      -0.953  15.719  18.980  0.00  0.00    +0.000 OA
ATOM     29  H   UNL     1      -0.712  16.644  19.182  0.00  0.00    +0.000 HD
ENDBRANCH  27  28
ENDBRANCH  25  27
ENDBRANCH  19  25
ENDBRANCH  18  22
ENDBRANCH   1  18
TORSDOF 6
ENDMDL
