MODEL 1
REMARK VINA RESULT:      -7.7      0.000      0.000
REMARK  Name = 
REMARK  12 active torsions:
REMARK  status: ('A' for Active; 'I' for Inactive)
REMARK    1  A    between atoms: C_1  and  O_2
REMARK    2  A    between atoms: O_2  and  C_3
REMARK    3  A    between atoms: C_7  and  C_8
REMARK    4  A    between atoms: C_8  and  N_9
REMARK    5  A    between atoms: N_9  and  C_10
REMARK    6  A    between atoms: N_9  and  C_11
REMARK    7  A    between atoms: C_11  and  C_12
REMARK    8  A    between atoms: N_16  and  C_17
REMARK    9  A    between atoms: C_17  and  C_18
REMARK   10  A    between atoms: C_18  and  C_19
REMARK   11  A    between atoms: C_27  and  O_28
REMARK   12  A    between atoms: O_28  and  C_29
REMARK                            x       y       z     vdW  Elec       q    Type
REMARK                         _______ _______ _______ _____ _____    ______ ____
ROOT
ATOM      1  C   UNL     1       3.120   5.795  18.579  0.00  0.00    +0.000 C 
ATOM      2  C   UNL     1       2.952   5.746  20.104  0.00  0.00    +0.000 C 
ATOM      3  C   UNL     1       1.737   6.548  20.569  0.00  0.00    +0.000 C 
ATOM      4  C   UNL     1       1.724   7.975  20.005  0.00  0.00    +0.000 C 
ATOM      5  N   UNL     1       1.804   7.942  18.532  0.00  0.00    +0.000 NA
ATOM      6  C   UNL     1       3.049   7.260  18.143  0.00  0.00    +0.000 C 
ENDROOT
BRANCH   1   7
ATOM      7  C   UNL     1       2.157   4.798  17.870  0.00  0.00    +0.000 C 
BRANCH   7   8
ATOM      8  N   UNL     1       2.760   3.502  17.464  0.00  0.00    +0.000 NA
ATOM      9  C   UNL     1       1.993   2.380  18.031  0.00  0.00    +0.000 C 
BRANCH   8  10
ATOM     10  C   UNL     1       4.177   3.375  17.869  0.00  0.00    +0.000 C 
BRANCH  10  15
ATOM     11  C   UNL     1       6.942   5.522  16.263  0.00  0.00    +0.000 A 
ATOM     12  C   UNL     1       6.595   5.343  14.944  0.00  0.00    +0.000 A 
ATOM     13  C   UNL     1       5.594   4.490  14.528  0.00  0.00    +0.000 A 
ATOM     14  C   UNL     1       4.841   3.829  15.500  0.00  0.00    +0.000 A 
ATOM     15  C   UNL     1       5.173   3.946  16.856  0.00  0.00    +0.000 A 
ATOM     16  C   UNL     1       6.335   4.675  17.248  0.00  0.00    +0.000 A 
BRANCH  11  18
ATOM     17  C   UNL     1       7.264   7.694  17.232  0.00  0.00    +0.000 C 
ATOM     18  O   UNL     1       7.846   6.540  16.553  0.00  0.00    +0.000 OA
ENDBRANCH  11  18
BRANCH  16  19
ATOM     19  O   UNL     1       6.755   4.405  18.503  0.00  0.00    +0.000 OA
ATOM     20  C   UNL     1       6.642   5.391  19.516  0.00  0.00    +0.000 C 
ENDBRANCH  16  19
ENDBRANCH  10  15
ENDBRANCH   8  10
ENDBRANCH   7   8
ENDBRANCH   1   7
BRANCH   5  21
ATOM     21  C   UNL     1       1.767   9.300  17.938  0.00  0.00    +0.000 C 
BRANCH  21  22
ATOM     22  C   UNL     1       1.010  10.330  18.814  0.00  0.00    +0.000 C 
BRANCH  22  23
ATOM     23  C   UNL     1      -0.437  10.551  18.431  0.00  0.00    +0.000 A 
ATOM     24  C   UNL     1      -1.096   9.780  17.461  0.00  0.00    +0.000 A 
ATOM     25  C   UNL     1      -2.436  10.049  17.145  0.00  0.00    +0.000 A 
ATOM     26  C   UNL     1      -3.116  11.071  17.799  0.00  0.00    +0.000 A 
ATOM     27 CL   UNL     1      -4.748  11.420  17.386  0.00  0.00    +0.000 Cl
ATOM     28  C   UNL     1      -2.476  11.824  18.775  0.00  0.00    +0.000 A 
ATOM     29  C   UNL     1      -1.145  11.557  19.096  0.00  0.00    +0.000 A 
ENDBRANCH  22  23
ENDBRANCH  21  22
ENDBRANCH   5  21
TORSDOF 9
ENDMDL
MODEL 2
REMARK VINA RESULT:      -7.5      2.219      2.861
REMARK  Name = 
REMARK  12 active torsions:
REMARK  status: ('A' for Active; 'I' for Inactive)
REMARK    1  A    between atoms: C_1  and  O_2
REMARK    2  A    between atoms: O_2  and  C_3
REMARK    3  A    between atoms: C_7  and  C_8
REMARK    4  A    between atoms: C_8  and  N_9
REMARK    5  A    between atoms: N_9  and  C_10
REMARK    6  A    between atoms: N_9  and  C_11
REMARK    7  A    between atoms: C_11  and  C_12
REMARK    8  A    between atoms: N_16  and  C_17
REMARK    9  A    between atoms: C_17  and  C_18
REMARK   10  A    between atoms: C_18  and  C_19
REMARK   11  A    between atoms: C_27  and  O_28
REMARK   12  A    between atoms: O_28  and  C_29
REMARK                            x       y       z     vdW  Elec       q    Type
REMARK                         _______ _______ _______ _____ _____    ______ ____
ROOT
ATOM      1  C   UNL     1       1.469   3.590  20.269  0.00  0.00    +0.000 C 
ATOM      2  C   UNL     1       0.723   3.286  18.963  0.00  0.00    +0.000 C 
ATOM      3  C   UNL     1       1.400   3.936  17.756  0.00  0.00    +0.000 C 
ATOM      4  C   UNL     1       1.666   5.433  17.966  0.00  0.00    +0.000 C 
ATOM      5  N   UNL     1       2.456   5.643  19.194  0.00  0.00    +0.000 NA
ATOM      6  C   UNL     1       1.705   5.101  20.338  0.00  0.00    +0.000 C 
ENDROOT
BRANCH   1   7
ATOM      7  C   UNL     1       2.714   2.671  20.439  0.00  0.00    +0.000 C 
BRANCH   7   8
ATOM      8  N   UNL     1       3.593   2.552  19.248  0.00  0.00    +0.000 NA
ATOM      9  C   UNL     1       3.788   1.136  18.893  0.00  0.00    +0.000 C 
BRANCH   8  10
ATOM     10  C   UNL     1       4.913   3.191  19.442  0.00  0.00    +0.000 C 
BRANCH  10  15
ATOM     11  C   UNL     1       5.952   6.353  17.503  0.00  0.00    +0.000 A 
ATOM     12  C   UNL     1       5.559   5.956  16.247  0.00  0.00    +0.000 A 
ATOM     13  C   UNL     1       5.078   4.696  15.960  0.00  0.00    +0.000 A 
ATOM     14  C   UNL     1       4.910   3.796  17.014  0.00  0.00    +0.000 A 
ATOM     15  C   UNL     1       5.327   4.134  18.308  0.00  0.00    +0.000 A 
ATOM     16  C   UNL     1       6.004   5.367  18.543  0.00  0.00    +0.000 A 
BRANCH  11  18
ATOM     17  C   UNL     1       7.638   8.059  17.423  0.00  0.00    +0.000 C 
ATOM     18  O   UNL     1       6.248   7.701  17.685  0.00  0.00    +0.000 OA
ENDBRANCH  11  18
BRANCH  16  19
ATOM     19  O   UNL     1       6.677   5.410  19.714  0.00  0.00    +0.000 OA
ATOM     20  C   UNL     1       8.092   5.485  19.716  0.00  0.00    +0.000 C 
ENDBRANCH  16  19
ENDBRANCH  10  15
ENDBRANCH   8  10
ENDBRANCH   7   8
ENDBRANCH   1   7
BRANCH   5  21
ATOM     21  C   UNL     1       2.761   7.075  19.426  0.00  0.00    +0.000 C 
BRANCH  21  22
ATOM     22  C   UNL     1       2.181   8.008  18.332  0.00  0.00    +0.000 C 
BRANCH  22  23
ATOM     23  C   UNL     1       1.578   9.296  18.848  0.00  0.00    +0.000 A 
ATOM     24  C   UNL     1       1.736  10.528  18.194  0.00  0.00    +0.000 A 
ATOM     25  C   UNL     1       1.160  11.687  18.736  0.00  0.00    +0.000 A 
ATOM     26  C   UNL     1       0.424  11.615  19.913  0.00  0.00    +0.000 A 
ATOM     27 CL   UNL     1      -0.253  13.043  20.593  0.00  0.00    +0.000 Cl
ATOM     28  C   UNL     1       0.246  10.395  20.554  0.00  0.00    +0.000 A 
ATOM     29  C   UNL     1       0.813   9.240  20.017  0.00  0.00    +0.000 A 
ENDBRANCH  22  23
ENDBRANCH  21  22
ENDBRANCH   5  21
TORSDOF 9
ENDMDL
MODEL 3
REMARK VINA RESULT:      -7.1      3.773      7.813
REMARK  Name = 
REMARK  12 active torsions:
REMARK  status: ('A' for Active; 'I' for Inactive)
REMARK    1  A    between atoms: C_1  and  O_2
REMARK    2  A    between atoms: O_2  and  C_3
REMARK    3  A    between atoms: C_7  and  C_8
REMARK    4  A    between atoms: C_8  and  N_9
REMARK    5  A    between atoms: N_9  and  C_10
REMARK    6  A    between atoms: N_9  and  C_11
REMARK    7  A    between atoms: C_11  and  C_12
REMARK    8  A    between atoms: N_16  and  C_17
REMARK    9  A    between atoms: C_17  and  C_18
REMARK   10  A    between atoms: C_18  and  C_19
REMARK   11  A    between atoms: C_27  and  O_28
REMARK   12  A    between atoms: O_28  and  C_29
REMARK                            x       y       z     vdW  Elec       q    Type
REMARK                         _______ _______ _______ _____ _____    ______ ____
ROOT
ATOM      1  C   UNL     1       1.278   3.811  18.528  0.00  0.00    +0.000 C 
ATOM      2  C   UNL     1       0.799   2.383  18.822  0.00  0.00    +0.000 C 
ATOM      3  C   UNL     1       1.962   1.455  19.176  0.00  0.00    +0.000 C 
ATOM      4  C   UNL     1       3.096   1.513  18.144  0.00  0.00    +0.000 C 
ATOM      5  N   UNL     1       3.561   2.903  17.974  0.00  0.00    +0.000 NA
ATOM      6  C   UNL     1       2.428   3.727  17.522  0.00  0.00    +0.000 C 
ENDROOT
BRANCH   1   7
ATOM      7  C   UNL     1       1.543   4.603  19.843  0.00  0.00    +0.000 C 
BRANCH   7   8
ATOM      8  N   UNL     1       2.235   5.907  19.679  0.00  0.00    +0.000 NA
ATOM      9  C   UNL     1       3.686   5.745  19.866  0.00  0.00    +0.000 C 
BRANCH   8  10
ATOM     10  C   UNL     1       1.737   6.943  20.611  0.00  0.00    +0.000 C 
BRANCH  10  15
ATOM     11  C   UNL     1       0.585  10.555  19.938  0.00  0.00    +0.000 A 
ATOM     12  C   UNL     1       0.932  10.633  18.610  0.00  0.00    +0.000 A 
ATOM     13  C   UNL     1       1.611   9.637  17.939  0.00  0.00    +0.000 A 
ATOM     14  C   UNL     1       1.897   8.455  18.624  0.00  0.00    +0.000 A 
ATOM     15  C   UNL     1       1.598   8.334  19.987  0.00  0.00    +0.000 A 
ATOM     16  C   UNL     1       1.077   9.450  20.707  0.00  0.00    +0.000 A 
BRANCH  11  18
ATOM     17  C   UNL     1      -1.545  11.650  19.771  0.00  0.00    +0.000 C 
ATOM     18  O   UNL     1      -0.251  11.549  20.439  0.00  0.00    +0.000 OA
ENDBRANCH  11  18
BRANCH  16  19
ATOM     19  O   UNL     1       1.187   9.338  22.049  0.00  0.00    +0.000 OA
ATOM     20  C   UNL     1       0.043   9.502  22.870  0.00  0.00    +0.000 C 
ENDBRANCH  16  19
ENDBRANCH  10  15
ENDBRANCH   8  10
ENDBRANCH   7   8
ENDBRANCH   1   7
BRANCH   5  21
ATOM     21  C   UNL     1       4.676   3.006  17.004  0.00  0.00    +0.000 C 
BRANCH  21  22
ATOM     22  C   UNL     1       4.750   4.386  16.303  0.00  0.00    +0.000 C 
BRANCH  22  23
ATOM     23  C   UNL     1       5.755   5.350  16.896  0.00  0.00    +0.000 A 
ATOM     24  C   UNL     1       6.832   4.934  17.693  0.00  0.00    +0.000 A 
ATOM     25  C   UNL     1       7.720   5.884  18.222  0.00  0.00    +0.000 A 
ATOM     26  C   UNL     1       7.538   7.235  17.950  0.00  0.00    +0.000 A 
ATOM     27 CL   UNL     1       8.607   8.400  18.627  0.00  0.00    +0.000 Cl
ATOM     28  C   UNL     1       6.486   7.652  17.144  0.00  0.00    +0.000 A 
ATOM     29  C   UNL     1       5.604   6.710  16.612  0.00  0.00    +0.000 A 
ENDBRANCH  22  23
ENDBRANCH  21  22
ENDBRANCH   5  21
TORSDOF 9
ENDMDL
MODEL 4
REMARK VINA RESULT:      -7.1      2.285      2.897
REMARK  Name = 
REMARK  12 active torsions:
REMARK  status: ('A' for Active; 'I' for Inactive)
REMARK    1  A    between atoms: C_1  and  O_2
REMARK    2  A    between atoms: O_2  and  C_3
REMARK    3  A    between atoms: C_7  and  C_8
REMARK    4  A    between atoms: C_8  and  N_9
REMARK    5  A    between atoms: N_9  and  C_10
REMARK    6  A    between atoms: N_9  and  C_11
REMARK    7  A    between atoms: C_11  and  C_12
REMARK    8  A    between atoms: N_16  and  C_17
REMARK    9  A    between atoms: C_17  and  C_18
REMARK   10  A    between atoms: C_18  and  C_19
REMARK   11  A    between atoms: C_27  and  O_28
REMARK   12  A    between atoms: O_28  and  C_29
REMARK                            x       y       z     vdW  Elec       q    Type
REMARK                         _______ _______ _______ _____ _____    ______ ____
ROOT
ATOM      1  C   UNL     1       1.798   5.459  19.645  0.00  0.00    +0.000 C 
ATOM      2  C   UNL     1       2.004   6.053  18.245  0.00  0.00    +0.000 C 
ATOM      3  C   UNL     1       2.629   7.447  18.305  0.00  0.00    +0.000 C 
ATOM      4  C   UNL     1       1.877   8.388  19.256  0.00  0.00    +0.000 C 
ATOM      5  N   UNL     1       1.790   7.789  20.601  0.00  0.00    +0.000 NA
ATOM      6  C   UNL     1       1.079   6.504  20.501  0.00  0.00    +0.000 C 
ENDROOT
BRANCH   1   7
ATOM      7  C   UNL     1       3.123   4.870  20.213  0.00  0.00    +0.000 C 
BRANCH   7   8
ATOM      8  N   UNL     1       3.386   3.446  19.882  0.00  0.00    +0.000 NA
ATOM      9  C   UNL     1       3.095   2.587  21.042  0.00  0.00    +0.000 C 
BRANCH   8  10
ATOM     10  C   UNL     1       4.777   3.207  19.438  0.00  0.00    +0.000 C 
BRANCH  10  15
ATOM     11  C   UNL     1       5.974   6.291  17.467  0.00  0.00    +0.000 A 
ATOM     12  C   UNL     1       5.558   5.904  16.215  0.00  0.00    +0.000 A 
ATOM     13  C   UNL     1       5.012   4.667  15.941  0.00  0.00    +0.000 A 
ATOM     14  C   UNL     1       4.800   3.788  17.004  0.00  0.00    +0.000 A 
ATOM     15  C   UNL     1       5.237   4.115  18.295  0.00  0.00    +0.000 A 
ATOM     16  C   UNL     1       5.977   5.314  18.517  0.00  0.00    +0.000 A 
BRANCH  11  18
ATOM     17  C   UNL     1       7.751   7.903  17.396  0.00  0.00    +0.000 C 
ATOM     18  O   UNL     1       6.339   7.624  17.635  0.00  0.00    +0.000 OA
ENDBRANCH  11  18
BRANCH  16  19
ATOM     19  O   UNL     1       6.654   5.334  19.685  0.00  0.00    +0.000 OA
ATOM     20  C   UNL     1       8.066   5.453  19.686  0.00  0.00    +0.000 C 
ENDBRANCH  16  19
ENDBRANCH  10  15
ENDBRANCH   8  10
ENDBRANCH   7   8
ENDBRANCH   1   7
BRANCH   5  21
ATOM     21  C   UNL     1       1.093   8.675  21.564  0.00  0.00    +0.000 C 
BRANCH  21  22
ATOM     22  C   UNL     1       0.985  10.142  21.077  0.00  0.00    +0.000 C 
BRANCH  22  23
ATOM     23  C   UNL     1      -0.233  10.890  21.574  0.00  0.00    +0.000 A 
ATOM     24  C   UNL     1      -0.753  10.729  22.867  0.00  0.00    +0.000 A 
ATOM     25  C   UNL     1      -1.894  11.445  23.258  0.00  0.00    +0.000 A 
ATOM     26  C   UNL     1      -2.504  12.324  22.369  0.00  0.00    +0.000 A 
ATOM     27 CL   UNL     1      -3.922  13.176  22.839  0.00  0.00    +0.000 Cl
ATOM     28  C   UNL     1      -1.982  12.505  21.094  0.00  0.00    +0.000 A 
ATOM     29  C   UNL     1      -0.844  11.798  20.704  0.00  0.00    +0.000 A 
ENDBRANCH  22  23
ENDBRANCH  21  22
ENDBRANCH   5  21
TORSDOF 9
ENDMDL
MODEL 5
REMARK VINA RESULT:      -7.1      4.262      8.830
REMARK  Name = 
REMARK  12 active torsions:
REMARK  status: ('A' for Active; 'I' for Inactive)
REMARK    1  A    between atoms: C_1  and  O_2
REMARK    2  A    between atoms: O_2  and  C_3
REMARK    3  A    between atoms: C_7  and  C_8
REMARK    4  A    between atoms: C_8  and  N_9
REMARK    5  A    between atoms: N_9  and  C_10
REMARK    6  A    between atoms: N_9  and  C_11
REMARK    7  A    between atoms: C_11  and  C_12
REMARK    8  A    between atoms: N_16  and  C_17
REMARK    9  A    between atoms: C_17  and  C_18
REMARK   10  A    between atoms: C_18  and  C_19
REMARK   11  A    between atoms: C_27  and  O_28
REMARK   12  A    between atoms: O_28  and  C_29
REMARK                            x       y       z     vdW  Elec       q    Type
REMARK                         _______ _______ _______ _____ _____    ______ ____
ROOT
ATOM      1  C   UNL     1       1.498   4.850  19.940  0.00  0.00    +0.000 C 
ATOM      2  C   UNL     1       1.046   3.642  20.772  0.00  0.00    +0.000 C 
ATOM      3  C   UNL     1       2.217   2.986  21.504  0.00  0.00    +0.000 C 
ATOM      4  C   UNL     1       3.393   2.671  20.569  0.00  0.00    +0.000 C 
ATOM      5  N   UNL     1       3.827   3.893  19.866  0.00  0.00    +0.000 NA
ATOM      6  C   UNL     1       2.693   4.417  19.087  0.00  0.00    +0.000 C 
ENDROOT
BRANCH   1   7
ATOM      7  C   UNL     1       1.685   6.114  20.830  0.00  0.00    +0.000 C 
BRANCH   7   8
ATOM      8  N   UNL     1       1.543   7.418  20.132  0.00  0.00    +0.000 NA
ATOM      9  C   UNL     1       2.396   7.453  18.932  0.00  0.00    +0.000 C 
BRANCH   8  10
ATOM     10  C   UNL     1       1.873   8.572  20.996  0.00  0.00    +0.000 C 
BRANCH  10  15
ATOM     11  C   UNL     1      -0.621  11.500  21.198  0.00  0.00    +0.000 A 
ATOM     12  C   UNL     1      -1.175  11.209  22.423  0.00  0.00    +0.000 A 
ATOM     13  C   UNL     1      -0.876  10.071  23.144  0.00  0.00    +0.000 A 
ATOM     14  C   UNL     1       0.096   9.205  22.641  0.00  0.00    +0.000 A 
ATOM     15  C   UNL     1       0.667   9.433  21.382  0.00  0.00    +0.000 A 
ATOM     16  C   UNL     1       0.198  10.506  20.567  0.00  0.00    +0.000 A 
BRANCH  11  18
ATOM     17  C   UNL     1      -2.229  12.944  20.154  0.00  0.00    +0.000 C 
ATOM     18  O   UNL     1      -0.875  12.761  20.667  0.00  0.00    +0.000 OA
ENDBRANCH  11  18
BRANCH  16  19
ATOM     19  O   UNL     1       0.540  10.398  19.265  0.00  0.00    +0.000 OA
ATOM     20  C   UNL     1      -0.453  10.127  18.290  0.00  0.00    +0.000 C 
ENDBRANCH  16  19
ENDBRANCH  10  15
ENDBRANCH   8  10
ENDBRANCH   7   8
ENDBRANCH   1   7
BRANCH   5  21
ATOM     21  C   UNL     1       4.980   3.644  18.968  0.00  0.00    +0.000 C 
BRANCH  21  22
ATOM     22  C   UNL     1       5.468   4.918  18.233  0.00  0.00    +0.000 C 
BRANCH  22  23
ATOM     23  C   UNL     1       5.839   4.713  16.780  0.00  0.00    +0.000 A 
ATOM     24  C   UNL     1       7.087   5.076  16.253  0.00  0.00    +0.000 A 
ATOM     25  C   UNL     1       7.360   4.870  14.892  0.00  0.00    +0.000 A 
ATOM     26  C   UNL     1       6.398   4.295  14.068  0.00  0.00    +0.000 A 
ATOM     27 CL   UNL     1       6.722   4.074  12.393  0.00  0.00    +0.000 Cl
ATOM     28  C   UNL     1       5.168   3.914  14.588  0.00  0.00    +0.000 A 
ATOM     29  C   UNL     1       4.895   4.113  15.941  0.00  0.00    +0.000 A 
ENDBRANCH  22  23
ENDBRANCH  21  22
ENDBRANCH   5  21
TORSDOF 9
ENDMDL
MODEL 6
REMARK VINA RESULT:      -7.1      2.260      2.862
REMARK  Name = 
REMARK  12 active torsions:
REMARK  status: ('A' for Active; 'I' for Inactive)
REMARK    1  A    between atoms: C_1  and  O_2
REMARK    2  A    between atoms: O_2  and  C_3
REMARK    3  A    between atoms: C_7  and  C_8
REMARK    4  A    between atoms: C_8  and  N_9
REMARK    5  A    between atoms: N_9  and  C_10
REMARK    6  A    between atoms: N_9  and  C_11
REMARK    7  A    between atoms: C_11  and  C_12
REMARK    8  A    between atoms: N_16  and  C_17
REMARK    9  A    between atoms: C_17  and  C_18
REMARK   10  A    between atoms: C_18  and  C_19
REMARK   11  A    between atoms: C_27  and  O_28
REMARK   12  A    between atoms: O_28  and  C_29
REMARK                            x       y       z     vdW  Elec       q    Type
REMARK                         _______ _______ _______ _____ _____    ______ ____
ROOT
ATOM      1  C   UNL     1       1.755   5.344  19.791  0.00  0.00    +0.000 C 
ATOM      2  C   UNL     1       1.907   5.872  18.357  0.00  0.00    +0.000 C 
ATOM      3  C   UNL     1       2.618   7.224  18.322  0.00  0.00    +0.000 C 
ATOM      4  C   UNL     1       1.988   8.245  19.279  0.00  0.00    +0.000 C 
ATOM      5  N   UNL     1       1.951   7.703  20.650  0.00  0.00    +0.000 NA
ATOM      6  C   UNL     1       1.158   6.463  20.646  0.00  0.00    +0.000 C 
ENDROOT
BRANCH   1   7
ATOM      7  C   UNL     1       3.076   4.693  20.298  0.00  0.00    +0.000 C 
BRANCH   7   8
ATOM      8  N   UNL     1       3.435   3.395  19.671  0.00  0.00    +0.000 NA
ATOM      9  C   UNL     1       3.052   2.277  20.550  0.00  0.00    +0.000 C 
BRANCH   8  10
ATOM     10  C   UNL     1       4.875   3.290  19.350  0.00  0.00    +0.000 C 
BRANCH  10  15
ATOM     11  C   UNL     1       6.031   6.410  17.412  0.00  0.00    +0.000 A 
ATOM     12  C   UNL     1       5.655   6.014  16.150  0.00  0.00    +0.000 A 
ATOM     13  C   UNL     1       5.149   4.763  15.861  0.00  0.00    +0.000 A 
ATOM     14  C   UNL     1       4.938   3.876  16.918  0.00  0.00    +0.000 A 
ATOM     15  C   UNL     1       5.336   4.213  18.219  0.00  0.00    +0.000 A 
ATOM     16  C   UNL     1       6.037   5.432  18.459  0.00  0.00    +0.000 A 
BRANCH  11  18
ATOM     17  C   UNL     1       7.779   8.054  17.476  0.00  0.00    +0.000 C 
ATOM     18  O   UNL     1       6.356   7.753  17.589  0.00  0.00    +0.000 OA
ENDBRANCH  11  18
BRANCH  16  19
ATOM     19  O   UNL     1       6.686   5.467  19.643  0.00  0.00    +0.000 OA
ATOM     20  C   UNL     1       8.102   5.421  19.678  0.00  0.00    +0.000 C 
ENDBRANCH  16  19
ENDBRANCH  10  15
ENDBRANCH   8  10
ENDBRANCH   7   8
ENDBRANCH   1   7
BRANCH   5  21
ATOM     21  C   UNL     1       1.373   8.665  21.619  0.00  0.00    +0.000 C 
BRANCH  21  22
ATOM     22  C   UNL     1      -0.154   8.866  21.443  0.00  0.00    +0.000 C 
BRANCH  22  23
ATOM     23  C   UNL     1      -0.626  10.299  21.560  0.00  0.00    +0.000 A 
ATOM     24  C   UNL     1      -0.779  11.145  20.452  0.00  0.00    +0.000 A 
ATOM     25  C   UNL     1      -1.209  12.468  20.634  0.00  0.00    +0.000 A 
ATOM     26  C   UNL     1      -1.494  12.938  21.911  0.00  0.00    +0.000 A 
ATOM     27 CL   UNL     1      -1.989  14.570  22.136  0.00  0.00    +0.000 Cl
ATOM     28  C   UNL     1      -1.367  12.099  23.011  0.00  0.00    +0.000 A 
ATOM     29  C   UNL     1      -0.943  10.782  22.833  0.00  0.00    +0.000 A 
ENDBRANCH  22  23
ENDBRANCH  21  22
ENDBRANCH   5  21
TORSDOF 9
ENDMDL
MODEL 7
REMARK VINA RESULT:      -7.1      4.110      8.619
REMARK  Name = 
REMARK  12 active torsions:
REMARK  status: ('A' for Active; 'I' for Inactive)
REMARK    1  A    between atoms: C_1  and  O_2
REMARK    2  A    between atoms: O_2  and  C_3
REMARK    3  A    between atoms: C_7  and  C_8
REMARK    4  A    between atoms: C_8  and  N_9
REMARK    5  A    between atoms: N_9  and  C_10
REMARK    6  A    between atoms: N_9  and  C_11
REMARK    7  A    between atoms: C_11  and  C_12
REMARK    8  A    between atoms: N_16  and  C_17
REMARK    9  A    between atoms: C_17  and  C_18
REMARK   10  A    between atoms: C_18  and  C_19
REMARK   11  A    between atoms: C_27  and  O_28
REMARK   12  A    between atoms: O_28  and  C_29
REMARK                            x       y       z     vdW  Elec       q    Type
REMARK                         _______ _______ _______ _____ _____    ______ ____
ROOT
ATOM      1  C   UNL     1       1.294   5.153  19.927  0.00  0.00    +0.000 C 
ATOM      2  C   UNL     1       1.369   3.999  20.936  0.00  0.00    +0.000 C 
ATOM      3  C   UNL     1       2.686   3.230  20.822  0.00  0.00    +0.000 C 
ATOM      4  C   UNL     1       2.991   2.796  19.382  0.00  0.00    +0.000 C 
ATOM      5  N   UNL     1       2.983   3.966  18.485  0.00  0.00    +0.000 NA
ATOM      6  C   UNL     1       1.656   4.600  18.547  0.00  0.00    +0.000 C 
ENDROOT
BRANCH   1   7
ATOM      7  C   UNL     1       2.093   6.395  20.423  0.00  0.00    +0.000 C 
BRANCH   7   8
ATOM      8  N   UNL     1       1.642   7.705  19.887  0.00  0.00    +0.000 NA
ATOM      9  C   UNL     1       2.269   7.967  18.581  0.00  0.00    +0.000 C 
BRANCH   8  10
ATOM     10  C   UNL     1       1.935   8.831  20.801  0.00  0.00    +0.000 C 
BRANCH  10  15
ATOM     11  C   UNL     1      -0.775  11.510  21.356  0.00  0.00    +0.000 A 
ATOM     12  C   UNL     1      -1.214  11.099  22.593  0.00  0.00    +0.000 A 
ATOM     13  C   UNL     1      -0.771   9.951  23.217  0.00  0.00    +0.000 A 
ATOM     14  C   UNL     1       0.232   9.206  22.596  0.00  0.00    +0.000 A 
ATOM     15  C   UNL     1       0.691   9.558  21.319  0.00  0.00    +0.000 A 
ATOM     16  C   UNL     1       0.077  10.632  20.609  0.00  0.00    +0.000 A 
BRANCH  11  18
ATOM     17  C   UNL     1      -2.607  12.920  20.708  0.00  0.00    +0.000 C 
ATOM     18  O   UNL     1      -1.171  12.774  20.926  0.00  0.00    +0.000 OA
ENDBRANCH  11  18
BRANCH  16  19
ATOM     19  O   UNL     1       0.335  10.632  19.284  0.00  0.00    +0.000 OA
ATOM     20  C   UNL     1      -0.685  10.280  18.363  0.00  0.00    +0.000 C 
ENDBRANCH  16  19
ENDBRANCH  10  15
ENDBRANCH   8  10
ENDBRANCH   7   8
ENDBRANCH   1   7
BRANCH   5  21
ATOM     21  C   UNL     1       3.299   3.599  17.083  0.00  0.00    +0.000 C 
BRANCH  21  22
ATOM     22  C   UNL     1       4.818   3.425  16.825  0.00  0.00    +0.000 C 
BRANCH  22  23
ATOM     23  C   UNL     1       5.654   4.659  17.085  0.00  0.00    +0.000 A 
ATOM     24  C   UNL     1       6.817   4.641  17.869  0.00  0.00    +0.000 A 
ATOM     25  C   UNL     1       7.539   5.826  18.080  0.00  0.00    +0.000 A 
ATOM     26  C   UNL     1       7.108   7.016  17.504  0.00  0.00    +0.000 A 
ATOM     27 CL   UNL     1       7.975   8.474  17.792  0.00  0.00    +0.000 Cl
ATOM     28  C   UNL     1       5.969   7.037  16.709  0.00  0.00    +0.000 A 
ATOM     29  C   UNL     1       5.252   5.860  16.493  0.00  0.00    +0.000 A 
ENDBRANCH  22  23
ENDBRANCH  21  22
ENDBRANCH   5  21
TORSDOF 9
ENDMDL
MODEL 8
REMARK VINA RESULT:      -7.0      1.959      2.528
REMARK  Name = 
REMARK  12 active torsions:
REMARK  status: ('A' for Active; 'I' for Inactive)
REMARK    1  A    between atoms: C_1  and  O_2
REMARK    2  A    between atoms: O_2  and  C_3
REMARK    3  A    between atoms: C_7  and  C_8
REMARK    4  A    between atoms: C_8  and  N_9
REMARK    5  A    between atoms: N_9  and  C_10
REMARK    6  A    between atoms: N_9  and  C_11
REMARK    7  A    between atoms: C_11  and  C_12
REMARK    8  A    between atoms: N_16  and  C_17
REMARK    9  A    between atoms: C_17  and  C_18
REMARK   10  A    between atoms: C_18  and  C_19
REMARK   11  A    between atoms: C_27  and  O_28
REMARK   12  A    between atoms: O_28  and  C_29
REMARK                            x       y       z     vdW  Elec       q    Type
REMARK                         _______ _______ _______ _____ _____    ______ ____
ROOT
ATOM      1  C   UNL     1       1.832   5.456  19.657  0.00  0.00    +0.000 C 
ATOM      2  C   UNL     1       2.016   5.986  18.229  0.00  0.00    +0.000 C 
ATOM      3  C   UNL     1       2.674   7.366  18.215  0.00  0.00    +0.000 C 
ATOM      4  C   UNL     1       1.969   8.363  19.144  0.00  0.00    +0.000 C 
ATOM      5  N   UNL     1       1.902   7.823  20.515  0.00  0.00    +0.000 NA
ATOM      6  C   UNL     1       1.159   6.552  20.486  0.00  0.00    +0.000 C 
ENDROOT
BRANCH   1   7
ATOM      7  C   UNL     1       3.157   4.859  20.216  0.00  0.00    +0.000 C 
BRANCH   7   8
ATOM      8  N   UNL     1       3.451   3.460  19.814  0.00  0.00    +0.000 NA
ATOM      9  C   UNL     1       3.134   2.532  20.913  0.00  0.00    +0.000 C 
BRANCH   8  10
ATOM     10  C   UNL     1       4.859   3.263  19.403  0.00  0.00    +0.000 C 
BRANCH  10  15
ATOM     11  C   UNL     1       6.013   6.374  17.447  0.00  0.00    +0.000 A 
ATOM     12  C   UNL     1       5.628   5.974  16.189  0.00  0.00    +0.000 A 
ATOM     13  C   UNL     1       5.117   4.723  15.908  0.00  0.00    +0.000 A 
ATOM     14  C   UNL     1       4.909   3.841  16.969  0.00  0.00    +0.000 A 
ATOM     15  C   UNL     1       5.316   4.181  18.266  0.00  0.00    +0.000 A 
ATOM     16  C   UNL     1       6.023   5.398  18.499  0.00  0.00    +0.000 A 
BRANCH  11  18
ATOM     17  C   UNL     1       7.765   8.014  17.488  0.00  0.00    +0.000 C 
ATOM     18  O   UNL     1       6.343   7.715  17.619  0.00  0.00    +0.000 OA
ENDBRANCH  11  18
BRANCH  16  19
ATOM     19  O   UNL     1       6.678   5.436  19.679  0.00  0.00    +0.000 OA
ATOM     20  C   UNL     1       8.095   5.392  19.705  0.00  0.00    +0.000 C 
ENDBRANCH  16  19
ENDBRANCH  10  15
ENDBRANCH   8  10
ENDBRANCH   7   8
ENDBRANCH   1   7
BRANCH   5  21
ATOM     21  C   UNL     1       1.250   8.764  21.457  0.00  0.00    +0.000 C 
BRANCH  21  22
ATOM     22  C   UNL     1      -0.168   9.196  21.006  0.00  0.00    +0.000 C 
BRANCH  22  23
ATOM     23  C   UNL     1      -0.263  10.605  20.463  0.00  0.00    +0.000 A 
ATOM     24  C   UNL     1      -0.875  10.911  19.238  0.00  0.00    +0.000 A 
ATOM     25  C   UNL     1      -0.916  12.239  18.788  0.00  0.00    +0.000 A 
ATOM     26  C   UNL     1      -0.361  13.254  19.559  0.00  0.00    +0.000 A 
ATOM     27 CL   UNL     1      -0.382  14.877  18.990  0.00  0.00    +0.000 Cl
ATOM     28  C   UNL     1       0.227  12.961  20.783  0.00  0.00    +0.000 A 
ATOM     29  C   UNL     1       0.266  11.642  21.236  0.00  0.00    +0.000 A 
ENDBRANCH  22  23
ENDBRANCH  21  22
ENDBRANCH   5  21
TORSDOF 9
ENDMDL
MODEL 9
REMARK VINA RESULT:      -7.0      2.282      2.929
REMARK  Name = 
REMARK  12 active torsions:
REMARK  status: ('A' for Active; 'I' for Inactive)
REMARK    1  A    between atoms: C_1  and  O_2
REMARK    2  A    between atoms: O_2  and  C_3
REMARK    3  A    between atoms: C_7  and  C_8
REMARK    4  A    between atoms: C_8  and  N_9
REMARK    5  A    between atoms: N_9  and  C_10
REMARK    6  A    between atoms: N_9  and  C_11
REMARK    7  A    between atoms: C_11  and  C_12
REMARK    8  A    between atoms: N_16  and  C_17
REMARK    9  A    between atoms: C_17  and  C_18
REMARK   10  A    between atoms: C_18  and  C_19
REMARK   11  A    between atoms: C_27  and  O_28
REMARK   12  A    between atoms: O_28  and  C_29
REMARK                            x       y       z     vdW  Elec       q    Type
REMARK                         _______ _______ _______ _____ _____    ______ ____
ROOT
ATOM      1  C   UNL     1       3.186   5.781  18.730  0.00  0.00    +0.000 C 
ATOM      2  C   UNL     1       2.899   5.765  20.237  0.00  0.00    +0.000 C 
ATOM      3  C   UNL     1       1.688   6.628  20.594  0.00  0.00    +0.000 C 
ATOM      4  C   UNL     1       1.783   8.044  20.012  0.00  0.00    +0.000 C 
ATOM      5  N   UNL     1       1.976   7.982  18.551  0.00  0.00    +0.000 NA
ATOM      6  C   UNL     1       3.216   7.240  18.269  0.00  0.00    +0.000 C 
ENDROOT
BRANCH   1   7
ATOM      7  C   UNL     1       2.238   4.815  17.961  0.00  0.00    +0.000 C 
BRANCH   7   8
ATOM      8  N   UNL     1       2.858   3.553  17.482  0.00  0.00    +0.000 NA
ATOM      9  C   UNL     1       2.094   2.390  17.965  0.00  0.00    +0.000 C 
BRANCH   8  10
ATOM     10  C   UNL     1       4.271   3.412  17.897  0.00  0.00    +0.000 C 
BRANCH  10  15
ATOM     11  C   UNL     1       7.034   5.653  16.421  0.00  0.00    +0.000 A 
ATOM     12  C   UNL     1       6.712   5.519  15.091  0.00  0.00    +0.000 A 
ATOM     13  C   UNL     1       5.729   4.670  14.625  0.00  0.00    +0.000 A 
ATOM     14  C   UNL     1       4.969   3.964  15.558  0.00  0.00    +0.000 A 
ATOM     15  C   UNL     1       5.276   4.034  16.923  0.00  0.00    +0.000 A 
ATOM     16  C   UNL     1       6.421   4.762  17.363  0.00  0.00    +0.000 A 
BRANCH  11  18
ATOM     17  C   UNL     1       7.288   7.857  17.337  0.00  0.00    +0.000 C 
ATOM     18  O   UNL     1       7.919   6.671  16.765  0.00  0.00    +0.000 OA
ENDBRANCH  11  18
BRANCH  16  19
ATOM     19  O   UNL     1       6.823   4.450  18.614  0.00  0.00    +0.000 OA
ATOM     20  C   UNL     1       7.082   5.481  19.553  0.00  0.00    +0.000 C 
ENDBRANCH  16  19
ENDBRANCH  10  15
ENDBRANCH   8  10
ENDBRANCH   7   8
ENDBRANCH   1   7
BRANCH   5  21
ATOM     21  C   UNL     1       2.047   9.330  17.937  0.00  0.00    +0.000 C 
BRANCH  21  22
ATOM     22  C   UNL     1       0.995  10.316  18.504  0.00  0.00    +0.000 C 
BRANCH  22  23
ATOM     23  C   UNL     1       1.551  11.644  18.970  0.00  0.00    +0.000 A 
ATOM     24  C   UNL     1       1.307  12.167  20.249  0.00  0.00    +0.000 A 
ATOM     25  C   UNL     1       1.844  13.412  20.610  0.00  0.00    +0.000 A 
ATOM     26  C   UNL     1       2.625  14.123  19.706  0.00  0.00    +0.000 A 
ATOM     27 CL   UNL     1       3.254  15.664  20.139  0.00  0.00    +0.000 Cl
ATOM     28  C   UNL     1       2.888  13.602  18.446  0.00  0.00    +0.000 A 
ATOM     29  C   UNL     1       2.360  12.362  18.084  0.00  0.00    +0.000 A 
ENDBRANCH  22  23
ENDBRANCH  21  22
ENDBRANCH   5  21
TORSDOF 9
ENDMDL
