MODEL 1
REMARK VINA RESULT:      -6.7      0.000      0.000
REMARK  Name = 
REMARK  5 active torsions:
REMARK  status: ('A' for Active; 'I' for Inactive)
REMARK    1  A    between atoms: C_1  and  C_2
REMARK    2  A    between atoms: C_5  and  N_6
REMARK    3  A    between atoms: C_7  and  C_9
REMARK    4  A    between atoms: C_14  and  N_15
REMARK    5  A    between atoms: C_16  and  C_18
REMARK                            x       y       z     vdW  Elec       q    Type
REMARK                         _______ _______ _______ _____ _____    ______ ____
ROOT
ATOM      1  C   UNL     1       0.663   1.495  18.775  0.00  0.00    +0.000 C 
ATOM      2  C   UNL     1       1.780   2.494  18.711  0.00  0.00    +0.000 A 
ATOM      3  C   UNL     1       3.046   2.121  18.280  0.00  0.00    +0.000 A 
ATOM      4  C   UNL     1       4.077   3.062  18.238  0.00  0.00    +0.000 A 
ATOM      5  C   UNL     1       3.884   4.403  18.613  0.00  0.00    +0.000 A 
ATOM      6  C   UNL     1       2.588   4.805  19.009  0.00  0.00    +0.000 A 
ATOM      7  C   UNL     1       1.567   3.827  19.083  0.00  0.00    +0.000 A 
ENDROOT
BRANCH   5   8
ATOM      8  N   UNL     1       4.983   5.295  18.593  0.00  0.00    +0.000 N 
ATOM      9  C   UNL     1       5.790   5.619  17.512  0.00  0.00    +0.000 C 
ATOM     10  O   UNL     1       5.731   5.085  16.408  0.00  0.00    +0.000 OA
ATOM     11  H   UNL     1       5.245   5.729  19.480  0.00  0.00    +0.000 HD
BRANCH   9  12
ATOM     12  C   UNL     1       6.776   6.651  17.786  0.00  0.00    +0.000 A 
ATOM     13  C   UNL     1       7.875   6.636  18.629  0.00  0.00    +0.000 A 
ATOM     14  C   UNL     1       8.523   7.883  18.479  0.00  0.00    +0.000 A 
ATOM     15  C   UNL     1       7.775   8.592  17.570  0.00  0.00    +0.000 A 
ATOM     16  O   UNL     1       6.712   7.859  17.151  0.00  0.00    +0.000 OA
ENDBRANCH   9  12
ENDBRANCH   5   8
BRANCH   6  17
ATOM     17  N   UNL     1       2.154   6.096  19.405  0.00  0.00    +0.000 N 
ATOM     18  C   UNL     1       2.347   7.332  18.826  0.00  0.00    +0.000 C 
ATOM     19  O   UNL     1       2.949   7.509  17.772  0.00  0.00    +0.000 OA
ATOM     20  H   UNL     1       1.515   6.115  20.191  0.00  0.00    +0.000 HD
BRANCH  18  21
ATOM     21  C   UNL     1       1.736   8.450  19.547  0.00  0.00    +0.000 A 
ATOM     22  C   UNL     1       1.517   8.530  20.912  0.00  0.00    +0.000 A 
ATOM     23  C   UNL     1       0.904   9.755  21.301  0.00  0.00    +0.000 A 
ATOM     24  C   UNL     1       0.669  10.577  20.222  0.00  0.00    +0.000 A 
ATOM     25  S   UNL     1       1.186   9.870  18.755  0.00  0.00    +0.000 S 
ENDBRANCH  18  21
ENDBRANCH   6  17
TORSDOF 4
ENDMDL
MODEL 2
REMARK VINA RESULT:      -6.7      3.460      5.389
REMARK  Name = 
REMARK  5 active torsions:
REMARK  status: ('A' for Active; 'I' for Inactive)
REMARK    1  A    between atoms: C_1  and  C_2
REMARK    2  A    between atoms: C_5  and  N_6
REMARK    3  A    between atoms: C_7  and  C_9
REMARK    4  A    between atoms: C_14  and  N_15
REMARK    5  A    between atoms: C_16  and  C_18
REMARK                            x       y       z     vdW  Elec       q    Type
REMARK                         _______ _______ _______ _____ _____    ______ ____
ROOT
ATOM      1  C   UNL     1       1.654   1.549  18.963  0.00  0.00    +0.000 C 
ATOM      2  C   UNL     1       2.674   2.644  18.849  0.00  0.00    +0.000 A 
ATOM      3  C   UNL     1       2.936   3.487  19.920  0.00  0.00    +0.000 A 
ATOM      4  C   UNL     1       3.880   4.508  19.793  0.00  0.00    +0.000 A 
ATOM      5  C   UNL     1       4.599   4.719  18.605  0.00  0.00    +0.000 A 
ATOM      6  C   UNL     1       4.375   3.838  17.523  0.00  0.00    +0.000 A 
ATOM      7  C   UNL     1       3.386   2.835  17.659  0.00  0.00    +0.000 A 
ENDROOT
BRANCH   5   8
ATOM      8  N   UNL     1       5.508   5.802  18.526  0.00  0.00    +0.000 N 
ATOM      9  C   UNL     1       6.886   5.742  18.375  0.00  0.00    +0.000 C 
ATOM     10  O   UNL     1       7.548   4.708  18.393  0.00  0.00    +0.000 OA
ATOM     11  H   UNL     1       5.120   6.742  18.627  0.00  0.00    +0.000 HD
BRANCH   9  12
ATOM     12  C   UNL     1       7.532   7.035  18.222  0.00  0.00    +0.000 A 
ATOM     13  C   UNL     1       7.287   8.055  17.318  0.00  0.00    +0.000 A 
ATOM     14  C   UNL     1       8.169   9.110  17.642  0.00  0.00    +0.000 A 
ATOM     15  C   UNL     1       8.914   8.668  18.709  0.00  0.00    +0.000 A 
ATOM     16  O   UNL     1       8.541   7.411  19.063  0.00  0.00    +0.000 OA
ENDBRANCH   9  12
ENDBRANCH   5   8
BRANCH   6  17
ATOM     17  N   UNL     1       4.994   3.841  16.247  0.00  0.00    +0.000 N 
ATOM     18  C   UNL     1       5.233   4.870  15.361  0.00  0.00    +0.000 C 
ATOM     19  O   UNL     1       4.951   6.043  15.580  0.00  0.00    +0.000 OA
ATOM     20  H   UNL     1       5.419   2.964  15.970  0.00  0.00    +0.000 HD
BRANCH  18  21
ATOM     21  C   UNL     1       5.903   4.470  14.122  0.00  0.00    +0.000 A 
ATOM     22  C   UNL     1       5.416   3.592  13.168  0.00  0.00    +0.000 A 
ATOM     23  C   UNL     1       6.311   3.415  12.074  0.00  0.00    +0.000 A 
ATOM     24  C   UNL     1       7.458   4.160  12.223  0.00  0.00    +0.000 A 
ATOM     25  S   UNL     1       7.449   5.064  13.673  0.00  0.00    +0.000 S 
ENDBRANCH  18  21
ENDBRANCH   6  17
TORSDOF 4
ENDMDL
MODEL 3
REMARK VINA RESULT:      -6.7      3.503      5.008
REMARK  Name = 
REMARK  5 active torsions:
REMARK  status: ('A' for Active; 'I' for Inactive)
REMARK    1  A    between atoms: C_1  and  C_2
REMARK    2  A    between atoms: C_5  and  N_6
REMARK    3  A    between atoms: C_7  and  C_9
REMARK    4  A    between atoms: C_14  and  N_15
REMARK    5  A    between atoms: C_16  and  C_18
REMARK                            x       y       z     vdW  Elec       q    Type
REMARK                         _______ _______ _______ _____ _____    ______ ____
ROOT
ATOM      1  C   UNL     1       2.837   2.707  21.261  0.00  0.00    +0.000 C 
ATOM      2  C   UNL     1       3.439   2.907  19.902  0.00  0.00    +0.000 A 
ATOM      3  C   UNL     1       3.138   2.046  18.856  0.00  0.00    +0.000 A 
ATOM      4  C   UNL     1       3.717   2.241  17.600  0.00  0.00    +0.000 A 
ATOM      5  C   UNL     1       4.604   3.299  17.340  0.00  0.00    +0.000 A 
ATOM      6  C   UNL     1       4.881   4.210  18.384  0.00  0.00    +0.000 A 
ATOM      7  C   UNL     1       4.316   3.971  19.660  0.00  0.00    +0.000 A 
ENDROOT
BRANCH   5   8
ATOM      8  N   UNL     1       5.193   3.413  16.057  0.00  0.00    +0.000 N 
ATOM      9  C   UNL     1       5.354   4.563  15.298  0.00  0.00    +0.000 C 
ATOM     10  O   UNL     1       4.902   5.666  15.593  0.00  0.00    +0.000 OA
ATOM     11  H   UNL     1       5.507   2.548  15.612  0.00  0.00    +0.000 HD
BRANCH   9  12
ATOM     12  C   UNL     1       6.092   4.370  14.062  0.00  0.00    +0.000 A 
ATOM     13  C   UNL     1       5.862   3.499  13.009  0.00  0.00    +0.000 A 
ATOM     14  C   UNL     1       6.855   3.759  12.038  0.00  0.00    +0.000 A 
ATOM     15  C   UNL     1       7.644   4.756  12.559  0.00  0.00    +0.000 A 
ATOM     16  O   UNL     1       7.196   5.127  13.786  0.00  0.00    +0.000 OA
ENDBRANCH   9  12
ENDBRANCH   5   8
BRANCH   6  17
ATOM     17  N   UNL     1       5.718   5.354  18.350  0.00  0.00    +0.000 N 
ATOM     18  C   UNL     1       7.091   5.471  18.394  0.00  0.00    +0.000 C 
ATOM     19  O   UNL     1       7.860   4.517  18.440  0.00  0.00    +0.000 OA
ATOM     20  H   UNL     1       5.245   6.231  18.169  0.00  0.00    +0.000 HD
BRANCH  18  21
ATOM     21  C   UNL     1       7.592   6.846  18.341  0.00  0.00    +0.000 A 
ATOM     22  C   UNL     1       8.550   7.408  19.167  0.00  0.00    +0.000 A 
ATOM     23  C   UNL     1       8.819   8.771  18.853  0.00  0.00    +0.000 A 
ATOM     24  C   UNL     1       8.056   9.214  17.797  0.00  0.00    +0.000 A 
ATOM     25  S   UNL     1       7.027   7.991  17.194  0.00  0.00    +0.000 S 
ENDBRANCH  18  21
ENDBRANCH   6  17
TORSDOF 4
ENDMDL
MODEL 4
REMARK VINA RESULT:      -6.6      2.650      5.318
REMARK  Name = 
REMARK  5 active torsions:
REMARK  status: ('A' for Active; 'I' for Inactive)
REMARK    1  A    between atoms: C_1  and  C_2
REMARK    2  A    between atoms: C_5  and  N_6
REMARK    3  A    between atoms: C_7  and  C_9
REMARK    4  A    between atoms: C_14  and  N_15
REMARK    5  A    between atoms: C_16  and  C_18
REMARK                            x       y       z     vdW  Elec       q    Type
REMARK                         _______ _______ _______ _____ _____    ______ ____
ROOT
ATOM      1  C   UNL     1       0.184  10.508  20.243  0.00  0.00    +0.000 C 
ATOM      2  C   UNL     1       1.099   9.628  19.444  0.00  0.00    +0.000 A 
ATOM      3  C   UNL     1       1.733  10.108  18.306  0.00  0.00    +0.000 A 
ATOM      4  C   UNL     1       2.573   9.272  17.567  0.00  0.00    +0.000 A 
ATOM      5  C   UNL     1       2.819   7.939  17.939  0.00  0.00    +0.000 A 
ATOM      6  C   UNL     1       2.217   7.454  19.122  0.00  0.00    +0.000 A 
ATOM      7  C   UNL     1       1.337   8.305  19.833  0.00  0.00    +0.000 A 
ENDROOT
BRANCH   5   8
ATOM      8  N   UNL     1       3.643   7.130  17.120  0.00  0.00    +0.000 N 
ATOM      9  C   UNL     1       4.791   6.445  17.490  0.00  0.00    +0.000 C 
ATOM     10  O   UNL     1       5.332   6.526  18.590  0.00  0.00    +0.000 OA
ATOM     11  H   UNL     1       3.395   7.066  16.131  0.00  0.00    +0.000 HD
BRANCH   9  12
ATOM     12  C   UNL     1       5.360   5.614  16.442  0.00  0.00    +0.000 A 
ATOM     13  C   UNL     1       4.919   4.410  15.918  0.00  0.00    +0.000 A 
ATOM     14  C   UNL     1       5.818   4.060  14.885  0.00  0.00    +0.000 A 
ATOM     15  C   UNL     1       6.764   5.057  14.851  0.00  0.00    +0.000 A 
ATOM     16  O   UNL     1       6.501   5.997  15.794  0.00  0.00    +0.000 OA
ENDBRANCH   9  12
ENDBRANCH   5   8
BRANCH   6  17
ATOM     17  N   UNL     1       2.336   6.165  19.702  0.00  0.00    +0.000 N 
ATOM     18  C   UNL     1       2.099   4.913  19.176  0.00  0.00    +0.000 C 
ATOM     19  O   UNL     1       1.750   4.709  18.018  0.00  0.00    +0.000 OA
ATOM     20  H   UNL     1       2.754   6.143  20.624  0.00  0.00    +0.000 HD
BRANCH  18  21
ATOM     21  C   UNL     1       2.334   3.804  20.103  0.00  0.00    +0.000 A 
ATOM     22  C   UNL     1       1.434   3.292  21.022  0.00  0.00    +0.000 A 
ATOM     23  C   UNL     1       1.971   2.208  21.775  0.00  0.00    +0.000 A 
ATOM     24  C   UNL     1       3.267   1.924  21.412  0.00  0.00    +0.000 A 
ATOM     25  S   UNL     1       3.827   2.959  20.173  0.00  0.00    +0.000 S 
ENDBRANCH  18  21
ENDBRANCH   6  17
TORSDOF 4
ENDMDL
MODEL 5
REMARK VINA RESULT:      -6.5      0.964      1.057
REMARK  Name = 
REMARK  5 active torsions:
REMARK  status: ('A' for Active; 'I' for Inactive)
REMARK    1  A    between atoms: C_1  and  C_2
REMARK    2  A    between atoms: C_5  and  N_6
REMARK    3  A    between atoms: C_7  and  C_9
REMARK    4  A    between atoms: C_14  and  N_15
REMARK    5  A    between atoms: C_16  and  C_18
REMARK                            x       y       z     vdW  Elec       q    Type
REMARK                         _______ _______ _______ _____ _____    ______ ____
ROOT
ATOM      1  C   UNL     1       0.661   1.866  18.853  0.00  0.00    +0.000 C 
ATOM      2  C   UNL     1       1.803   2.835  18.772  0.00  0.00    +0.000 A 
ATOM      3  C   UNL     1       3.108   2.387  18.626  0.00  0.00    +0.000 A 
ATOM      4  C   UNL     1       4.161   3.303  18.565  0.00  0.00    +0.000 A 
ATOM      5  C   UNL     1       3.951   4.691  18.635  0.00  0.00    +0.000 A 
ATOM      6  C   UNL     1       2.622   5.161  18.736  0.00  0.00    +0.000 A 
ATOM      7  C   UNL     1       1.574   4.215  18.838  0.00  0.00    +0.000 A 
ENDROOT
BRANCH   5   8
ATOM      8  N   UNL     1       5.065   5.564  18.614  0.00  0.00    +0.000 N 
ATOM      9  C   UNL     1       5.879   5.872  17.533  0.00  0.00    +0.000 C 
ATOM     10  O   UNL     1       5.811   5.337  16.430  0.00  0.00    +0.000 OA
ATOM     11  H   UNL     1       5.334   5.995  19.500  0.00  0.00    +0.000 HD
BRANCH   9  12
ATOM     12  C   UNL     1       6.883   6.886  17.806  0.00  0.00    +0.000 A 
ATOM     13  C   UNL     1       8.017   6.832  18.598  0.00  0.00    +0.000 A 
ATOM     14  C   UNL     1       8.667   8.080  18.471  0.00  0.00    +0.000 A 
ATOM     15  C   UNL     1       7.883   8.831  17.627  0.00  0.00    +0.000 A 
ATOM     16  O   UNL     1       6.798   8.121  17.225  0.00  0.00    +0.000 OA
ENDBRANCH   9  12
ENDBRANCH   5   8
BRANCH   6  17
ATOM     17  N   UNL     1       2.169   6.503  18.798  0.00  0.00    +0.000 N 
ATOM     18  C   UNL     1       1.897   7.316  19.879  0.00  0.00    +0.000 C 
ATOM     19  O   UNL     1       2.050   6.977  21.047  0.00  0.00    +0.000 OA
ATOM     20  H   UNL     1       2.126   6.987  17.910  0.00  0.00    +0.000 HD
BRANCH  18  21
ATOM     21  C   UNL     1       1.437   8.662  19.533  0.00  0.00    +0.000 A 
ATOM     22  C   UNL     1       0.677   9.504  20.328  0.00  0.00    +0.000 A 
ATOM     23  C   UNL     1       0.397  10.751  19.702  0.00  0.00    +0.000 A 
ATOM     24  C   UNL     1       0.948  10.828  18.443  0.00  0.00    +0.000 A 
ATOM     25  S   UNL     1       1.795   9.403  18.027  0.00  0.00    +0.000 S 
ENDBRANCH  18  21
ENDBRANCH   6  17
TORSDOF 4
ENDMDL
MODEL 6
REMARK VINA RESULT:      -6.4      3.663      5.314
REMARK  Name = 
REMARK  5 active torsions:
REMARK  status: ('A' for Active; 'I' for Inactive)
REMARK    1  A    between atoms: C_1  and  C_2
REMARK    2  A    between atoms: C_5  and  N_6
REMARK    3  A    between atoms: C_7  and  C_9
REMARK    4  A    between atoms: C_14  and  N_15
REMARK    5  A    between atoms: C_16  and  C_18
REMARK                            x       y       z     vdW  Elec       q    Type
REMARK                         _______ _______ _______ _____ _____    ______ ____
ROOT
ATOM      1  C   UNL     1       5.886   2.104  11.428  0.00  0.00    +0.000 C 
ATOM      2  C   UNL     1       6.150   3.114  12.505  0.00  0.00    +0.000 A 
ATOM      3  C   UNL     1       6.970   4.209  12.269  0.00  0.00    +0.000 A 
ATOM      4  C   UNL     1       7.215   5.134  13.287  0.00  0.00    +0.000 A 
ATOM      5  C   UNL     1       6.647   5.007  14.566  0.00  0.00    +0.000 A 
ATOM      6  C   UNL     1       5.773   3.922  14.804  0.00  0.00    +0.000 A 
ATOM      7  C   UNL     1       5.570   2.975  13.772  0.00  0.00    +0.000 A 
ENDROOT
BRANCH   5   8
ATOM      8  N   UNL     1       6.973   5.953  15.568  0.00  0.00    +0.000 N 
ATOM      9  C   UNL     1       7.569   5.713  16.797  0.00  0.00    +0.000 C 
ATOM     10  O   UNL     1       7.814   4.599  17.252  0.00  0.00    +0.000 OA
ATOM     11  H   UNL     1       6.710   6.924  15.392  0.00  0.00    +0.000 HD
BRANCH   9  12
ATOM     12  C   UNL     1       7.870   6.910  17.564  0.00  0.00    +0.000 A 
ATOM     13  C   UNL     1       8.320   7.047  18.867  0.00  0.00    +0.000 A 
ATOM     14  C   UNL     1       8.496   8.431  19.096  0.00  0.00    +0.000 A 
ATOM     15  C   UNL     1       8.125   9.058  17.930  0.00  0.00    +0.000 A 
ATOM     16  O   UNL     1       7.738   8.148  17.000  0.00  0.00    +0.000 OA
ENDBRANCH   9  12
ENDBRANCH   5   8
BRANCH   6  17
ATOM     17  N   UNL     1       5.072   3.606  15.996  0.00  0.00    +0.000 N 
ATOM     18  C   UNL     1       4.352   4.403  16.861  0.00  0.00    +0.000 C 
ATOM     19  O   UNL     1       4.168   5.604  16.694  0.00  0.00    +0.000 OA
ATOM     20  H   UNL     1       5.003   2.618  16.208  0.00  0.00    +0.000 HD
BRANCH  18  21
ATOM     21  C   UNL     1       3.770   3.698  18.004  0.00  0.00    +0.000 A 
ATOM     22  C   UNL     1       4.179   3.787  19.324  0.00  0.00    +0.000 A 
ATOM     23  C   UNL     1       3.402   2.976  20.199  0.00  0.00    +0.000 A 
ATOM     24  C   UNL     1       2.421   2.287  19.523  0.00  0.00    +0.000 A 
ATOM     25  S   UNL     1       2.444   2.620  17.847  0.00  0.00    +0.000 S 
ENDBRANCH  18  21
ENDBRANCH   6  17
TORSDOF 4
ENDMDL
MODEL 7
REMARK VINA RESULT:      -6.3      2.337      2.798
REMARK  Name = 
REMARK  5 active torsions:
REMARK  status: ('A' for Active; 'I' for Inactive)
REMARK    1  A    between atoms: C_1  and  C_2
REMARK    2  A    between atoms: C_5  and  N_6
REMARK    3  A    between atoms: C_7  and  C_9
REMARK    4  A    between atoms: C_14  and  N_15
REMARK    5  A    between atoms: C_16  and  C_18
REMARK                            x       y       z     vdW  Elec       q    Type
REMARK                         _______ _______ _______ _____ _____    ______ ____
ROOT
ATOM      1  C   UNL     1       1.116   2.463  22.330  0.00  0.00    +0.000 C 
ATOM      2  C   UNL     1       1.882   2.867  21.105  0.00  0.00    +0.000 A 
ATOM      3  C   UNL     1       2.648   1.944  20.407  0.00  0.00    +0.000 A 
ATOM      4  C   UNL     1       3.364   2.340  19.275  0.00  0.00    +0.000 A 
ATOM      5  C   UNL     1       3.334   3.660  18.795  0.00  0.00    +0.000 A 
ATOM      6  C   UNL     1       2.520   4.598  19.469  0.00  0.00    +0.000 A 
ATOM      7  C   UNL     1       1.835   4.186  20.638  0.00  0.00    +0.000 A 
ENDROOT
BRANCH   5   8
ATOM      8  N   UNL     1       4.120   4.007  17.669  0.00  0.00    +0.000 N 
ATOM      9  C   UNL     1       5.480   4.280  17.638  0.00  0.00    +0.000 C 
ATOM     10  O   UNL     1       6.201   4.362  18.628  0.00  0.00    +0.000 OA
ATOM     11  H   UNL     1       3.633   4.108  16.777  0.00  0.00    +0.000 HD
BRANCH   9  12
ATOM     12  C   UNL     1       6.018   4.504  16.307  0.00  0.00    +0.000 A 
ATOM     13  C   UNL     1       5.389   4.483  15.073  0.00  0.00    +0.000 A 
ATOM     14  C   UNL     1       6.367   4.817  14.109  0.00  0.00    +0.000 A 
ATOM     15  C   UNL     1       7.537   5.003  14.805  0.00  0.00    +0.000 A 
ATOM     16  O   UNL     1       7.339   4.809  16.134  0.00  0.00    +0.000 OA
ENDBRANCH   9  12
ENDBRANCH   5   8
BRANCH   6  17
ATOM     17  N   UNL     1       2.317   5.967  19.158  0.00  0.00    +0.000 N 
ATOM     18  C   UNL     1       1.932   7.027  19.951  0.00  0.00    +0.000 C 
ATOM     19  O   UNL     1       1.721   6.940  21.156  0.00  0.00    +0.000 OA
ATOM     20  H   UNL     1       2.588   6.243  18.222  0.00  0.00    +0.000 HD
BRANCH  18  21
ATOM     21  C   UNL     1       1.825   8.309  19.253  0.00  0.00    +0.000 A 
ATOM     22  C   UNL     1       2.415   8.642  18.045  0.00  0.00    +0.000 A 
ATOM     23  C   UNL     1       2.114   9.972  17.632  0.00  0.00    +0.000 A 
ATOM     24  C   UNL     1       1.305  10.619  18.538  0.00  0.00    +0.000 A 
ATOM     25  S   UNL     1       0.915   9.626  19.873  0.00  0.00    +0.000 S 
ENDBRANCH  18  21
ENDBRANCH   6  17
TORSDOF 4
ENDMDL
MODEL 8
REMARK VINA RESULT:      -6.2      2.807      6.651
REMARK  Name = 
REMARK  5 active torsions:
REMARK  status: ('A' for Active; 'I' for Inactive)
REMARK    1  A    between atoms: C_1  and  C_2
REMARK    2  A    between atoms: C_5  and  N_6
REMARK    3  A    between atoms: C_7  and  C_9
REMARK    4  A    between atoms: C_14  and  N_15
REMARK    5  A    between atoms: C_16  and  C_18
REMARK                            x       y       z     vdW  Elec       q    Type
REMARK                         _______ _______ _______ _____ _____    ______ ____
ROOT
ATOM      1  C   UNL     1       1.679  11.403  17.985  0.00  0.00    +0.000 C 
ATOM      2  C   UNL     1       1.796  10.013  18.536  0.00  0.00    +0.000 A 
ATOM      3  C   UNL     1       1.080   9.632  19.663  0.00  0.00    +0.000 A 
ATOM      4  C   UNL     1       1.210   8.337  20.170  0.00  0.00    +0.000 A 
ATOM      5  C   UNL     1       2.045   7.378  19.572  0.00  0.00    +0.000 A 
ATOM      6  C   UNL     1       2.742   7.740  18.397  0.00  0.00    +0.000 A 
ATOM      7  C   UNL     1       2.628   9.069  17.923  0.00  0.00    +0.000 A 
ENDROOT
BRANCH   5   8
ATOM      8  N   UNL     1       2.167   6.098  20.163  0.00  0.00    +0.000 N 
ATOM      9  C   UNL     1       1.911   4.867  19.578  0.00  0.00    +0.000 C 
ATOM     10  O   UNL     1       1.427   4.709  18.460  0.00  0.00    +0.000 OA
ATOM     11  H   UNL     1       2.441   6.066  21.147  0.00  0.00    +0.000 HD
BRANCH   9  12
ATOM     12  C   UNL     1       2.232   3.724  20.415  0.00  0.00    +0.000 A 
ATOM     13  C   UNL     1       1.460   3.057  21.353  0.00  0.00    +0.000 A 
ATOM     14  C   UNL     1       2.243   1.986  21.841  0.00  0.00    +0.000 A 
ATOM     15  C   UNL     1       3.451   2.072  21.191  0.00  0.00    +0.000 A 
ATOM     16  O   UNL     1       3.458   3.123  20.332  0.00  0.00    +0.000 OA
ENDBRANCH   9  12
ENDBRANCH   5   8
BRANCH   6  17
ATOM     17  N   UNL     1       3.616   6.943  17.615  0.00  0.00    +0.000 N 
ATOM     18  C   UNL     1       4.680   6.145  17.978  0.00  0.00    +0.000 C 
ATOM     19  O   UNL     1       5.039   5.967  19.137  0.00  0.00    +0.000 OA
ATOM     20  H   UNL     1       3.368   6.862  16.636  0.00  0.00    +0.000 HD
BRANCH  18  21
ATOM     21  C   UNL     1       5.350   5.471  16.865  0.00  0.00    +0.000 A 
ATOM     22  C   UNL     1       4.790   4.540  16.006  0.00  0.00    +0.000 A 
ATOM     23  C   UNL     1       5.708   4.074  15.022  0.00  0.00    +0.000 A 
ATOM     24  C   UNL     1       6.946   4.659  15.158  0.00  0.00    +0.000 A 
ATOM     25  S   UNL     1       6.993   5.761  16.463  0.00  0.00    +0.000 S 
ENDBRANCH  18  21
ENDBRANCH   6  17
TORSDOF 4
ENDMDL
MODEL 9
REMARK VINA RESULT:      -6.2      1.384      1.686
REMARK  Name = 
REMARK  5 active torsions:
REMARK  status: ('A' for Active; 'I' for Inactive)
REMARK    1  A    between atoms: C_1  and  C_2
REMARK    2  A    between atoms: C_5  and  N_6
REMARK    3  A    between atoms: C_7  and  C_9
REMARK    4  A    between atoms: C_14  and  N_15
REMARK    5  A    between atoms: C_16  and  C_18
REMARK                            x       y       z     vdW  Elec       q    Type
REMARK                         _______ _______ _______ _____ _____    ______ ____
ROOT
ATOM      1  C   UNL     1       1.737   2.185  17.872  0.00  0.00    +0.000 C 
ATOM      2  C   UNL     1       2.766   3.272  17.968  0.00  0.00    +0.000 A 
ATOM      3  C   UNL     1       4.119   2.985  17.849  0.00  0.00    +0.000 A 
ATOM      4  C   UNL     1       5.063   4.009  17.953  0.00  0.00    +0.000 A 
ATOM      5  C   UNL     1       4.696   5.348  18.167  0.00  0.00    +0.000 A 
ATOM      6  C   UNL     1       3.320   5.659  18.242  0.00  0.00    +0.000 A 
ATOM      7  C   UNL     1       2.381   4.602  18.175  0.00  0.00    +0.000 A 
ENDROOT
BRANCH   5   8
ATOM      8  N   UNL     1       5.705   6.331  18.310  0.00  0.00    +0.000 N 
ATOM      9  C   UNL     1       6.597   6.775  17.345  0.00  0.00    +0.000 C 
ATOM     10  O   UNL     1       6.712   6.292  16.221  0.00  0.00    +0.000 OA
ATOM     11  H   UNL     1       5.825   6.742  19.238  0.00  0.00    +0.000 HD
BRANCH   9  12
ATOM     12  C   UNL     1       7.449   7.872  17.771  0.00  0.00    +0.000 A 
ATOM     13  C   UNL     1       8.467   7.901  18.711  0.00  0.00    +0.000 A 
ATOM     14  C   UNL     1       8.999   9.210  18.698  0.00  0.00    +0.000 A 
ATOM     15  C   UNL     1       8.265   9.908  17.769  0.00  0.00    +0.000 A 
ATOM     16  O   UNL     1       7.321   9.111  17.208  0.00  0.00    +0.000 OA
ENDBRANCH   9  12
ENDBRANCH   5   8
BRANCH   6  17
ATOM     17  N   UNL     1       2.717   6.929  18.430  0.00  0.00    +0.000 N 
ATOM     18  C   UNL     1       2.096   7.481  19.530  0.00  0.00    +0.000 C 
ATOM     19  O   UNL     1       1.993   6.918  20.614  0.00  0.00    +0.000 OA
ATOM     20  H   UNL     1       2.840   7.583  17.667  0.00  0.00    +0.000 HD
BRANCH  18  21
ATOM     21  C   UNL     1       1.586   8.839  19.330  0.00  0.00    +0.000 A 
ATOM     22  C   UNL     1       1.788   9.641  18.220  0.00  0.00    +0.000 A 
ATOM     23  C   UNL     1       1.155  10.912  18.334  0.00  0.00    +0.000 A 
ATOM     24  C   UNL     1       0.489  11.047  19.530  0.00  0.00    +0.000 A 
ATOM     25  S   UNL     1       0.629   9.649  20.503  0.00  0.00    +0.000 S 
ENDBRANCH  18  21
ENDBRANCH   6  17
TORSDOF 4
ENDMDL
