MODEL 1
REMARK VINA RESULT:      -8.6      0.000      0.000
REMARK  Name = 
REMARK  5 active torsions:
REMARK  status: ('A' for Active; 'I' for Inactive)
REMARK    1  A    between atoms: C_1  and  O_2
REMARK    2  A    between atoms: O_2  and  C_3
REMARK    3  A    between atoms: C_7  and  C_8
REMARK    4  A    between atoms: N_10  and  C_11
REMARK    5  A    between atoms: C_18  and  C_19
REMARK                            x       y       z     vdW  Elec       q    Type
REMARK                         _______ _______ _______ _____ _____    ______ ____
ROOT
ATOM      1  C   UNL     1       1.923   6.633  20.053  0.00  0.00    +0.000 A 
ATOM      2  N   UNL     1       1.237   7.305  20.989  0.00  0.00    +0.000 NA
ATOM      3  N   UNL     1       1.165   8.578  20.585  0.00  0.00    +0.000 N 
ATOM      4  C   UNL     1       1.934   8.764  19.458  0.00  0.00    +0.000 A 
ATOM      5  C   UNL     1       2.404   7.521  19.027  0.00  0.00    +0.000 A 
ENDROOT
BRANCH   5   6
ATOM      6  C   UNL     1       3.226   7.248  17.810  0.00  0.00    +0.000 C 
ATOM      7  O   UNL     1       2.953   7.772  16.731  0.00  0.00    +0.000 OA
ATOM      8  N   UNL     1       4.369   6.391  17.815  0.00  0.00    +0.000 N 
ATOM      9  N   UNL     1       4.779   5.881  19.009  0.00  0.00    +0.000 NA
ATOM     10  N   UNL     1       5.833   5.111  18.824  0.00  0.00    +0.000 NA
ATOM     11  C   UNL     1       6.150   5.142  17.505  0.00  0.00    +0.000 A 
ATOM     12  C   UNL     1       7.206   4.490  16.850  0.00  0.00    +0.000 A 
ATOM     13  C   UNL     1       7.361   4.672  15.472  0.00  0.00    +0.000 A 
ATOM     14  C   UNL     1       6.467   5.486  14.776  0.00  0.00    +0.000 A 
ATOM     15  C   UNL     1       5.398   6.148  15.422  0.00  0.00    +0.000 A 
ATOM     16  C   UNL     1       5.255   5.959  16.809  0.00  0.00    +0.000 A 
ENDBRANCH   5   6
BRANCH   1  21
ATOM     17  C   UNL     1       1.700   2.904  19.455  0.00  0.00    +0.000 A 
ATOM     18  C   UNL     1       1.753   2.432  20.772  0.00  0.00    +0.000 A 
ATOM     19  C   UNL     1       1.910   3.316  21.832  0.00  0.00    +0.000 A 
ATOM     20  C   UNL     1       2.023   4.679  21.571  0.00  0.00    +0.000 A 
ATOM     21  C   UNL     1       1.981   5.178  20.252  0.00  0.00    +0.000 A 
ATOM     22  C   UNL     1       1.814   4.277  19.196  0.00  0.00    +0.000 A 
BRANCH  17  24
ATOM     23  C   UNL     1       2.474   1.827  17.486  0.00  0.00    +0.000 C 
ATOM     24  O   UNL     1       1.507   1.922  18.522  0.00  0.00    +0.000 OA
ENDBRANCH  17  24
ENDBRANCH   1  21
BRANCH   3  25
ATOM     25  C   UNL     1       0.345   9.498  21.308  0.00  0.00    +0.000 A 
ATOM     26  C   UNL     1      -0.071  10.687  20.674  0.00  0.00    +0.000 A 
ATOM     27  C   UNL     1      -0.834  11.636  21.360  0.00  0.00    +0.000 A 
ATOM     28  C   UNL     1      -1.189  11.411  22.686  0.00  0.00    +0.000 A 
ATOM     29  C   UNL     1      -0.787  10.236  23.323  0.00  0.00    +0.000 A 
ATOM     30  C   UNL     1      -0.025   9.277  22.640  0.00  0.00    +0.000 A 
ENDBRANCH   3  25
TORSDOF 4
ENDMDL
MODEL 2
REMARK VINA RESULT:      -8.6      1.036      1.305
REMARK  Name = 
REMARK  5 active torsions:
REMARK  status: ('A' for Active; 'I' for Inactive)
REMARK    1  A    between atoms: C_1  and  O_2
REMARK    2  A    between atoms: O_2  and  C_3
REMARK    3  A    between atoms: C_7  and  C_8
REMARK    4  A    between atoms: N_10  and  C_11
REMARK    5  A    between atoms: C_18  and  C_19
REMARK                            x       y       z     vdW  Elec       q    Type
REMARK                         _______ _______ _______ _____ _____    ______ ____
ROOT
ATOM      1  C   UNL     1       1.735   6.508  20.234  0.00  0.00    +0.000 A 
ATOM      2  N   UNL     1       1.061   7.229  21.142  0.00  0.00    +0.000 NA
ATOM      3  N   UNL     1       1.086   8.501  20.732  0.00  0.00    +0.000 N 
ATOM      4  C   UNL     1       1.905   8.631  19.633  0.00  0.00    +0.000 A 
ATOM      5  C   UNL     1       2.310   7.358  19.223  0.00  0.00    +0.000 A 
ENDROOT
BRANCH   5   6
ATOM      6  C   UNL     1       3.155   7.026  18.037  0.00  0.00    +0.000 C 
ATOM      7  O   UNL     1       2.847   7.415  16.912  0.00  0.00    +0.000 OA
ATOM      8  N   UNL     1       4.361   6.265  18.126  0.00  0.00    +0.000 N 
ATOM      9  N   UNL     1       4.804   5.912  19.364  0.00  0.00    +0.000 NA
ATOM     10  N   UNL     1       5.915   5.211  19.255  0.00  0.00    +0.000 NA
ATOM     11  C   UNL     1       6.234   5.132  17.939  0.00  0.00    +0.000 A 
ATOM     12  C   UNL     1       7.340   4.499  17.350  0.00  0.00    +0.000 A 
ATOM     13  C   UNL     1       7.486   4.551  15.959  0.00  0.00    +0.000 A 
ATOM     14  C   UNL     1       6.535   5.219  15.187  0.00  0.00    +0.000 A 
ATOM     15  C   UNL     1       5.416   5.859  15.766  0.00  0.00    +0.000 A 
ATOM     16  C   UNL     1       5.281   5.802  17.166  0.00  0.00    +0.000 A 
ENDBRANCH   5   6
BRANCH   1  21
ATOM     17  C   UNL     1       2.745   2.955  21.052  0.00  0.00    +0.000 A 
ATOM     18  C   UNL     1       1.687   2.250  20.469  0.00  0.00    +0.000 A 
ATOM     19  C   UNL     1       0.636   2.927  19.863  0.00  0.00    +0.000 A 
ATOM     20  C   UNL     1       0.642   4.320  19.849  0.00  0.00    +0.000 A 
ATOM     21  C   UNL     1       1.693   5.054  20.439  0.00  0.00    +0.000 A 
ATOM     22  C   UNL     1       2.748   4.358  21.037  0.00  0.00    +0.000 A 
BRANCH  17  24
ATOM     23  C   UNL     1       4.753   1.741  20.693  0.00  0.00    +0.000 C 
ATOM     24  O   UNL     1       3.722   2.155  21.578  0.00  0.00    +0.000 OA
ENDBRANCH  17  24
ENDBRANCH   1  21
BRANCH   3  25
ATOM     25  C   UNL     1       0.301   9.476  21.422  0.00  0.00    +0.000 A 
ATOM     26  C   UNL     1       0.013  10.699  20.782  0.00  0.00    +0.000 A 
ATOM     27  C   UNL     1      -0.711  11.698  21.438  0.00  0.00    +0.000 A 
ATOM     28  C   UNL     1      -1.153  11.490  22.740  0.00  0.00    +0.000 A 
ATOM     29  C   UNL     1      -0.877  10.282  23.383  0.00  0.00    +0.000 A 
ATOM     30  C   UNL     1      -0.156   9.273  22.729  0.00  0.00    +0.000 A 
ENDBRANCH   3  25
TORSDOF 4
ENDMDL
MODEL 3
REMARK VINA RESULT:      -8.6      4.258      6.887
REMARK  Name = 
REMARK  5 active torsions:
REMARK  status: ('A' for Active; 'I' for Inactive)
REMARK    1  A    between atoms: C_1  and  O_2
REMARK    2  A    between atoms: O_2  and  C_3
REMARK    3  A    between atoms: C_7  and  C_8
REMARK    4  A    between atoms: N_10  and  C_11
REMARK    5  A    between atoms: C_18  and  C_19
REMARK                            x       y       z     vdW  Elec       q    Type
REMARK                         _______ _______ _______ _____ _____    ______ ____
ROOT
ATOM      1  C   UNL     1      -0.338  11.686  18.749  0.00  0.00    +0.000 A 
ATOM      2  N   UNL     1      -0.048  12.969  18.486  0.00  0.00    +0.000 NA
ATOM      3  N   UNL     1       1.212  13.177  18.883  0.00  0.00    +0.000 N 
ATOM      4  C   UNL     1       1.692  12.069  19.544  0.00  0.00    +0.000 A 
ATOM      5  C   UNL     1       0.751  11.041  19.436  0.00  0.00    +0.000 A 
ENDROOT
BRANCH   5   6
ATOM      6  C   UNL     1       0.886   9.646  19.953  0.00  0.00    +0.000 C 
ATOM      7  O   UNL     1       0.301   9.290  20.974  0.00  0.00    +0.000 OA
ATOM      8  N   UNL     1       1.671   8.645  19.304  0.00  0.00    +0.000 N 
ATOM      9  N   UNL     1       2.244   8.957  18.108  0.00  0.00    +0.000 NA
ATOM     10  N   UNL     1       2.934   7.926  17.664  0.00  0.00    +0.000 NA
ATOM     11  C   UNL     1       2.787   6.909  18.550  0.00  0.00    +0.000 A 
ATOM     12  C   UNL     1       3.326   5.614  18.482  0.00  0.00    +0.000 A 
ATOM     13  C   UNL     1       3.035   4.708  19.507  0.00  0.00    +0.000 A 
ATOM     14  C   UNL     1       2.225   5.104  20.573  0.00  0.00    +0.000 A 
ATOM     15  C   UNL     1       1.677   6.403  20.654  0.00  0.00    +0.000 A 
ATOM     16  C   UNL     1       1.976   7.306  19.615  0.00  0.00    +0.000 A 
ENDBRANCH   5   6
BRANCH   1  21
ATOM     17  C   UNL     1      -3.019  10.156  16.562  0.00  0.00    +0.000 A 
ATOM     18  C   UNL     1      -4.167  10.696  17.153  0.00  0.00    +0.000 A 
ATOM     19  C   UNL     1      -4.068  11.504  18.278  0.00  0.00    +0.000 A 
ATOM     20  C   UNL     1      -2.812  11.767  18.819  0.00  0.00    +0.000 A 
ATOM     21  C   UNL     1      -1.640  11.228  18.246  0.00  0.00    +0.000 A 
ATOM     22  C   UNL     1      -1.756  10.423  17.109  0.00  0.00    +0.000 A 
BRANCH  17  24
ATOM     23  C   UNL     1      -3.521  10.127  14.242  0.00  0.00    +0.000 C 
ATOM     24  O   UNL     1      -3.270   9.411  15.442  0.00  0.00    +0.000 OA
ENDBRANCH  17  24
ENDBRANCH   1  21
BRANCH   3  25
ATOM     25  C   UNL     1       1.849  14.418  18.574  0.00  0.00    +0.000 A 
ATOM     26  C   UNL     1       1.167  15.623  18.844  0.00  0.00    +0.000 A 
ATOM     27  C   UNL     1       1.733  16.857  18.513  0.00  0.00    +0.000 A 
ATOM     28  C   UNL     1       2.984  16.904  17.907  0.00  0.00    +0.000 A 
ATOM     29  C   UNL     1       3.671  15.718  17.638  0.00  0.00    +0.000 A 
ATOM     30  C   UNL     1       3.111  14.476  17.972  0.00  0.00    +0.000 A 
ENDBRANCH   3  25
TORSDOF 4
ENDMDL
MODEL 4
REMARK VINA RESULT:      -8.4      4.385      7.151
REMARK  Name = 
REMARK  5 active torsions:
REMARK  status: ('A' for Active; 'I' for Inactive)
REMARK    1  A    between atoms: C_1  and  O_2
REMARK    2  A    between atoms: O_2  and  C_3
REMARK    3  A    between atoms: C_7  and  C_8
REMARK    4  A    between atoms: N_10  and  C_11
REMARK    5  A    between atoms: C_18  and  C_19
REMARK                            x       y       z     vdW  Elec       q    Type
REMARK                         _______ _______ _______ _____ _____    ______ ____
ROOT
ATOM      1  C   UNL     1      -0.334  11.780  18.745  0.00  0.00    +0.000 A 
ATOM      2  N   UNL     1      -0.025  13.055  18.469  0.00  0.00    +0.000 NA
ATOM      3  N   UNL     1       1.244  13.243  18.850  0.00  0.00    +0.000 N 
ATOM      4  C   UNL     1       1.711  12.131  19.513  0.00  0.00    +0.000 A 
ATOM      5  C   UNL     1       0.751  11.120  19.425  0.00  0.00    +0.000 A 
ENDROOT
BRANCH   5   6
ATOM      6  C   UNL     1       0.866   9.727  19.950  0.00  0.00    +0.000 C 
ATOM      7  O   UNL     1       0.273   9.385  20.973  0.00  0.00    +0.000 OA
ATOM      8  N   UNL     1       1.640   8.711  19.310  0.00  0.00    +0.000 N 
ATOM      9  N   UNL     1       2.219   9.008  18.114  0.00  0.00    +0.000 NA
ATOM     10  N   UNL     1       2.897   7.966  17.678  0.00  0.00    +0.000 NA
ATOM     11  C   UNL     1       2.735   6.957  18.570  0.00  0.00    +0.000 A 
ATOM     12  C   UNL     1       3.258   5.654  18.512  0.00  0.00    +0.000 A 
ATOM     13  C   UNL     1       2.951   4.758  19.542  0.00  0.00    +0.000 A 
ATOM     14  C   UNL     1       2.144   5.171  20.603  0.00  0.00    +0.000 A 
ATOM     15  C   UNL     1       1.613   6.479  20.675  0.00  0.00    +0.000 A 
ATOM     16  C   UNL     1       1.926   7.371  19.631  0.00  0.00    +0.000 A 
ENDBRANCH   5   6
BRANCH   1  21
ATOM     17  C   UNL     1      -4.074  11.337  18.381  0.00  0.00    +0.000 A 
ATOM     18  C   UNL     1      -4.117  10.209  17.554  0.00  0.00    +0.000 A 
ATOM     19  C   UNL     1      -2.943   9.635  17.083  0.00  0.00    +0.000 A 
ATOM     20  C   UNL     1      -1.720  10.199  17.436  0.00  0.00    +0.000 A 
ATOM     21  C   UNL     1      -1.650  11.342  18.262  0.00  0.00    +0.000 A 
ATOM     22  C   UNL     1      -2.841  11.903  18.735  0.00  0.00    +0.000 A 
BRANCH  17  24
ATOM     23  C   UNL     1      -6.423  10.994  18.387  0.00  0.00    +0.000 C 
ATOM     24  O   UNL     1      -5.305  11.768  18.795  0.00  0.00    +0.000 OA
ENDBRANCH  17  24
ENDBRANCH   1  21
BRANCH   3  25
ATOM     25  C   UNL     1       1.899  14.470  18.523  0.00  0.00    +0.000 A 
ATOM     26  C   UNL     1       3.211  14.427  18.005  0.00  0.00    +0.000 A 
ATOM     27  C   UNL     1       3.906  15.604  17.717  0.00  0.00    +0.000 A 
ATOM     28  C   UNL     1       3.304  16.837  17.944  0.00  0.00    +0.000 A 
ATOM     29  C   UNL     1       2.005  16.892  18.452  0.00  0.00    +0.000 A 
ATOM     30  C   UNL     1       1.299  15.715  18.739  0.00  0.00    +0.000 A 
ENDBRANCH   3  25
TORSDOF 4
ENDMDL
MODEL 5
REMARK VINA RESULT:      -8.3      4.271      6.960
REMARK  Name = 
REMARK  5 active torsions:
REMARK  status: ('A' for Active; 'I' for Inactive)
REMARK    1  A    between atoms: C_1  and  O_2
REMARK    2  A    between atoms: O_2  and  C_3
REMARK    3  A    between atoms: C_7  and  C_8
REMARK    4  A    between atoms: N_10  and  C_11
REMARK    5  A    between atoms: C_18  and  C_19
REMARK                            x       y       z     vdW  Elec       q    Type
REMARK                         _______ _______ _______ _____ _____    ______ ____
ROOT
ATOM      1  C   UNL     1      -0.700  11.945  18.876  0.00  0.00    +0.000 A 
ATOM      2  N   UNL     1      -0.572  13.274  18.750  0.00  0.00    +0.000 NA
ATOM      3  N   UNL     1       0.620  13.605  19.261  0.00  0.00    +0.000 N 
ATOM      4  C   UNL     1       1.203  12.509  19.856  0.00  0.00    +0.000 A 
ATOM      5  C   UNL     1       0.421  11.383  19.585  0.00  0.00    +0.000 A 
ENDROOT
BRANCH   5   6
ATOM      6  C   UNL     1       0.711   9.973  19.985  0.00  0.00    +0.000 C 
ATOM      7  O   UNL     1       0.273   9.511  21.037  0.00  0.00    +0.000 OA
ATOM      8  N   UNL     1       1.485   9.078  19.186  0.00  0.00    +0.000 N 
ATOM      9  N   UNL     1       1.893   9.507  17.959  0.00  0.00    +0.000 NA
ATOM     10  N   UNL     1       2.599   8.562  17.371  0.00  0.00    +0.000 NA
ATOM     11  C   UNL     1       2.626   7.484  18.194  0.00  0.00    +0.000 A 
ATOM     12  C   UNL     1       3.244   6.241  17.978  0.00  0.00    +0.000 A 
ATOM     13  C   UNL     1       3.135   5.253  18.962  0.00  0.00    +0.000 A 
ATOM     14  C   UNL     1       2.427   5.519  20.136  0.00  0.00    +0.000 A 
ATOM     15  C   UNL     1       1.803   6.765  20.367  0.00  0.00    +0.000 A 
ATOM     16  C   UNL     1       1.916   7.750  19.368  0.00  0.00    +0.000 A 
ENDBRANCH   5   6
BRANCH   1  21
ATOM     17  C   UNL     1      -2.975  10.189  16.416  0.00  0.00    +0.000 A 
ATOM     18  C   UNL     1      -4.225  10.619  16.875  0.00  0.00    +0.000 A 
ATOM     19  C   UNL     1      -4.324  11.427  18.000  0.00  0.00    +0.000 A 
ATOM     20  C   UNL     1      -3.163  11.800  18.674  0.00  0.00    +0.000 A 
ATOM     21  C   UNL     1      -1.892  11.373  18.236  0.00  0.00    +0.000 A 
ATOM     22  C   UNL     1      -1.808  10.567  17.096  0.00  0.00    +0.000 A 
BRANCH  17  24
ATOM     23  C   UNL     1      -3.482  10.080  14.099  0.00  0.00    +0.000 C 
ATOM     24  O   UNL     1      -3.032   9.430  15.279  0.00  0.00    +0.000 OA
ENDBRANCH  17  24
ENDBRANCH   1  21
BRANCH   3  25
ATOM     25  C   UNL     1       1.100  14.942  19.112  0.00  0.00    +0.000 A 
ATOM     26  C   UNL     1       2.466  15.207  19.339  0.00  0.00    +0.000 A 
ATOM     27  C   UNL     1       2.968  16.508  19.251  0.00  0.00    +0.000 A 
ATOM     28  C   UNL     1       2.114  17.560  18.939  0.00  0.00    +0.000 A 
ATOM     29  C   UNL     1       0.760  17.310  18.708  0.00  0.00    +0.000 A 
ATOM     30  C   UNL     1       0.249  16.006  18.790  0.00  0.00    +0.000 A 
ENDBRANCH   3  25
TORSDOF 4
ENDMDL
MODEL 6
REMARK VINA RESULT:      -8.1      4.454      7.226
REMARK  Name = 
REMARK  5 active torsions:
REMARK  status: ('A' for Active; 'I' for Inactive)
REMARK    1  A    between atoms: C_1  and  O_2
REMARK    2  A    between atoms: O_2  and  C_3
REMARK    3  A    between atoms: C_7  and  C_8
REMARK    4  A    between atoms: N_10  and  C_11
REMARK    5  A    between atoms: C_18  and  C_19
REMARK                            x       y       z     vdW  Elec       q    Type
REMARK                         _______ _______ _______ _____ _____    ______ ____
ROOT
ATOM      1  C   UNL     1      -0.697  11.999  18.758  0.00  0.00    +0.000 A 
ATOM      2  N   UNL     1      -0.518  13.311  18.544  0.00  0.00    +0.000 NA
ATOM      3  N   UNL     1       0.704  13.619  18.992  0.00  0.00    +0.000 N 
ATOM      4  C   UNL     1       1.262  12.536  19.635  0.00  0.00    +0.000 A 
ATOM      5  C   UNL     1       0.424  11.432  19.462  0.00  0.00    +0.000 A 
ENDROOT
BRANCH   5   6
ATOM      6  C   UNL     1       0.669  10.038  19.940  0.00  0.00    +0.000 C 
ATOM      7  O   UNL     1       0.194   9.641  21.003  0.00  0.00    +0.000 OA
ATOM      8  N   UNL     1       1.440   9.085  19.208  0.00  0.00    +0.000 N 
ATOM      9  N   UNL     1       1.889   9.441  17.972  0.00  0.00    +0.000 NA
ATOM     10  N   UNL     1       2.585   8.451  17.451  0.00  0.00    +0.000 NA
ATOM     11  C   UNL     1       2.565   7.416  18.327  0.00  0.00    +0.000 A 
ATOM     12  C   UNL     1       3.156   6.150  18.190  0.00  0.00    +0.000 A 
ATOM     13  C   UNL     1       2.999   5.216  19.220  0.00  0.00    +0.000 A 
ATOM     14  C   UNL     1       2.269   5.558  20.360  0.00  0.00    +0.000 A 
ATOM     15  C   UNL     1       1.670   6.829  20.512  0.00  0.00    +0.000 A 
ATOM     16  C   UNL     1       1.833   7.759  19.467  0.00  0.00    +0.000 A 
ENDBRANCH   5   6
BRANCH   1  21
ATOM     17  C   UNL     1      -4.349  11.204  18.173  0.00  0.00    +0.000 A 
ATOM     18  C   UNL     1      -4.236  10.086  17.340  0.00  0.00    +0.000 A 
ATOM     19  C   UNL     1      -2.987   9.631  16.936  0.00  0.00    +0.000 A 
ATOM     20  C   UNL     1      -1.846  10.306  17.363  0.00  0.00    +0.000 A 
ATOM     21  C   UNL     1      -1.935  11.442  18.196  0.00  0.00    +0.000 A 
ATOM     22  C   UNL     1      -3.199  11.882  18.601  0.00  0.00    +0.000 A 
BRANCH  17  24
ATOM     23  C   UNL     1      -6.457  10.436  18.952  0.00  0.00    +0.000 C 
ATOM     24  O   UNL     1      -5.638  11.512  18.516  0.00  0.00    +0.000 OA
ENDBRANCH  17  24
ENDBRANCH   1  21
BRANCH   3  25
ATOM     25  C   UNL     1       1.235  14.922  18.743  0.00  0.00    +0.000 A 
ATOM     26  C   UNL     1       0.350  16.017  18.668  0.00  0.00    +0.000 A 
ATOM     27  C   UNL     1       0.820  17.301  18.379  0.00  0.00    +0.000 A 
ATOM     28  C   UNL     1       2.178  17.507  18.160  0.00  0.00    +0.000 A 
ATOM     29  C   UNL     1       3.065  16.431  18.235  0.00  0.00    +0.000 A 
ATOM     30  C   UNL     1       2.600  15.140  18.529  0.00  0.00    +0.000 A 
ENDBRANCH   3  25
TORSDOF 4
ENDMDL
MODEL 7
REMARK VINA RESULT:      -8.1      3.436      6.338
REMARK  Name = 
REMARK  5 active torsions:
REMARK  status: ('A' for Active; 'I' for Inactive)
REMARK    1  A    between atoms: C_1  and  O_2
REMARK    2  A    between atoms: O_2  and  C_3
REMARK    3  A    between atoms: C_7  and  C_8
REMARK    4  A    between atoms: N_10  and  C_11
REMARK    5  A    between atoms: C_18  and  C_19
REMARK                            x       y       z     vdW  Elec       q    Type
REMARK                         _______ _______ _______ _____ _____    ______ ____
ROOT
ATOM      1  C   UNL     1      -1.029  11.518  19.620  0.00  0.00    +0.000 A 
ATOM      2  N   UNL     1      -1.422  12.405  20.545  0.00  0.00    +0.000 NA
ATOM      3  N   UNL     1      -0.347  12.707  21.282  0.00  0.00    +0.000 N 
ATOM      4  C   UNL     1       0.713  11.901  20.930  0.00  0.00    +0.000 A 
ATOM      5  C   UNL     1       0.350  11.147  19.812  0.00  0.00    +0.000 A 
ENDROOT
BRANCH   5   6
ATOM      6  C   UNL     1       1.213  10.187  19.061  0.00  0.00    +0.000 C 
ATOM      7  O   UNL     1       1.727  10.503  17.989  0.00  0.00    +0.000 OA
ATOM      8  N   UNL     1       1.509   8.871  19.530  0.00  0.00    +0.000 N 
ATOM      9  N   UNL     1       1.058   8.516  20.765  0.00  0.00    +0.000 NA
ATOM     10  N   UNL     1       1.412   7.274  21.027  0.00  0.00    +0.000 NA
ATOM     11  C   UNL     1       2.136   6.813  19.977  0.00  0.00    +0.000 A 
ATOM     12  C   UNL     1       2.734   5.552  19.821  0.00  0.00    +0.000 A 
ATOM     13  C   UNL     1       3.456   5.287  18.653  0.00  0.00    +0.000 A 
ATOM     14  C   UNL     1       3.563   6.270  17.667  0.00  0.00    +0.000 A 
ATOM     15  C   UNL     1       2.966   7.542  17.810  0.00  0.00    +0.000 A 
ATOM     16  C   UNL     1       2.245   7.798  18.992  0.00  0.00    +0.000 A 
ENDBRANCH   5   6
BRANCH   1  21
ATOM     17  C   UNL     1      -2.697  10.288  16.454  0.00  0.00    +0.000 A 
ATOM     18  C   UNL     1      -3.962  10.867  16.593  0.00  0.00    +0.000 A 
ATOM     19  C   UNL     1      -4.281  11.604  17.727  0.00  0.00    +0.000 A 
ATOM     20  C   UNL     1      -3.327  11.755  18.730  0.00  0.00    +0.000 A 
ATOM     21  C   UNL     1      -2.047  11.173  18.618  0.00  0.00    +0.000 A 
ATOM     22  C   UNL     1      -1.739  10.442  17.467  0.00  0.00    +0.000 A 
BRANCH  17  24
ATOM     23  C   UNL     1      -3.356  10.005  14.191  0.00  0.00    +0.000 C 
ATOM     24  O   UNL     1      -2.517   9.624  15.272  0.00  0.00    +0.000 OA
ENDBRANCH  17  24
ENDBRANCH   1  21
BRANCH   3  25
ATOM     25  C   UNL     1      -0.430  13.760  22.245  0.00  0.00    +0.000 A 
ATOM     26  C   UNL     1      -1.295  13.610  23.348  0.00  0.00    +0.000 A 
ATOM     27  C   UNL     1      -1.442  14.633  24.288  0.00  0.00    +0.000 A 
ATOM     28  C   UNL     1      -0.731  15.819  24.136  0.00  0.00    +0.000 A 
ATOM     29  C   UNL     1       0.131  15.978  23.050  0.00  0.00    +0.000 A 
ATOM     30  C   UNL     1       0.288  14.953  22.106  0.00  0.00    +0.000 A 
ENDBRANCH   3  25
TORSDOF 4
ENDMDL
MODEL 8
REMARK VINA RESULT:      -8.0      3.580      6.514
REMARK  Name = 
REMARK  5 active torsions:
REMARK  status: ('A' for Active; 'I' for Inactive)
REMARK    1  A    between atoms: C_1  and  O_2
REMARK    2  A    between atoms: O_2  and  C_3
REMARK    3  A    between atoms: C_7  and  C_8
REMARK    4  A    between atoms: N_10  and  C_11
REMARK    5  A    between atoms: C_18  and  C_19
REMARK                            x       y       z     vdW  Elec       q    Type
REMARK                         _______ _______ _______ _____ _____    ______ ____
ROOT
ATOM      1  C   UNL     1      -0.888  11.478  19.418  0.00  0.00    +0.000 A 
ATOM      2  N   UNL     1      -1.331  12.346  20.339  0.00  0.00    +0.000 NA
ATOM      3  N   UNL     1      -0.307  12.608  21.158  0.00  0.00    +0.000 N 
ATOM      4  C   UNL     1       0.761  11.793  20.860  0.00  0.00    +0.000 A 
ATOM      5  C   UNL     1       0.467  11.076  19.697  0.00  0.00    +0.000 A 
ENDROOT
BRANCH   5   6
ATOM      6  C   UNL     1       1.366  10.121  18.982  0.00  0.00    +0.000 C 
ATOM      7  O   UNL     1       1.944  10.451  17.947  0.00  0.00    +0.000 OA
ATOM      8  N   UNL     1       1.625   8.796  19.445  0.00  0.00    +0.000 N 
ATOM      9  N   UNL     1       1.100   8.425  20.646  0.00  0.00    +0.000 NA
ATOM     10  N   UNL     1       1.429   7.176  20.908  0.00  0.00    +0.000 NA
ATOM     11  C   UNL     1       2.210   6.726  19.894  0.00  0.00    +0.000 A 
ATOM     12  C   UNL     1       2.807   5.463  19.752  0.00  0.00    +0.000 A 
ATOM     13  C   UNL     1       3.594   5.212  18.624  0.00  0.00    +0.000 A 
ATOM     14  C   UNL     1       3.766   6.209  17.662  0.00  0.00    +0.000 A 
ATOM     15  C   UNL     1       3.171   7.484  17.792  0.00  0.00    +0.000 A 
ATOM     16  C   UNL     1       2.383   7.726  18.933  0.00  0.00    +0.000 A 
ENDBRANCH   5   6
BRANCH   1  21
ATOM     17  C   UNL     1      -4.031  11.354  17.317  0.00  0.00    +0.000 A 
ATOM     18  C   UNL     1      -3.719  10.297  16.455  0.00  0.00    +0.000 A 
ATOM     19  C   UNL     1      -2.481   9.670  16.527  0.00  0.00    +0.000 A 
ATOM     20  C   UNL     1      -1.549  10.111  17.462  0.00  0.00    +0.000 A 
ATOM     21  C   UNL     1      -1.837  11.180  18.337  0.00  0.00    +0.000 A 
ATOM     22  C   UNL     1      -3.090  11.795  18.258  0.00  0.00    +0.000 A 
BRANCH  17  24
ATOM     23  C   UNL     1      -6.305  11.312  17.999  0.00  0.00    +0.000 C 
ATOM     24  O   UNL     1      -5.297  11.848  17.154  0.00  0.00    +0.000 OA
ENDBRANCH  17  24
ENDBRANCH   1  21
BRANCH   3  25
ATOM     25  C   UNL     1      -0.442  13.634  22.143  0.00  0.00    +0.000 A 
ATOM     26  C   UNL     1      -1.332  13.438  23.219  0.00  0.00    +0.000 A 
ATOM     27  C   UNL     1      -1.530  14.435  24.177  0.00  0.00    +0.000 A 
ATOM     28  C   UNL     1      -0.844  15.640  24.073  0.00  0.00    +0.000 A 
ATOM     29  C   UNL     1       0.044  15.845  23.016  0.00  0.00    +0.000 A 
ATOM     30  C   UNL     1       0.251  14.847  22.052  0.00  0.00    +0.000 A 
ENDBRANCH   3  25
TORSDOF 4
ENDMDL
MODEL 9
REMARK VINA RESULT:      -7.9      3.957      6.768
REMARK  Name = 
REMARK  5 active torsions:
REMARK  status: ('A' for Active; 'I' for Inactive)
REMARK    1  A    between atoms: C_1  and  O_2
REMARK    2  A    between atoms: O_2  and  C_3
REMARK    3  A    between atoms: C_7  and  C_8
REMARK    4  A    between atoms: N_10  and  C_11
REMARK    5  A    between atoms: C_18  and  C_19
REMARK                            x       y       z     vdW  Elec       q    Type
REMARK                         _______ _______ _______ _____ _____    ______ ____
ROOT
ATOM      1  C   UNL     1      -0.275  11.953  18.774  0.00  0.00    +0.000 A 
ATOM      2  N   UNL     1      -0.327  13.215  19.223  0.00  0.00    +0.000 NA
ATOM      3  N   UNL     1       0.930  13.596  19.474  0.00  0.00    +0.000 N 
ATOM      4  C   UNL     1       1.788  12.528  19.330  0.00  0.00    +0.000 A 
ATOM      5  C   UNL     1       1.072  11.444  18.816  0.00  0.00    +0.000 A 
ENDROOT
BRANCH   5   6
ATOM      6  C   UNL     1       1.618  10.103  18.449  0.00  0.00    +0.000 C 
ATOM      7  O   UNL     1       2.155   9.916  17.358  0.00  0.00    +0.000 OA
ATOM      8  N   UNL     1       1.572   8.975  19.323  0.00  0.00    +0.000 N 
ATOM      9  N   UNL     1       1.093   9.162  20.584  0.00  0.00    +0.000 NA
ATOM     10  N   UNL     1       1.114   8.020  21.241  0.00  0.00    +0.000 NA
ATOM     11  C   UNL     1       1.647   7.076  20.426  0.00  0.00    +0.000 A 
ATOM     12  C   UNL     1       1.881   5.720  20.705  0.00  0.00    +0.000 A 
ATOM     13  C   UNL     1       2.460   4.918  19.715  0.00  0.00    +0.000 A 
ATOM     14  C   UNL     1       2.785   5.472  18.477  0.00  0.00    +0.000 A 
ATOM     15  C   UNL     1       2.554   6.835  18.182  0.00  0.00    +0.000 A 
ATOM     16  C   UNL     1       1.974   7.632  19.187  0.00  0.00    +0.000 A 
ENDBRANCH   5   6
BRANCH   1  21
ATOM     17  C   UNL     1      -2.901  10.230  16.665  0.00  0.00    +0.000 A 
ATOM     18  C   UNL     1      -4.067  10.702  17.276  0.00  0.00    +0.000 A 
ATOM     19  C   UNL     1      -3.995  11.529  18.389  0.00  0.00    +0.000 A 
ATOM     20  C   UNL     1      -2.747  11.877  18.898  0.00  0.00    +0.000 A 
ATOM     21  C   UNL     1      -1.556  11.407  18.306  0.00  0.00    +0.000 A 
ATOM     22  C   UNL     1      -1.645  10.582  17.180  0.00  0.00    +0.000 A 
BRANCH  17  24
ATOM     23  C   UNL     1      -3.525  10.135  14.376  0.00  0.00    +0.000 C 
ATOM     24  O   UNL     1      -3.128   9.456  15.559  0.00  0.00    +0.000 OA
ENDBRANCH  17  24
ENDBRANCH   1  21
BRANCH   3  25
ATOM     25  C   UNL     1       1.197  14.959  19.809  0.00  0.00    +0.000 A 
ATOM     26  C   UNL     1       0.640  15.980  19.012  0.00  0.00    +0.000 A 
ATOM     27  C   UNL     1       0.914  17.325  19.275  0.00  0.00    +0.000 A 
ATOM     28  C   UNL     1       1.748  17.667  20.335  0.00  0.00    +0.000 A 
ATOM     29  C   UNL     1       2.301  16.665  21.134  0.00  0.00    +0.000 A 
ATOM     30  C   UNL     1       2.027  15.313  20.878  0.00  0.00    +0.000 A 
ENDBRANCH   3  25
TORSDOF 4
ENDMDL
