MODEL 1
REMARK VINA RESULT:      -7.7      0.000      0.000
REMARK  Name = 
REMARK  6 active torsions:
REMARK  status: ('A' for Active; 'I' for Inactive)
REMARK    1  A    between atoms: C_1  and  N_2
REMARK    2  A    between atoms: N_2  and  C_3
REMARK    3  A    between atoms: N_2  and  S_4
REMARK    4  A    between atoms: S_4  and  C_7
REMARK    5  A    between atoms: C_11  and  C_12
REMARK    6  A    between atoms: N_14  and  C_15
REMARK                            x       y       z     vdW  Elec       q    Type
REMARK                         _______ _______ _______ _____ _____    ______ ____
ROOT
ATOM      1  C   UNL     1       1.627   9.282  17.964  0.00  0.00    +0.000 C 
ATOM      2  O   UNL     1       0.478   9.150  17.531  0.00  0.00    +0.000 OA
ATOM      3  N   UNL     1       2.036  10.579  18.393  0.00  0.00    +0.000 N 
ATOM      4  H   UNL     1       3.029  10.632  18.580  0.00  0.00    +0.000 HD
ENDROOT
BRANCH   3   5
ATOM      5  C   UNL     1       1.172  11.299  19.437  0.00  0.00    +0.000 C 
ATOM      6  C   UNL     1       0.240  12.162  18.550  0.00  0.00    +0.000 C 
ATOM      7  C   UNL     1      -0.874  12.943  19.217  0.00  0.00    +0.000 C 
ATOM      8  S   UNL     1      -0.314  13.531  20.817  0.00  0.00    +0.000 S 
ATOM      9  C   UNL     1      -0.197  11.869  21.501  0.00  0.00    +0.000 A 
ATOM     10  C   UNL     1      -0.859  11.710  22.736  0.00  0.00    +0.000 A 
ATOM     11  C   UNL     1      -1.055  10.446  23.244  0.00  0.00    +0.000 A 
ATOM     12  C   UNL     1      -0.573   9.361  22.498  0.00  0.00    +0.000 A 
ATOM     13  C   UNL     1       0.150   9.526  21.262  0.00  0.00    +0.000 A 
ATOM     14  C   UNL     1       0.376  10.803  20.713  0.00  0.00    +0.000 A 
ENDBRANCH   3   5
BRANCH   1  19
ATOM     15  C   UNL     1       4.325   6.366  17.457  0.00  0.00    +0.000 A 
ATOM     16  C   UNL     1       4.118   5.643  18.628  0.00  0.00    +0.000 A 
ATOM     17  C   UNL     1       3.135   6.065  19.504  0.00  0.00    +0.000 A 
ATOM     18  C   UNL     1       2.355   7.203  19.199  0.00  0.00    +0.000 A 
ATOM     19  C   UNL     1       2.505   7.973  18.011  0.00  0.00    +0.000 A 
ATOM     20  C   UNL     1       3.519   7.520  17.123  0.00  0.00    +0.000 A 
BRANCH  15  21
ATOM     21  S   UNL     1       5.501   5.624  16.293  0.00  0.00    +0.000 S 
ATOM     22  O   UNL     1       5.465   6.420  15.114  0.00  0.00    +0.000 OA
ATOM     23  O   UNL     1       5.222   4.200  16.251  0.00  0.00    +0.000 OA
BRANCH  21  25
ATOM     24  C   UNL     1       7.400   7.120  17.525  0.00  0.00    +0.000 C 
ATOM     25  N   UNL     1       7.047   5.792  17.003  0.00  0.00    +0.000 NA
ATOM     26  C   UNL     1       7.648   4.662  17.727  0.00  0.00    +0.000 C 
ENDBRANCH  21  25
ENDBRANCH  15  21
ENDBRANCH   1  19
TORSDOF 4
ENDMDL
MODEL 2
REMARK VINA RESULT:      -7.6      1.975      2.794
REMARK  Name = 
REMARK  6 active torsions:
REMARK  status: ('A' for Active; 'I' for Inactive)
REMARK    1  A    between atoms: C_1  and  N_2
REMARK    2  A    between atoms: N_2  and  C_3
REMARK    3  A    between atoms: N_2  and  S_4
REMARK    4  A    between atoms: S_4  and  C_7
REMARK    5  A    between atoms: C_11  and  C_12
REMARK    6  A    between atoms: N_14  and  C_15
REMARK                            x       y       z     vdW  Elec       q    Type
REMARK                         _______ _______ _______ _____ _____    ______ ____
ROOT
ATOM      1  C   UNL     1       1.857   9.618  18.749  0.00  0.00    +0.000 C 
ATOM      2  O   UNL     1       2.130  10.508  17.937  0.00  0.00    +0.000 OA
ATOM      3  N   UNL     1       1.027   9.955  19.859  0.00  0.00    +0.000 N 
ATOM      4  H   UNL     1       0.985   9.218  20.551  0.00  0.00    +0.000 HD
ENDROOT
BRANCH   3   5
ATOM      5  C   UNL     1      -0.330  10.610  19.572  0.00  0.00    +0.000 C 
ATOM      6  C   UNL     1      -0.039  12.104  19.863  0.00  0.00    +0.000 C 
ATOM      7  C   UNL     1      -1.120  13.123  19.568  0.00  0.00    +0.000 C 
ATOM      8  S   UNL     1      -2.727  12.407  19.921  0.00  0.00    +0.000 S 
ATOM      9  C   UNL     1      -2.597  11.202  18.588  0.00  0.00    +0.000 A 
ATOM     10  C   UNL     1      -3.715  11.177  17.729  0.00  0.00    +0.000 A 
ATOM     11  C   UNL     1      -3.644  10.484  16.542  0.00  0.00    +0.000 A 
ATOM     12  C   UNL     1      -2.443   9.824  16.242  0.00  0.00    +0.000 A 
ATOM     13  C   UNL     1      -1.318   9.808  17.144  0.00  0.00    +0.000 A 
ATOM     14  C   UNL     1      -1.356  10.497  18.371  0.00  0.00    +0.000 A 
ENDBRANCH   3   5
BRANCH   1  19
ATOM     15  C   UNL     1       3.985   6.451  17.531  0.00  0.00    +0.000 A 
ATOM     16  C   UNL     1       3.480   5.480  18.390  0.00  0.00    +0.000 A 
ATOM     17  C   UNL     1       2.483   5.833  19.280  0.00  0.00    +0.000 A 
ATOM     18  C   UNL     1       1.988   7.157  19.300  0.00  0.00    +0.000 A 
ATOM     19  C   UNL     1       2.450   8.191  18.437  0.00  0.00    +0.000 A 
ATOM     20  C   UNL     1       3.472   7.804  17.527  0.00  0.00    +0.000 A 
BRANCH  15  21
ATOM     21  S   UNL     1       5.148   5.842  16.281  0.00  0.00    +0.000 S 
ATOM     22  O   UNL     1       5.165   6.807  15.234  0.00  0.00    +0.000 OA
ATOM     23  O   UNL     1       4.811   4.454  16.021  0.00  0.00    +0.000 OA
BRANCH  21  25
ATOM     24  C   UNL     1       7.262   7.139  17.380  0.00  0.00    +0.000 C 
ATOM     25  N   UNL     1       6.688   5.834  17.023  0.00  0.00    +0.000 NA
ATOM     26  C   UNL     1       7.068   4.726  17.911  0.00  0.00    +0.000 C 
ENDBRANCH  21  25
ENDBRANCH  15  21
ENDBRANCH   1  19
TORSDOF 4
ENDMDL
MODEL 3
REMARK VINA RESULT:      -7.4      1.720      2.024
REMARK  Name = 
REMARK  6 active torsions:
REMARK  status: ('A' for Active; 'I' for Inactive)
REMARK    1  A    between atoms: C_1  and  N_2
REMARK    2  A    between atoms: N_2  and  C_3
REMARK    3  A    between atoms: N_2  and  S_4
REMARK    4  A    between atoms: S_4  and  C_7
REMARK    5  A    between atoms: C_11  and  C_12
REMARK    6  A    between atoms: N_14  and  C_15
REMARK                            x       y       z     vdW  Elec       q    Type
REMARK                         _______ _______ _______ _____ _____    ______ ____
ROOT
ATOM      1  C   UNL     1       2.135   8.045  17.821  0.00  0.00    +0.000 C 
ATOM      2  O   UNL     1       1.060   7.595  17.409  0.00  0.00    +0.000 OA
ATOM      3  N   UNL     1       2.241   9.455  18.011  0.00  0.00    +0.000 N 
ATOM      4  H   UNL     1       3.191   9.752  18.193  0.00  0.00    +0.000 HD
ENDROOT
BRANCH   3   5
ATOM      5  C   UNL     1       1.197  10.144  18.898  0.00  0.00    +0.000 C 
ATOM      6  C   UNL     1      -0.028  10.230  17.954  0.00  0.00    +0.000 C 
ATOM      7  C   UNL     1      -1.338  10.747  18.513  0.00  0.00    +0.000 C 
ATOM      8  S   UNL     1      -1.006  12.034  19.718  0.00  0.00    +0.000 S 
ATOM      9  C   UNL     1      -0.219  10.894  20.870  0.00  0.00    +0.000 A 
ATOM     10  C   UNL     1      -0.726  10.969  22.184  0.00  0.00    +0.000 A 
ATOM     11  C   UNL     1      -0.389   9.997  23.099  0.00  0.00    +0.000 A 
ATOM     12  C   UNL     1       0.458   8.964  22.671  0.00  0.00    +0.000 A 
ATOM     13  C   UNL     1       1.017   8.916  21.343  0.00  0.00    +0.000 A 
ATOM     14  C   UNL     1       0.703   9.896  20.382  0.00  0.00    +0.000 A 
ENDBRANCH   3   5
BRANCH   1  19
ATOM     15  C   UNL     1       5.490   5.869  18.038  0.00  0.00    +0.000 A 
ATOM     16  C   UNL     1       5.204   5.102  19.164  0.00  0.00    +0.000 A 
ATOM     17  C   UNL     1       3.979   5.263  19.784  0.00  0.00    +0.000 A 
ATOM     18  C   UNL     1       3.040   6.185  19.269  0.00  0.00    +0.000 A 
ATOM     19  C   UNL     1       3.264   6.985  18.113  0.00  0.00    +0.000 A 
ATOM     20  C   UNL     1       4.528   6.800  17.489  0.00  0.00    +0.000 A 
BRANCH  15  21
ATOM     21  S   UNL     1       7.036   5.446  17.193  0.00  0.00    +0.000 S 
ATOM     22  O   UNL     1       7.795   4.655  18.102  0.00  0.00    +0.000 OA
ATOM     23  O   UNL     1       7.571   6.675  16.635  0.00  0.00    +0.000 OA
BRANCH  21  25
ATOM     24  C   UNL     1       5.349   3.700  15.981  0.00  0.00    +0.000 C 
ATOM     25  N   UNL     1       6.602   4.461  15.864  0.00  0.00    +0.000 NA
ATOM     26  C   UNL     1       6.948   4.879  14.499  0.00  0.00    +0.000 C 
ENDBRANCH  21  25
ENDBRANCH  15  21
ENDBRANCH   1  19
TORSDOF 4
ENDMDL
MODEL 4
REMARK VINA RESULT:      -7.4      2.197      2.967
REMARK  Name = 
REMARK  6 active torsions:
REMARK  status: ('A' for Active; 'I' for Inactive)
REMARK    1  A    between atoms: C_1  and  N_2
REMARK    2  A    between atoms: N_2  and  C_3
REMARK    3  A    between atoms: N_2  and  S_4
REMARK    4  A    between atoms: S_4  and  C_7
REMARK    5  A    between atoms: C_11  and  C_12
REMARK    6  A    between atoms: N_14  and  C_15
REMARK                            x       y       z     vdW  Elec       q    Type
REMARK                         _______ _______ _______ _____ _____    ______ ____
ROOT
ATOM      1  C   UNL     1       1.652   9.030  17.919  0.00  0.00    +0.000 C 
ATOM      2  O   UNL     1       0.497   8.760  17.573  0.00  0.00    +0.000 OA
ATOM      3  N   UNL     1       1.960  10.389  18.222  0.00  0.00    +0.000 N 
ATOM      4  H   UNL     1       2.952  10.547  18.339  0.00  0.00    +0.000 HD
ENDROOT
BRANCH   3   5
ATOM      5  C   UNL     1       1.094  11.110  19.264  0.00  0.00    +0.000 C 
ATOM      6  C   UNL     1       0.075  11.866  18.374  0.00  0.00    +0.000 C 
ATOM      7  C   UNL     1      -1.059  12.612  19.048  0.00  0.00    +0.000 C 
ATOM      8  S   UNL     1      -0.475  13.318  20.591  0.00  0.00    +0.000 S 
ATOM      9  C   UNL     1      -0.227  11.704  21.353  0.00  0.00    +0.000 A 
ATOM     10  C   UNL     1      -0.829  11.571  22.620  0.00  0.00    +0.000 A 
ATOM     11  C   UNL     1      -0.924  10.326  23.200  0.00  0.00    +0.000 A 
ATOM     12  C   UNL     1      -0.405   9.234  22.490  0.00  0.00    +0.000 A 
ATOM     13  C   UNL     1       0.257   9.377  21.217  0.00  0.00    +0.000 A 
ATOM     14  C   UNL     1       0.381  10.635  20.596  0.00  0.00    +0.000 A 
ENDBRANCH   3   5
BRANCH   1  19
ATOM     15  C   UNL     1       3.502   5.528  18.507  0.00  0.00    +0.000 A 
ATOM     16  C   UNL     1       4.587   5.684  17.649  0.00  0.00    +0.000 A 
ATOM     17  C   UNL     1       4.719   6.872  16.955  0.00  0.00    +0.000 A 
ATOM     18  C   UNL     1       3.770   7.904  17.131  0.00  0.00    +0.000 A 
ATOM     19  C   UNL     1       2.651   7.814  18.006  0.00  0.00    +0.000 A 
ATOM     20  C   UNL     1       2.537   6.585  18.712  0.00  0.00    +0.000 A 
BRANCH  15  21
ATOM     21  S   UNL     1       3.526   4.016  19.508  0.00  0.00    +0.000 S 
ATOM     22  O   UNL     1       2.788   4.299  20.693  0.00  0.00    +0.000 OA
ATOM     23  O   UNL     1       4.903   3.562  19.568  0.00  0.00    +0.000 OA
BRANCH  21  25
ATOM     24  C   UNL     1       3.419   1.649  18.186  0.00  0.00    +0.000 C 
ATOM     25  N   UNL     1       2.667   2.837  18.615  0.00  0.00    +0.000 NA
ATOM     26  C   UNL     1       1.243   2.603  18.890  0.00  0.00    +0.000 C 
ENDBRANCH  21  25
ENDBRANCH  15  21
ENDBRANCH   1  19
TORSDOF 4
ENDMDL
MODEL 5
REMARK VINA RESULT:      -7.3      3.237      4.238
REMARK  Name = 
REMARK  6 active torsions:
REMARK  status: ('A' for Active; 'I' for Inactive)
REMARK    1  A    between atoms: C_1  and  N_2
REMARK    2  A    between atoms: N_2  and  C_3
REMARK    3  A    between atoms: N_2  and  S_4
REMARK    4  A    between atoms: S_4  and  C_7
REMARK    5  A    between atoms: C_11  and  C_12
REMARK    6  A    between atoms: N_14  and  C_15
REMARK                            x       y       z     vdW  Elec       q    Type
REMARK                         _______ _______ _______ _____ _____    ______ ____
ROOT
ATOM      1  C   UNL     1       1.515   9.600  19.243  0.00  0.00    +0.000 C 
ATOM      2  O   UNL     1       1.874  10.434  18.405  0.00  0.00    +0.000 OA
ATOM      3  N   UNL     1       0.629  10.028  20.276  0.00  0.00    +0.000 N 
ATOM      4  H   UNL     1       0.514   9.333  21.003  0.00  0.00    +0.000 HD
ENDROOT
BRANCH   3   5
ATOM      5  C   UNL     1      -0.681  10.713  19.865  0.00  0.00    +0.000 C 
ATOM      6  C   UNL     1      -0.381  12.202  20.174  0.00  0.00    +0.000 C 
ATOM      7  C   UNL     1      -1.407  13.244  19.776  0.00  0.00    +0.000 C 
ATOM      8  S   UNL     1      -3.056  12.568  19.987  0.00  0.00    +0.000 S 
ATOM      9  C   UNL     1      -2.836  11.351  18.677  0.00  0.00    +0.000 A 
ATOM     10  C   UNL     1      -3.872  11.345  17.721  0.00  0.00    +0.000 A 
ATOM     11  C   UNL     1      -3.711  10.643  16.549  0.00  0.00    +0.000 A 
ATOM     12  C   UNL     1      -2.504   9.953  16.362  0.00  0.00    +0.000 A 
ATOM     13  C   UNL     1      -1.466   9.917  17.361  0.00  0.00    +0.000 A 
ATOM     14  C   UNL     1      -1.597  10.616  18.576  0.00  0.00    +0.000 A 
ENDBRANCH   3   5
BRANCH   1  19
ATOM     15  C   UNL     1       2.244   5.663  19.260  0.00  0.00    +0.000 A 
ATOM     16  C   UNL     1       3.106   5.575  18.170  0.00  0.00    +0.000 A 
ATOM     17  C   UNL     1       3.451   6.735  17.502  0.00  0.00    +0.000 A 
ATOM     18  C   UNL     1       2.941   7.980  17.933  0.00  0.00    +0.000 A 
ATOM     19  C   UNL     1       2.071   8.139  19.049  0.00  0.00    +0.000 A 
ATOM     20  C   UNL     1       1.732   6.934  19.724  0.00  0.00    +0.000 A 
BRANCH  15  21
ATOM     21  S   UNL     1       2.007   4.118  20.178  0.00  0.00    +0.000 S 
ATOM     22  O   UNL     1       0.652   3.728  19.979  0.00  0.00    +0.000 OA
ATOM     23  O   UNL     1       2.544   4.324  21.511  0.00  0.00    +0.000 OA
BRANCH  21  25
ATOM     24  C   UNL     1       4.193   2.510  20.181  0.00  0.00    +0.000 C 
ATOM     25  N   UNL     1       3.012   2.956  19.427  0.00  0.00    +0.000 NA
ATOM     26  C   UNL     1       2.424   1.942  18.541  0.00  0.00    +0.000 C 
ENDBRANCH  21  25
ENDBRANCH  15  21
ENDBRANCH   1  19
TORSDOF 4
ENDMDL
MODEL 6
REMARK VINA RESULT:      -7.3      2.405      3.451
REMARK  Name = 
REMARK  6 active torsions:
REMARK  status: ('A' for Active; 'I' for Inactive)
REMARK    1  A    between atoms: C_1  and  N_2
REMARK    2  A    between atoms: N_2  and  C_3
REMARK    3  A    between atoms: N_2  and  S_4
REMARK    4  A    between atoms: S_4  and  C_7
REMARK    5  A    between atoms: C_11  and  C_12
REMARK    6  A    between atoms: N_14  and  C_15
REMARK                            x       y       z     vdW  Elec       q    Type
REMARK                         _______ _______ _______ _____ _____    ______ ____
ROOT
ATOM      1  C   UNL     1       1.826   9.166  18.628  0.00  0.00    +0.000 C 
ATOM      2  O   UNL     1       1.789   9.444  17.425  0.00  0.00    +0.000 OA
ATOM      3  N   UNL     1       1.499  10.192  19.564  0.00  0.00    +0.000 N 
ATOM      4  H   UNL     1       1.708   9.929  20.518  0.00  0.00    +0.000 HD
ENDROOT
BRANCH   3   5
ATOM      5  C   UNL     1       0.155  10.913  19.402  0.00  0.00    +0.000 C 
ATOM      6  C   UNL     1       0.588  12.398  19.326  0.00  0.00    +0.000 C 
ATOM      7  C   UNL     1      -0.467  13.446  19.032  0.00  0.00    +0.000 C 
ATOM      8  S   UNL     1      -2.012  12.971  19.810  0.00  0.00    +0.000 S 
ATOM      9  C   UNL     1      -2.222  11.531  18.748  0.00  0.00    +0.000 A 
ATOM     10  C   UNL     1      -3.488  11.455  18.130  0.00  0.00    +0.000 A 
ATOM     11  C   UNL     1      -3.695  10.549  17.115  0.00  0.00    +0.000 A 
ATOM     12  C   UNL     1      -2.620   9.729  16.742  0.00  0.00    +0.000 A 
ATOM     13  C   UNL     1      -1.342   9.771  17.408  0.00  0.00    +0.000 A 
ATOM     14  C   UNL     1      -1.094  10.679  18.456  0.00  0.00    +0.000 A 
ENDBRANCH   3   5
BRANCH   1  19
ATOM     15  C   UNL     1       3.506   5.550  19.009  0.00  0.00    +0.000 A 
ATOM     16  C   UNL     1       2.843   5.098  20.146  0.00  0.00    +0.000 A 
ATOM     17  C   UNL     1       1.884   5.910  20.723  0.00  0.00    +0.000 A 
ATOM     18  C   UNL     1       1.586   7.168  20.154  0.00  0.00    +0.000 A 
ATOM     19  C   UNL     1       2.215   7.680  18.984  0.00  0.00    +0.000 A 
ATOM     20  C   UNL     1       3.194   6.827  18.404  0.00  0.00    +0.000 A 
BRANCH  15  21
ATOM     21  S   UNL     1       4.600   4.337  18.223  0.00  0.00    +0.000 S 
ATOM     22  O   UNL     1       5.530   3.921  19.218  0.00  0.00    +0.000 OA
ATOM     23  O   UNL     1       5.047   4.910  16.967  0.00  0.00    +0.000 OA
BRANCH  21  25
ATOM     24  C   UNL     1       3.680   1.832  18.714  0.00  0.00    +0.000 C 
ATOM     25  N   UNL     1       3.617   2.997  17.820  0.00  0.00    +0.000 NA
ATOM     26  C   UNL     1       2.315   3.212  17.172  0.00  0.00    +0.000 C 
ENDBRANCH  21  25
ENDBRANCH  15  21
ENDBRANCH   1  19
TORSDOF 4
ENDMDL
MODEL 7
REMARK VINA RESULT:      -7.2      2.152      3.032
REMARK  Name = 
REMARK  6 active torsions:
REMARK  status: ('A' for Active; 'I' for Inactive)
REMARK    1  A    between atoms: C_1  and  N_2
REMARK    2  A    between atoms: N_2  and  C_3
REMARK    3  A    between atoms: N_2  and  S_4
REMARK    4  A    between atoms: S_4  and  C_7
REMARK    5  A    between atoms: C_11  and  C_12
REMARK    6  A    between atoms: N_14  and  C_15
REMARK                            x       y       z     vdW  Elec       q    Type
REMARK                         _______ _______ _______ _____ _____    ______ ____
ROOT
ATOM      1  C   UNL     1       1.638   8.910  17.836  0.00  0.00    +0.000 C 
ATOM      2  O   UNL     1       0.468   8.664  17.527  0.00  0.00    +0.000 OA
ATOM      3  N   UNL     1       1.981  10.262  18.137  0.00  0.00    +0.000 N 
ATOM      4  H   UNL     1       2.980  10.400  18.222  0.00  0.00    +0.000 HD
ENDROOT
BRANCH   3   5
ATOM      5  C   UNL     1       1.163  10.991  19.210  0.00  0.00    +0.000 C 
ATOM      6  C   UNL     1       0.173  11.824  18.357  0.00  0.00    +0.000 C 
ATOM      7  C   UNL     1      -0.915  12.604  19.066  0.00  0.00    +0.000 C 
ATOM      8  S   UNL     1      -0.280  13.232  20.623  0.00  0.00    +0.000 S 
ATOM      9  C   UNL     1      -0.104  11.585  21.332  0.00  0.00    +0.000 A 
ATOM     10  C   UNL     1      -0.699  11.442  22.602  0.00  0.00    +0.000 A 
ATOM     11  C   UNL     1      -0.850  10.187  23.145  0.00  0.00    +0.000 A 
ATOM     12  C   UNL     1      -0.393   9.093  22.396  0.00  0.00    +0.000 A 
ATOM     13  C   UNL     1       0.262   9.242  21.120  0.00  0.00    +0.000 A 
ATOM     14  C   UNL     1       0.441  10.511  20.536  0.00  0.00    +0.000 A 
ENDBRANCH   3   5
BRANCH   1  19
ATOM     15  C   UNL     1       3.386   5.318  18.114  0.00  0.00    +0.000 A 
ATOM     16  C   UNL     1       4.606   5.599  17.507  0.00  0.00    +0.000 A 
ATOM     17  C   UNL     1       4.850   6.888  17.072  0.00  0.00    +0.000 A 
ATOM     18  C   UNL     1       3.875   7.894  17.255  0.00  0.00    +0.000 A 
ATOM     19  C   UNL     1       2.617   7.676  17.883  0.00  0.00    +0.000 A 
ATOM     20  C   UNL     1       2.388   6.344  18.327  0.00  0.00    +0.000 A 
BRANCH  15  21
ATOM     21  S   UNL     1       3.242   3.653  18.816  0.00  0.00    +0.000 S 
ATOM     22  O   UNL     1       4.437   3.416  19.553  0.00  0.00    +0.000 OA
ATOM     23  O   UNL     1       2.830   2.767  17.743  0.00  0.00    +0.000 OA
BRANCH  21  25
ATOM     24  C   UNL     1       0.737   2.937  19.575  0.00  0.00    +0.000 C 
ATOM     25  N   UNL     1       1.938   3.711  19.922  0.00  0.00    +0.000 NA
ATOM     26  C   UNL     1       2.204   3.831  21.362  0.00  0.00    +0.000 C 
ENDBRANCH  21  25
ENDBRANCH  15  21
ENDBRANCH   1  19
TORSDOF 4
ENDMDL
MODEL 8
REMARK VINA RESULT:      -7.2      2.184      3.084
REMARK  Name = 
REMARK  6 active torsions:
REMARK  status: ('A' for Active; 'I' for Inactive)
REMARK    1  A    between atoms: C_1  and  N_2
REMARK    2  A    between atoms: N_2  and  C_3
REMARK    3  A    between atoms: N_2  and  S_4
REMARK    4  A    between atoms: S_4  and  C_7
REMARK    5  A    between atoms: C_11  and  C_12
REMARK    6  A    between atoms: N_14  and  C_15
REMARK                            x       y       z     vdW  Elec       q    Type
REMARK                         _______ _______ _______ _____ _____    ______ ____
ROOT
ATOM      1  C   UNL     1       1.670   9.172  19.250  0.00  0.00    +0.000 C 
ATOM      2  O   UNL     1       1.947   9.748  18.193  0.00  0.00    +0.000 OA
ATOM      3  N   UNL     1       0.995   9.917  20.262  0.00  0.00    +0.000 N 
ATOM      4  H   UNL     1       0.951   9.423  21.144  0.00  0.00    +0.000 HD
ENDROOT
BRANCH   3   5
ATOM      5  C   UNL     1      -0.312  10.625  19.884  0.00  0.00    +0.000 C 
ATOM      6  C   UNL     1       0.046  12.115  20.114  0.00  0.00    +0.000 C 
ATOM      7  C   UNL     1      -0.967  13.172  19.721  0.00  0.00    +0.000 C 
ATOM      8  S   UNL     1      -2.623  12.558  20.040  0.00  0.00    +0.000 S 
ATOM      9  C   UNL     1      -2.503  11.281  18.775  0.00  0.00    +0.000 A 
ATOM     10  C   UNL     1      -3.585  11.268  17.870  0.00  0.00    +0.000 A 
ATOM     11  C   UNL     1      -3.502  10.512  16.723  0.00  0.00    +0.000 A 
ATOM     12  C   UNL     1      -2.327   9.777  16.509  0.00  0.00    +0.000 A 
ATOM     13  C   UNL     1      -1.242   9.750  17.458  0.00  0.00    +0.000 A 
ATOM     14  C   UNL     1      -1.293  10.503  18.647  0.00  0.00    +0.000 A 
ENDBRANCH   3   5
BRANCH   1  19
ATOM     15  C   UNL     1       3.404   5.572  18.982  0.00  0.00    +0.000 A 
ATOM     16  C   UNL     1       2.765   4.921  20.033  0.00  0.00    +0.000 A 
ATOM     17  C   UNL     1       1.805   5.607  20.754  0.00  0.00    +0.000 A 
ATOM     18  C   UNL     1       1.481   6.939  20.413  0.00  0.00    +0.000 A 
ATOM     19  C   UNL     1       2.084   7.654  19.340  0.00  0.00    +0.000 A 
ATOM     20  C   UNL     1       3.065   6.928  18.610  0.00  0.00    +0.000 A 
BRANCH  15  21
ATOM     21  S   UNL     1       4.502   4.529  17.986  0.00  0.00    +0.000 S 
ATOM     22  O   UNL     1       3.685   3.891  17.010  0.00  0.00    +0.000 OA
ATOM     23  O   UNL     1       5.316   3.758  18.908  0.00  0.00    +0.000 OA
BRANCH  21  25
ATOM     24  C   UNL     1       6.983   5.547  17.570  0.00  0.00    +0.000 C 
ATOM     25  N   UNL     1       5.568   5.593  17.175  0.00  0.00    +0.000 NA
ATOM     26  C   UNL     1       5.328   5.937  15.766  0.00  0.00    +0.000 C 
ENDBRANCH  21  25
ENDBRANCH  15  21
ENDBRANCH   1  19
TORSDOF 4
ENDMDL
MODEL 9
REMARK VINA RESULT:      -7.2      2.863      3.988
REMARK  Name = 
REMARK  6 active torsions:
REMARK  status: ('A' for Active; 'I' for Inactive)
REMARK    1  A    between atoms: C_1  and  N_2
REMARK    2  A    between atoms: N_2  and  C_3
REMARK    3  A    between atoms: N_2  and  S_4
REMARK    4  A    between atoms: S_4  and  C_7
REMARK    5  A    between atoms: C_11  and  C_12
REMARK    6  A    between atoms: N_14  and  C_15
REMARK                            x       y       z     vdW  Elec       q    Type
REMARK                         _______ _______ _______ _____ _____    ______ ____
ROOT
ATOM      1  C   UNL     1       0.694   9.508  21.649  0.00  0.00    +0.000 C 
ATOM      2  O   UNL     1       1.358   9.550  22.690  0.00  0.00    +0.000 OA
ATOM      3  N   UNL     1      -0.595  10.118  21.652  0.00  0.00    +0.000 N 
ATOM      4  H   UNL     1      -1.130   9.900  20.821  0.00  0.00    +0.000 HD
ENDROOT
BRANCH   3   5
ATOM      5  C   UNL     1      -0.697  11.586  22.085  0.00  0.00    +0.000 C 
ATOM      6  C   UNL     1      -0.421  12.338  20.759  0.00  0.00    +0.000 C 
ATOM      7  C   UNL     1      -0.561  13.846  20.740  0.00  0.00    +0.000 C 
ATOM      8  S   UNL     1      -0.018  14.516  22.313  0.00  0.00    +0.000 S 
ATOM      9  C   UNL     1      -1.375  13.756  23.222  0.00  0.00    +0.000 A 
ATOM     10  C   UNL     1      -2.086  14.653  24.046  0.00  0.00    +0.000 A 
ATOM     11  C   UNL     1      -3.283  14.263  24.601  0.00  0.00    +0.000 A 
ATOM     12  C   UNL     1      -3.743  12.968  24.317  0.00  0.00    +0.000 A 
ATOM     13  C   UNL     1      -2.992  12.034  23.517  0.00  0.00    +0.000 A 
ATOM     14  C   UNL     1      -1.760  12.393  22.938  0.00  0.00    +0.000 A 
ENDBRANCH   3   5
BRANCH   1  19
ATOM     15  C   UNL     1       2.351   6.970  19.031  0.00  0.00    +0.000 A 
ATOM     16  C   UNL     1       2.260   7.733  17.870  0.00  0.00    +0.000 A 
ATOM     17  C   UNL     1       1.727   9.006  17.951  0.00  0.00    +0.000 A 
ATOM     18  C   UNL     1       1.295   9.515  19.196  0.00  0.00    +0.000 A 
ATOM     19  C   UNL     1       1.377   8.793  20.421  0.00  0.00    +0.000 A 
ATOM     20  C   UNL     1       1.932   7.488  20.315  0.00  0.00    +0.000 A 
BRANCH  15  21
ATOM     21  S   UNL     1       3.236   5.399  18.851  0.00  0.00    +0.000 S 
ATOM     22  O   UNL     1       4.377   5.473  19.698  0.00  0.00    +0.000 OA
ATOM     23  O   UNL     1       3.369   5.141  17.428  0.00  0.00    +0.000 OA
BRANCH  21  25
ATOM     24  C   UNL     1       1.521   3.328  18.481  0.00  0.00    +0.000 C 
ATOM     25  N   UNL     1       2.194   4.189  19.465  0.00  0.00    +0.000 NA
ATOM     26  C   UNL     1       2.499   3.543  20.749  0.00  0.00    +0.000 C 
ENDBRANCH  21  25
ENDBRANCH  15  21
ENDBRANCH   1  19
TORSDOF 4
ENDMDL
