MODEL 1
REMARK VINA RESULT:      -7.4      0.000      0.000
REMARK  Name = 
REMARK  7 active torsions:
REMARK  status: ('A' for Active; 'I' for Inactive)
REMARK    1  A    between atoms: C_1  and  C_2
REMARK    2  A    between atoms: C_2  and  C_3
REMARK    3  A    between atoms: C_3  and  O_4
REMARK    4  A    between atoms: O_4  and  C_5
REMARK    5  A    between atoms: C_5  and  C_7
REMARK    6  A    between atoms: C_7  and  C_8
REMARK    7  A    between atoms: C_13  and  O_14
REMARK                            x       y       z     vdW  Elec       q    Type
REMARK                         _______ _______ _______ _____ _____    ______ ____
ROOT
ATOM      1  C   UNL     1       6.214   5.105  15.962  0.00  0.00    +0.000 A 
ATOM      2  C   UNL     1       5.838   6.410  16.320  0.00  0.00    +0.000 A 
ATOM      3  C   UNL     1       4.795   6.643  17.214  0.00  0.00    +0.000 A 
ATOM      4  C   UNL     1       4.075   5.569  17.746  0.00  0.00    +0.000 A 
ATOM      5  C   UNL     1       4.391   4.254  17.356  0.00  0.00    +0.000 A 
ATOM      6  C   UNL     1       5.465   4.031  16.468  0.00  0.00    +0.000 A 
ATOM      7  C   UNL     1       3.602   3.108  17.892  0.00  0.00    +0.000 C 
ATOM      8  O   UNL     1       3.883   1.972  17.516  0.00  0.00    +0.000 OA
ATOM      9  C   UNL     1       2.548   3.447  18.818  0.00  0.00    +0.000 A 
ATOM     10  S   UNL     1       1.544   2.273  19.525  0.00  0.00    +0.000 S 
ATOM     11  C   UNL     1       0.672   3.464  20.393  0.00  0.00    +0.000 A 
ATOM     12  C   UNL     1       1.147   4.734  20.145  0.00  0.00    +0.000 A 
ATOM     13  C   UNL     1       2.242   4.728  19.225  0.00  0.00    +0.000 A 
ATOM     14  C   UNL     1       2.988   5.861  18.722  0.00  0.00    +0.000 C 
ATOM     15  O   UNL     1       2.745   7.019  19.072  0.00  0.00    +0.000 OA
ENDROOT
BRANCH   6  16
ATOM     16  O   UNL     1       5.823   2.772  16.055  0.00  0.00    +0.000 OA
ATOM     17  H   UNL     1       5.210   2.478  15.343  0.00  0.00    +0.000 HD
ENDBRANCH   6  16
BRANCH   1  18
ATOM     18  C   UNL     1       7.465   4.896  15.121  0.00  0.00    +0.000 C 
BRANCH  18  19
ATOM     19  C   UNL     1       7.160   4.856  13.631  0.00  0.00    +0.000 C 
ATOM     20  O   UNL     1       7.625   5.626  12.803  0.00  0.00    +0.000 OA
BRANCH  19  21
ATOM     21  O   UNL     1       6.208   3.915  13.354  0.00  0.00    +0.000 OA
BRANCH  21  22
ATOM     22  C   UNL     1       6.151   3.587  11.957  0.00  0.00    +0.000 C 
BRANCH  22  24
ATOM     23  C   UNL     1       6.594   1.300  11.040  0.00  0.00    +0.000 C 
ATOM     24  C   UNL     1       5.575   2.201  11.723  0.00  0.00    +0.000 C 
ENDBRANCH  22  24
ENDBRANCH  21  22
ENDBRANCH  19  21
ENDBRANCH  18  19
ENDBRANCH   1  18
TORSDOF 6
ENDMDL
MODEL 2
REMARK VINA RESULT:      -7.2      2.568      3.676
REMARK  Name = 
REMARK  7 active torsions:
REMARK  status: ('A' for Active; 'I' for Inactive)
REMARK    1  A    between atoms: C_1  and  C_2
REMARK    2  A    between atoms: C_2  and  C_3
REMARK    3  A    between atoms: C_3  and  O_4
REMARK    4  A    between atoms: O_4  and  C_5
REMARK    5  A    between atoms: C_5  and  C_7
REMARK    6  A    between atoms: C_7  and  C_8
REMARK    7  A    between atoms: C_13  and  O_14
REMARK                            x       y       z     vdW  Elec       q    Type
REMARK                         _______ _______ _______ _____ _____    ______ ____
ROOT
ATOM      1  C   UNL     1       4.860   4.579  17.206  0.00  0.00    +0.000 A 
ATOM      2  C   UNL     1       4.603   3.772  18.327  0.00  0.00    +0.000 A 
ATOM      3  C   UNL     1       3.755   4.200  19.346  0.00  0.00    +0.000 A 
ATOM      4  C   UNL     1       3.169   5.468  19.285  0.00  0.00    +0.000 A 
ATOM      5  C   UNL     1       3.458   6.320  18.202  0.00  0.00    +0.000 A 
ATOM      6  C   UNL     1       4.300   5.865  17.165  0.00  0.00    +0.000 A 
ATOM      7  C   UNL     1       2.865   7.687  18.150  0.00  0.00    +0.000 C 
ATOM      8  O   UNL     1       3.153   8.419  17.207  0.00  0.00    +0.000 OA
ATOM      9  C   UNL     1       1.993   8.036  19.246  0.00  0.00    +0.000 A 
ATOM     10  S   UNL     1       1.233   9.552  19.357  0.00  0.00    +0.000 S 
ATOM     11  C   UNL     1       0.473   9.122  20.831  0.00  0.00    +0.000 A 
ATOM     12  C   UNL     1       0.795   7.841  21.223  0.00  0.00    +0.000 A 
ATOM     13  C   UNL     1       1.684   7.205  20.301  0.00  0.00    +0.000 A 
ATOM     14  C   UNL     1       2.245   5.873  20.380  0.00  0.00    +0.000 C 
ATOM     15  O   UNL     1       1.982   5.101  21.306  0.00  0.00    +0.000 OA
ENDROOT
BRANCH   6  16
ATOM     16  O   UNL     1       4.615   6.647  16.082  0.00  0.00    +0.000 OA
ATOM     17  H   UNL     1       5.583   6.592  15.914  0.00  0.00    +0.000 HD
ENDBRANCH   6  16
BRANCH   1  18
ATOM     18  C   UNL     1       5.652   4.001  16.041  0.00  0.00    +0.000 C 
BRANCH  18  19
ATOM     19  C   UNL     1       7.108   4.439  16.058  0.00  0.00    +0.000 C 
ATOM     20  O   UNL     1       7.803   4.515  17.061  0.00  0.00    +0.000 OA
BRANCH  19  21
ATOM     21  O   UNL     1       7.507   4.848  14.817  0.00  0.00    +0.000 OA
BRANCH  21  22
ATOM     22  C   UNL     1       6.467   4.717  13.834  0.00  0.00    +0.000 C 
BRANCH  22  24
ATOM     23  C   UNL     1       5.724   3.104  12.070  0.00  0.00    +0.000 C 
ATOM     24  C   UNL     1       6.905   3.866  12.654  0.00  0.00    +0.000 C 
ENDBRANCH  22  24
ENDBRANCH  21  22
ENDBRANCH  19  21
ENDBRANCH  18  19
ENDBRANCH   1  18
TORSDOF 6
ENDMDL
MODEL 3
REMARK VINA RESULT:      -7.2      1.717      2.016
REMARK  Name = 
REMARK  7 active torsions:
REMARK  status: ('A' for Active; 'I' for Inactive)
REMARK    1  A    between atoms: C_1  and  C_2
REMARK    2  A    between atoms: C_2  and  C_3
REMARK    3  A    between atoms: C_3  and  O_4
REMARK    4  A    between atoms: O_4  and  C_5
REMARK    5  A    between atoms: C_5  and  C_7
REMARK    6  A    between atoms: C_7  and  C_8
REMARK    7  A    between atoms: C_13  and  O_14
REMARK                            x       y       z     vdW  Elec       q    Type
REMARK                         _______ _______ _______ _____ _____    ______ ____
ROOT
ATOM      1  C   UNL     1       5.543   4.597  15.491  0.00  0.00    +0.000 A 
ATOM      2  C   UNL     1       5.425   5.962  15.180  0.00  0.00    +0.000 A 
ATOM      3  C   UNL     1       4.707   6.830  15.999  0.00  0.00    +0.000 A 
ATOM      4  C   UNL     1       4.056   6.343  17.137  0.00  0.00    +0.000 A 
ATOM      5  C   UNL     1       4.109   4.969  17.438  0.00  0.00    +0.000 A 
ATOM      6  C   UNL     1       4.859   4.105  16.613  0.00  0.00    +0.000 A 
ATOM      7  C   UNL     1       3.385   4.440  18.630  0.00  0.00    +0.000 C 
ATOM      8  O   UNL     1       3.427   3.233  18.856  0.00  0.00    +0.000 OA
ATOM      9  C   UNL     1       2.677   5.417  19.422  0.00  0.00    +0.000 A 
ATOM     10  S   UNL     1       1.795   4.995  20.812  0.00  0.00    +0.000 S 
ATOM     11  C   UNL     1       1.334   6.623  21.078  0.00  0.00    +0.000 A 
ATOM     12  C   UNL     1       1.852   7.469  20.121  0.00  0.00    +0.000 A 
ATOM     13  C   UNL     1       2.636   6.768  19.151  0.00  0.00    +0.000 A 
ATOM     14  C   UNL     1       3.326   7.312  18.002  0.00  0.00    +0.000 C 
ATOM     15  O   UNL     1       3.316   8.516  17.736  0.00  0.00    +0.000 OA
ENDROOT
BRANCH   6  16
ATOM     16  O   UNL     1       4.950   2.757  16.857  0.00  0.00    +0.000 OA
ATOM     17  H   UNL     1       5.391   2.319  16.094  0.00  0.00    +0.000 HD
ENDBRANCH   6  16
BRANCH   1  18
ATOM     18  C   UNL     1       6.477   3.725  14.664  0.00  0.00    +0.000 C 
BRANCH  18  19
ATOM     19  C   UNL     1       6.277   3.919  13.169  0.00  0.00    +0.000 C 
ATOM     20  O   UNL     1       7.122   4.358  12.402  0.00  0.00    +0.000 OA
BRANCH  19  21
ATOM     21  O   UNL     1       4.987   3.645  12.811  0.00  0.00    +0.000 OA
BRANCH  21  22
ATOM     22  C   UNL     1       4.892   3.057  11.504  0.00  0.00    +0.000 C 
BRANCH  22  24
ATOM     23  C   UNL     1       3.213   4.073   9.949  0.00  0.00    +0.000 C 
ATOM     24  C   UNL     1       3.458   3.006  11.007  0.00  0.00    +0.000 C 
ENDBRANCH  22  24
ENDBRANCH  21  22
ENDBRANCH  19  21
ENDBRANCH  18  19
ENDBRANCH   1  18
TORSDOF 6
ENDMDL
MODEL 4
REMARK VINA RESULT:      -7.1      3.301      5.088
REMARK  Name = 
REMARK  7 active torsions:
REMARK  status: ('A' for Active; 'I' for Inactive)
REMARK    1  A    between atoms: C_1  and  C_2
REMARK    2  A    between atoms: C_2  and  C_3
REMARK    3  A    between atoms: C_3  and  O_4
REMARK    4  A    between atoms: O_4  and  C_5
REMARK    5  A    between atoms: C_5  and  C_7
REMARK    6  A    between atoms: C_7  and  C_8
REMARK    7  A    between atoms: C_13  and  O_14
REMARK                            x       y       z     vdW  Elec       q    Type
REMARK                         _______ _______ _______ _____ _____    ______ ____
ROOT
ATOM      1  C   UNL     1       4.814   5.221  17.406  0.00  0.00    +0.000 A 
ATOM      2  C   UNL     1       4.563   4.399  18.518  0.00  0.00    +0.000 A 
ATOM      3  C   UNL     1       3.641   4.766  19.495  0.00  0.00    +0.000 A 
ATOM      4  C   UNL     1       2.970   5.989  19.400  0.00  0.00    +0.000 A 
ATOM      5  C   UNL     1       3.247   6.858  18.329  0.00  0.00    +0.000 A 
ATOM      6  C   UNL     1       4.167   6.464  17.334  0.00  0.00    +0.000 A 
ATOM      7  C   UNL     1       2.562   8.180  18.244  0.00  0.00    +0.000 C 
ATOM      8  O   UNL     1       2.841   8.930  17.312  0.00  0.00    +0.000 OA
ATOM      9  C   UNL     1       1.616   8.467  19.296  0.00  0.00    +0.000 A 
ATOM     10  S   UNL     1       0.746   9.925  19.365  0.00  0.00    +0.000 S 
ATOM     11  C   UNL     1      -0.050   9.444  20.804  0.00  0.00    +0.000 A 
ATOM     12  C   UNL     1       0.344   8.189  21.216  0.00  0.00    +0.000 A 
ATOM     13  C   UNL     1       1.319   7.616  20.339  0.00  0.00    +0.000 A 
ATOM     14  C   UNL     1       1.968   6.329  20.450  0.00  0.00    +0.000 C 
ATOM     15  O   UNL     1       1.718   5.540  21.366  0.00  0.00    +0.000 OA
ENDROOT
BRANCH   6  16
ATOM     16  O   UNL     1       4.476   7.266  16.264  0.00  0.00    +0.000 OA
ATOM     17  H   UNL     1       5.425   7.144  16.031  0.00  0.00    +0.000 HD
ENDBRANCH   6  16
BRANCH   1  18
ATOM     18  C   UNL     1       5.699   4.700  16.282  0.00  0.00    +0.000 C 
BRANCH  18  19
ATOM     19  C   UNL     1       7.170   5.011  16.513  0.00  0.00    +0.000 C 
ATOM     20  O   UNL     1       8.005   4.198  16.882  0.00  0.00    +0.000 OA
BRANCH  19  21
ATOM     21  O   UNL     1       7.415   6.346  16.362  0.00  0.00    +0.000 OA
BRANCH  21  22
ATOM     22  C   UNL     1       7.806   6.975  17.593  0.00  0.00    +0.000 C 
BRANCH  22  24
ATOM     23  C   UNL     1       8.596   9.224  18.358  0.00  0.00    +0.000 C 
ATOM     24  C   UNL     1       7.527   8.468  17.582  0.00  0.00    +0.000 C 
ENDBRANCH  22  24
ENDBRANCH  21  22
ENDBRANCH  19  21
ENDBRANCH  18  19
ENDBRANCH   1  18
TORSDOF 6
ENDMDL
MODEL 5
REMARK VINA RESULT:      -7.1      5.219      7.970
REMARK  Name = 
REMARK  7 active torsions:
REMARK  status: ('A' for Active; 'I' for Inactive)
REMARK    1  A    between atoms: C_1  and  C_2
REMARK    2  A    between atoms: C_2  and  C_3
REMARK    3  A    between atoms: C_3  and  O_4
REMARK    4  A    between atoms: O_4  and  C_5
REMARK    5  A    between atoms: C_5  and  C_7
REMARK    6  A    between atoms: C_7  and  C_8
REMARK    7  A    between atoms: C_13  and  O_14
REMARK                            x       y       z     vdW  Elec       q    Type
REMARK                         _______ _______ _______ _____ _____    ______ ____
ROOT
ATOM      1  C   UNL     1       2.077   8.031  18.969  0.00  0.00    +0.000 A 
ATOM      2  C   UNL     1       2.012   7.449  20.246  0.00  0.00    +0.000 A 
ATOM      3  C   UNL     1       1.314   8.061  21.285  0.00  0.00    +0.000 A 
ATOM      4  C   UNL     1       0.689   9.295  21.078  0.00  0.00    +0.000 A 
ATOM      5  C   UNL     1       0.790   9.928  19.825  0.00  0.00    +0.000 A 
ATOM      6  C   UNL     1       1.481   9.287  18.775  0.00  0.00    +0.000 A 
ATOM      7  C   UNL     1       0.157  11.261  19.611  0.00  0.00    +0.000 C 
ATOM      8  O   UNL     1       0.281  11.803  18.516  0.00  0.00    +0.000 OA
ATOM      9  C   UNL     1      -0.552  11.810  20.742  0.00  0.00    +0.000 A 
ATOM     10  S   UNL     1      -1.330  13.320  20.684  0.00  0.00    +0.000 S 
ATOM     11  C   UNL     1      -1.851  13.174  22.309  0.00  0.00    +0.000 A 
ATOM     12  C   UNL     1      -1.437  11.990  22.879  0.00  0.00    +0.000 A 
ATOM     13  C   UNL     1      -0.677  11.191  21.967  0.00  0.00    +0.000 A 
ATOM     14  C   UNL     1      -0.074   9.898  22.207  0.00  0.00    +0.000 C 
ATOM     15  O   UNL     1      -0.174   9.314  23.288  0.00  0.00    +0.000 OA
ENDROOT
BRANCH   6  16
ATOM     16  O   UNL     1       1.609   9.852  17.531  0.00  0.00    +0.000 OA
ATOM     17  H   UNL     1       2.520   9.689  17.194  0.00  0.00    +0.000 HD
ENDBRANCH   6  16
BRANCH   1  18
ATOM     18  C   UNL     1       2.703   7.245  17.825  0.00  0.00    +0.000 C 
BRANCH  18  19
ATOM     19  C   UNL     1       2.916   5.781  18.178  0.00  0.00    +0.000 C 
ATOM     20  O   UNL     1       3.991   5.286  18.486  0.00  0.00    +0.000 OA
BRANCH  19  21
ATOM     21  O   UNL     1       1.767   5.065  17.994  0.00  0.00    +0.000 OA
BRANCH  21  22
ATOM     22  C   UNL     1       1.773   3.823  18.717  0.00  0.00    +0.000 C 
BRANCH  22  24
ATOM     23  C   UNL     1       1.939   3.830  21.215  0.00  0.00    +0.000 C 
ATOM     24  C   UNL     1       1.000   3.922  20.021  0.00  0.00    +0.000 C 
ENDBRANCH  22  24
ENDBRANCH  21  22
ENDBRANCH  19  21
ENDBRANCH  18  19
ENDBRANCH   1  18
TORSDOF 6
ENDMDL
MODEL 6
REMARK VINA RESULT:      -7.0      3.903      6.083
REMARK  Name = 
REMARK  7 active torsions:
REMARK  status: ('A' for Active; 'I' for Inactive)
REMARK    1  A    between atoms: C_1  and  C_2
REMARK    2  A    between atoms: C_2  and  C_3
REMARK    3  A    between atoms: C_3  and  O_4
REMARK    4  A    between atoms: O_4  and  C_5
REMARK    5  A    between atoms: C_5  and  C_7
REMARK    6  A    between atoms: C_7  and  C_8
REMARK    7  A    between atoms: C_13  and  O_14
REMARK                            x       y       z     vdW  Elec       q    Type
REMARK                         _______ _______ _______ _____ _____    ______ ____
ROOT
ATOM      1  C   UNL     1       3.356   5.782  19.012  0.00  0.00    +0.000 A 
ATOM      2  C   UNL     1       3.633   6.452  17.808  0.00  0.00    +0.000 A 
ATOM      3  C   UNL     1       3.152   7.737  17.569  0.00  0.00    +0.000 A 
ATOM      4  C   UNL     1       2.347   8.372  18.520  0.00  0.00    +0.000 A 
ATOM      5  C   UNL     1       2.005   7.699  19.708  0.00  0.00    +0.000 A 
ATOM      6  C   UNL     1       2.518   6.407  19.947  0.00  0.00    +0.000 A 
ATOM      7  C   UNL     1       1.116   8.358  20.708  0.00  0.00    +0.000 C 
ATOM      8  O   UNL     1       0.813   7.739  21.724  0.00  0.00    +0.000 OA
ATOM      9  C   UNL     1       0.676   9.692  20.376  0.00  0.00    +0.000 A 
ATOM     10  S   UNL     1      -0.344  10.594  21.393  0.00  0.00    +0.000 S 
ATOM     11  C   UNL     1      -0.345  11.918  20.307  0.00  0.00    +0.000 A 
ATOM     12  C   UNL     1       0.425  11.671  19.191  0.00  0.00    +0.000 A 
ATOM     13  C   UNL     1       1.021  10.371  19.227  0.00  0.00    +0.000 A 
ATOM     14  C   UNL     1       1.880   9.759  18.237  0.00  0.00    +0.000 C 
ATOM     15  O   UNL     1       2.215  10.342  17.203  0.00  0.00    +0.000 OA
ENDROOT
BRANCH   6  16
ATOM     16  O   UNL     1       2.223   5.703  21.088  0.00  0.00    +0.000 OA
ATOM     17  H   UNL     1       2.904   5.005  21.223  0.00  0.00    +0.000 HD
ENDBRANCH   6  16
BRANCH   1  18
ATOM     18  C   UNL     1       4.044   4.454  19.298  0.00  0.00    +0.000 C 
BRANCH  18  19
ATOM     19  C   UNL     1       5.088   4.105  18.248  0.00  0.00    +0.000 C 
ATOM     20  O   UNL     1       4.843   3.605  17.160  0.00  0.00    +0.000 OA
BRANCH  19  21
ATOM     21  O   UNL     1       6.350   4.318  18.727  0.00  0.00    +0.000 OA
BRANCH  21  22
ATOM     22  C   UNL     1       7.151   5.106  17.832  0.00  0.00    +0.000 C 
BRANCH  22  24
ATOM     23  C   UNL     1       7.598   7.557  17.587  0.00  0.00    +0.000 C 
ATOM     24  C   UNL     1       7.701   6.350  18.508  0.00  0.00    +0.000 C 
ENDBRANCH  22  24
ENDBRANCH  21  22
ENDBRANCH  19  21
ENDBRANCH  18  19
ENDBRANCH   1  18
TORSDOF 6
ENDMDL
MODEL 7
REMARK VINA RESULT:      -7.0      5.215      7.965
REMARK  Name = 
REMARK  7 active torsions:
REMARK  status: ('A' for Active; 'I' for Inactive)
REMARK    1  A    between atoms: C_1  and  C_2
REMARK    2  A    between atoms: C_2  and  C_3
REMARK    3  A    between atoms: C_3  and  O_4
REMARK    4  A    between atoms: O_4  and  C_5
REMARK    5  A    between atoms: C_5  and  C_7
REMARK    6  A    between atoms: C_7  and  C_8
REMARK    7  A    between atoms: C_13  and  O_14
REMARK                            x       y       z     vdW  Elec       q    Type
REMARK                         _______ _______ _______ _____ _____    ______ ____
ROOT
ATOM      1  C   UNL     1       2.127   7.840  19.017  0.00  0.00    +0.000 A 
ATOM      2  C   UNL     1       1.788   8.573  17.868  0.00  0.00    +0.000 A 
ATOM      3  C   UNL     1       0.971   9.699  17.943  0.00  0.00    +0.000 A 
ATOM      4  C   UNL     1       0.441  10.099  19.174  0.00  0.00    +0.000 A 
ATOM      5  C   UNL     1       0.716   9.346  20.331  0.00  0.00    +0.000 A 
ATOM      6  C   UNL     1       1.564   8.222  20.244  0.00  0.00    +0.000 A 
ATOM      7  C   UNL     1       0.123   9.747  21.639  0.00  0.00    +0.000 C 
ATOM      8  O   UNL     1       0.359   9.059  22.629  0.00  0.00    +0.000 OA
ATOM      9  C   UNL     1      -0.702  10.932  21.620  0.00  0.00    +0.000 A 
ATOM     10  S   UNL     1      -1.464  11.535  23.014  0.00  0.00    +0.000 S 
ATOM     11  C   UNL     1      -2.162  12.830  22.138  0.00  0.00    +0.000 A 
ATOM     12  C   UNL     1      -1.813  12.799  20.805  0.00  0.00    +0.000 A 
ATOM     13  C   UNL     1      -0.962  11.690  20.498  0.00  0.00    +0.000 A 
ATOM     14  C   UNL     1      -0.402  11.327  19.215  0.00  0.00    +0.000 C 
ATOM     15  O   UNL     1      -0.608  11.988  18.194  0.00  0.00    +0.000 OA
ENDROOT
BRANCH   6  16
ATOM     16  O   UNL     1       1.871   7.452  21.338  0.00  0.00    +0.000 OA
ATOM     17  H   UNL     1       2.107   8.039  22.092  0.00  0.00    +0.000 HD
ENDBRANCH   6  16
BRANCH   1  18
ATOM     18  C   UNL     1       3.158   6.725  18.910  0.00  0.00    +0.000 C 
BRANCH  18  19
ATOM     19  C   UNL     1       2.514   5.350  18.813  0.00  0.00    +0.000 C 
ATOM     20  O   UNL     1       2.170   4.812  17.771  0.00  0.00    +0.000 OA
BRANCH  19  21
ATOM     21  O   UNL     1       2.266   4.841  20.057  0.00  0.00    +0.000 OA
BRANCH  21  22
ATOM     22  C   UNL     1       1.063   4.056  20.099  0.00  0.00    +0.000 C 
BRANCH  22  24
ATOM     23  C   UNL     1       2.615   2.727  21.544  0.00  0.00    +0.000 C 
ATOM     24  C   UNL     1       1.181   2.886  21.060  0.00  0.00    +0.000 C 
ENDBRANCH  22  24
ENDBRANCH  21  22
ENDBRANCH  19  21
ENDBRANCH  18  19
ENDBRANCH   1  18
TORSDOF 6
ENDMDL
MODEL 8
REMARK VINA RESULT:      -6.9      3.054      4.388
REMARK  Name = 
REMARK  7 active torsions:
REMARK  status: ('A' for Active; 'I' for Inactive)
REMARK    1  A    between atoms: C_1  and  C_2
REMARK    2  A    between atoms: C_2  and  C_3
REMARK    3  A    between atoms: C_3  and  O_4
REMARK    4  A    between atoms: O_4  and  C_5
REMARK    5  A    between atoms: C_5  and  C_7
REMARK    6  A    between atoms: C_7  and  C_8
REMARK    7  A    between atoms: C_13  and  O_14
REMARK                            x       y       z     vdW  Elec       q    Type
REMARK                         _______ _______ _______ _____ _____    ______ ____
ROOT
ATOM      1  C   UNL     1       4.394   5.453  17.917  0.00  0.00    +0.000 A 
ATOM      2  C   UNL     1       4.420   6.455  16.932  0.00  0.00    +0.000 A 
ATOM      3  C   UNL     1       3.669   7.620  17.067  0.00  0.00    +0.000 A 
ATOM      4  C   UNL     1       2.842   7.796  18.181  0.00  0.00    +0.000 A 
ATOM      5  C   UNL     1       2.752   6.782  19.152  0.00  0.00    +0.000 A 
ATOM      6  C   UNL     1       3.535   5.616  19.014  0.00  0.00    +0.000 A 
ATOM      7  C   UNL     1       1.843   6.949  20.322  0.00  0.00    +0.000 C 
ATOM      8  O   UNL     1       1.765   6.038  21.142  0.00  0.00    +0.000 OA
ATOM      9  C   UNL     1       1.114   8.194  20.380  0.00  0.00    +0.000 A 
ATOM     10  S   UNL     1       0.029   8.556  21.637  0.00  0.00    +0.000 S 
ATOM     11  C   UNL     1      -0.338  10.082  20.952  0.00  0.00    +0.000 A 
ATOM     12  C   UNL     1       0.362  10.306  19.786  0.00  0.00    +0.000 A 
ATOM     13  C   UNL     1       1.209   9.204  19.448  0.00  0.00    +0.000 A 
ATOM     14  C   UNL     1       2.081   9.072  18.301  0.00  0.00    +0.000 C 
ATOM     15  O   UNL     1       2.196   9.960  17.453  0.00  0.00    +0.000 OA
ENDROOT
BRANCH   6  16
ATOM     16  O   UNL     1       3.493   4.595  19.930  0.00  0.00    +0.000 OA
ATOM     17  H   UNL     1       4.382   4.176  19.989  0.00  0.00    +0.000 HD
ENDBRANCH   6  16
BRANCH   1  18
ATOM     18  C   UNL     1       5.359   4.280  17.809  0.00  0.00    +0.000 C 
BRANCH  18  19
ATOM     19  C   UNL     1       6.811   4.712  17.943  0.00  0.00    +0.000 C 
ATOM     20  O   UNL     1       7.317   5.156  18.964  0.00  0.00    +0.000 OA
BRANCH  19  21
ATOM     21  O   UNL     1       7.451   4.647  16.737  0.00  0.00    +0.000 OA
BRANCH  21  22
ATOM     22  C   UNL     1       6.679   3.954  15.743  0.00  0.00    +0.000 C 
BRANCH  22  24
ATOM     23  C   UNL     1       6.173   3.779  13.298  0.00  0.00    +0.000 C 
ATOM     24  C   UNL     1       6.681   4.684  14.411  0.00  0.00    +0.000 C 
ENDBRANCH  22  24
ENDBRANCH  21  22
ENDBRANCH  19  21
ENDBRANCH  18  19
ENDBRANCH   1  18
TORSDOF 6
ENDMDL
MODEL 9
REMARK VINA RESULT:      -6.9      3.789      5.718
REMARK  Name = 
REMARK  7 active torsions:
REMARK  status: ('A' for Active; 'I' for Inactive)
REMARK    1  A    between atoms: C_1  and  C_2
REMARK    2  A    between atoms: C_2  and  C_3
REMARK    3  A    between atoms: C_3  and  O_4
REMARK    4  A    between atoms: O_4  and  C_5
REMARK    5  A    between atoms: C_5  and  C_7
REMARK    6  A    between atoms: C_7  and  C_8
REMARK    7  A    between atoms: C_13  and  O_14
REMARK                            x       y       z     vdW  Elec       q    Type
REMARK                         _______ _______ _______ _____ _____    ______ ____
ROOT
ATOM      1  C   UNL     1       3.447   5.846  18.983  0.00  0.00    +0.000 A 
ATOM      2  C   UNL     1       3.678   6.535  17.780  0.00  0.00    +0.000 A 
ATOM      3  C   UNL     1       3.146   7.803  17.560  0.00  0.00    +0.000 A 
ATOM      4  C   UNL     1       2.337   8.402  18.531  0.00  0.00    +0.000 A 
ATOM      5  C   UNL     1       2.042   7.709  19.719  0.00  0.00    +0.000 A 
ATOM      6  C   UNL     1       2.605   6.434  19.939  0.00  0.00    +0.000 A 
ATOM      7  C   UNL     1       1.149   8.328  20.741  0.00  0.00    +0.000 C 
ATOM      8  O   UNL     1       0.887   7.690  21.758  0.00  0.00    +0.000 OA
ATOM      9  C   UNL     1       0.655   9.648  20.429  0.00  0.00    +0.000 A 
ATOM     10  S   UNL     1      -0.377  10.504  21.472  0.00  0.00    +0.000 S 
ATOM     11  C   UNL     1      -0.446  11.836  20.397  0.00  0.00    +0.000 A 
ATOM     12  C   UNL     1       0.311  11.625  19.265  0.00  0.00    +0.000 A 
ATOM     13  C   UNL     1       0.954  10.347  19.279  0.00  0.00    +0.000 A 
ATOM     14  C   UNL     1       1.816   9.773  18.268  0.00  0.00    +0.000 C 
ATOM     15  O   UNL     1       2.110  10.375  17.233  0.00  0.00    +0.000 OA
ENDROOT
BRANCH   6  16
ATOM     16  O   UNL     1       2.357   5.711  21.079  0.00  0.00    +0.000 OA
ATOM     17  H   UNL     1       1.489   5.255  20.991  0.00  0.00    +0.000 HD
ENDBRANCH   6  16
BRANCH   1  18
ATOM     18  C   UNL     1       4.188   4.542  19.246  0.00  0.00    +0.000 C 
BRANCH  18  19
ATOM     19  C   UNL     1       5.687   4.675  19.031  0.00  0.00    +0.000 C 
ATOM     20  O   UNL     1       6.441   5.315  19.749  0.00  0.00    +0.000 OA
BRANCH  19  21
ATOM     21  O   UNL     1       6.066   4.076  17.862  0.00  0.00    +0.000 OA
BRANCH  21  22
ATOM     22  C   UNL     1       7.143   4.771  17.213  0.00  0.00    +0.000 C 
BRANCH  22  24
ATOM     23  C   UNL     1       6.180   4.106  15.000  0.00  0.00    +0.000 C 
ATOM     24  C   UNL     1       6.756   5.249  15.824  0.00  0.00    +0.000 C 
ENDBRANCH  22  24
ENDBRANCH  21  22
ENDBRANCH  19  21
ENDBRANCH  18  19
ENDBRANCH   1  18
TORSDOF 6
ENDMDL
