MODEL 1
REMARK VINA RESULT:      -9.7      0.000      0.000
REMARK  Name = 
REMARK  2 active torsions:
REMARK  status: ('A' for Active; 'I' for Inactive)
REMARK    1  A    between atoms: C_1  and  C_2
REMARK    2  A    between atoms: C_3  and  C_4
REMARK                            x       y       z     vdW  Elec       q    Type
REMARK                         _______ _______ _______ _____ _____    ______ ____
ROOT
ATOM      1  C   UNL     1       2.558   7.779  17.746  0.00  0.00    +0.000 C 
ATOM      2  C   UNL     1       2.374   6.856  18.902  0.00  0.00    +0.000 A 
ATOM      3  C   UNL     1       2.722   5.520  19.067  0.00  0.00    +0.000 A 
ATOM      4  C   UNL     1       2.352   5.231  20.396  0.00  0.00    +0.000 A 
ATOM      5  N   UNL     1       1.783   6.261  21.024  0.00  0.00    +0.000 NA
ATOM      6  N   UNL     1       1.809   7.270  20.100  0.00  0.00    +0.000 N 
ATOM      7  C   UNL     1       1.306   8.539  20.452  0.00  0.00    +0.000 A 
ATOM      8  N   UNL     1       1.218   9.536  19.628  0.00  0.00    +0.000 NA
ATOM      9  C   UNL     1       0.708  10.678  20.165  0.00  0.00    +0.000 A 
ATOM     10  C   UNL     1       0.331  10.848  21.431  0.00  0.00    +0.000 A 
ATOM     11  C   UNL     1       0.450   9.723  22.361  0.00  0.00    +0.000 A 
ATOM     12  O   UNL     1       0.144   9.812  23.543  0.00  0.00    +0.000 OA
ATOM     13  N   UNL     1       0.933   8.583  21.781  0.00  0.00    +0.000 N 
ATOM     14  C   UNL     1      -0.178  12.206  21.719  0.00  0.00    +0.000 C 
ATOM     15  C   UNL     1      -0.284  12.817  20.314  0.00  0.00    +0.000 C 
ATOM     16  C   UNL     1       0.512  11.917  19.359  0.00  0.00    +0.000 C 
ATOM     17  H   UNL     1       1.052   7.751  22.348  0.00  0.00    +0.000 HD
ENDROOT
BRANCH   3  18
ATOM     18  C   UNL     1       3.431   4.682  18.110  0.00  0.00    +0.000 C 
ATOM     19  O   UNL     1       2.861   3.719  17.595  0.00  0.00    +0.000 OA
ATOM     20  N   UNL     1       4.769   5.002  17.783  0.00  0.00    +0.000 N 
ATOM     21  C   UNL     1       5.333   4.145  16.738  0.00  0.00    +0.000 C 
ATOM     22  C   UNL     1       6.796   4.400  16.367  0.00  0.00    +0.000 C 
ATOM     23  C   UNL     1       6.977   5.693  15.561  0.00  0.00    +0.000 C 
ATOM     24  O   UNL     1       6.650   6.858  16.317  0.00  0.00    +0.000 OA
ATOM     25  C   UNL     1       7.363   6.939  17.547  0.00  0.00    +0.000 C 
ATOM     26  C   UNL     1       7.144   5.697  18.419  0.00  0.00    +0.000 C 
ATOM     27  C   UNL     1       7.611   4.467  17.651  0.00  0.00    +0.000 C 
ATOM     28  C   UNL     1       5.669   5.526  18.822  0.00  0.00    +0.000 C 
ENDBRANCH   3  18
TORSDOF 1
ENDMDL
MODEL 2
REMARK VINA RESULT:      -9.0      2.494      4.111
REMARK  Name = 
REMARK  2 active torsions:
REMARK  status: ('A' for Active; 'I' for Inactive)
REMARK    1  A    between atoms: C_1  and  C_2
REMARK    2  A    between atoms: C_3  and  C_4
REMARK                            x       y       z     vdW  Elec       q    Type
REMARK                         _______ _______ _______ _____ _____    ______ ____
ROOT
ATOM      1  C   UNL     1       2.076   7.248  20.714  0.00  0.00    +0.000 C 
ATOM      2  C   UNL     1       2.248   7.839  19.356  0.00  0.00    +0.000 A 
ATOM      3  C   UNL     1       2.998   7.414  18.266  0.00  0.00    +0.000 A 
ATOM      4  C   UNL     1       2.695   8.351  17.256  0.00  0.00    +0.000 A 
ATOM      5  N   UNL     1       1.864   9.312  17.658  0.00  0.00    +0.000 NA
ATOM      6  N   UNL     1       1.578   8.987  18.956  0.00  0.00    +0.000 N 
ATOM      7  C   UNL     1       0.683   9.792  19.687  0.00  0.00    +0.000 A 
ATOM      8  N   UNL     1       0.405   9.611  20.940  0.00  0.00    +0.000 NA
ATOM      9  C   UNL     1      -0.489  10.495  21.461  0.00  0.00    +0.000 A 
ATOM     10  C   UNL     1      -1.095  11.478  20.799  0.00  0.00    +0.000 A 
ATOM     11  C   UNL     1      -0.791  11.666  19.379  0.00  0.00    +0.000 A 
ATOM     12  O   UNL     1      -1.326  12.534  18.700  0.00  0.00    +0.000 OA
ATOM     13  N   UNL     1       0.135  10.783  18.897  0.00  0.00    +0.000 N 
ATOM     14  C   UNL     1      -2.022  12.271  21.634  0.00  0.00    +0.000 C 
ATOM     15  C   UNL     1      -1.710  11.753  23.046  0.00  0.00    +0.000 C 
ATOM     16  C   UNL     1      -0.906  10.454  22.892  0.00  0.00    +0.000 C 
ATOM     17  H   UNL     1       0.408  10.835  17.922  0.00  0.00    +0.000 HD
ENDROOT
BRANCH   3  18
ATOM     18  C   UNL     1       3.795   6.198  18.179  0.00  0.00    +0.000 C 
ATOM     19  O   UNL     1       4.983   6.262  17.861  0.00  0.00    +0.000 OA
ATOM     20  N   UNL     1       3.181   4.959  18.474  0.00  0.00    +0.000 N 
ATOM     21  C   UNL     1       4.112   3.828  18.448  0.00  0.00    +0.000 C 
ATOM     22  C   UNL     1       3.510   2.446  18.708  0.00  0.00    +0.000 C 
ATOM     23  C   UNL     1       3.129   2.242  20.180  0.00  0.00    +0.000 C 
ATOM     24  O   UNL     1       2.078   3.114  20.598  0.00  0.00    +0.000 OA
ATOM     25  C   UNL     1       0.921   3.023  19.772  0.00  0.00    +0.000 C 
ATOM     26  C   UNL     1       1.247   3.299  18.300  0.00  0.00    +0.000 C 
ATOM     27  C   UNL     1       2.280   2.285  17.824  0.00  0.00    +0.000 C 
ATOM     28  C   UNL     1       1.783   4.725  18.082  0.00  0.00    +0.000 C 
ENDBRANCH   3  18
TORSDOF 1
ENDMDL
MODEL 3
REMARK VINA RESULT:      -8.2      2.644      8.039
REMARK  Name = 
REMARK  2 active torsions:
REMARK  status: ('A' for Active; 'I' for Inactive)
REMARK    1  A    between atoms: C_1  and  C_2
REMARK    2  A    between atoms: C_3  and  C_4
REMARK                            x       y       z     vdW  Elec       q    Type
REMARK                         _______ _______ _______ _____ _____    ______ ____
ROOT
ATOM      1  C   UNL     1       1.676   9.450  17.903  0.00  0.00    +0.000 C 
ATOM      2  C   UNL     1       1.251   9.399  19.331  0.00  0.00    +0.000 A 
ATOM      3  C   UNL     1       0.581  10.331  20.116  0.00  0.00    +0.000 A 
ATOM      4  C   UNL     1       0.409   9.676  21.352  0.00  0.00    +0.000 A 
ATOM      5  N   UNL     1       0.946   8.456  21.385  0.00  0.00    +0.000 NA
ATOM      6  N   UNL     1       1.457   8.282  20.128  0.00  0.00    +0.000 N 
ATOM      7  C   UNL     1       2.080   7.061  19.801  0.00  0.00    +0.000 A 
ATOM      8  N   UNL     1       2.659   6.826  18.665  0.00  0.00    +0.000 NA
ATOM      9  C   UNL     1       3.198   5.583  18.544  0.00  0.00    +0.000 A 
ATOM     10  C   UNL     1       3.154   4.618  19.461  0.00  0.00    +0.000 A 
ATOM     11  C   UNL     1       2.483   4.883  20.735  0.00  0.00    +0.000 A 
ATOM     12  O   UNL     1       2.384   4.038  21.616  0.00  0.00    +0.000 OA
ATOM     13  N   UNL     1       1.984   6.152  20.836  0.00  0.00    +0.000 N 
ATOM     14  C   UNL     1       3.824   3.369  19.039  0.00  0.00    +0.000 C 
ATOM     15  C   UNL     1       4.530   3.802  17.745  0.00  0.00    +0.000 C 
ATOM     16  C   UNL     1       3.923   5.146  17.317  0.00  0.00    +0.000 C 
ATOM     17  H   UNL     1       1.499   6.428  21.683  0.00  0.00    +0.000 HD
ENDROOT
BRANCH   3  18
ATOM     18  C   UNL     1       0.069  11.624  19.684  0.00  0.00    +0.000 C 
ATOM     19  O   UNL     1      -0.973  11.685  19.028  0.00  0.00    +0.000 OA
ATOM     20  N   UNL     1       0.782  12.792  20.037  0.00  0.00    +0.000 N 
ATOM     21  C   UNL     1       0.110  14.029  19.629  0.00  0.00    +0.000 C 
ATOM     22  C   UNL     1       0.848  15.334  19.933  0.00  0.00    +0.000 C 
ATOM     23  C   UNL     1       0.826  15.683  21.427  0.00  0.00    +0.000 C 
ATOM     24  O   UNL     1       1.544  14.738  22.220  0.00  0.00    +0.000 OA
ATOM     25  C   UNL     1       2.885  14.549  21.778  0.00  0.00    +0.000 C 
ATOM     26  C   UNL     1       2.947  14.122  20.307  0.00  0.00    +0.000 C 
ATOM     27  C   UNL     1       2.287  15.196  19.452  0.00  0.00    +0.000 C 
ATOM     28  C   UNL     1       2.252  12.770  20.066  0.00  0.00    +0.000 C 
ENDBRANCH   3  18
TORSDOF 1
ENDMDL
MODEL 4
REMARK VINA RESULT:      -8.2      2.311      3.542
REMARK  Name = 
REMARK  2 active torsions:
REMARK  status: ('A' for Active; 'I' for Inactive)
REMARK    1  A    between atoms: C_1  and  C_2
REMARK    2  A    between atoms: C_3  and  C_4
REMARK                            x       y       z     vdW  Elec       q    Type
REMARK                         _______ _______ _______ _____ _____    ______ ____
ROOT
ATOM      1  C   UNL     1       2.076   9.341  17.800  0.00  0.00    +0.000 C 
ATOM      2  C   UNL     1       1.863   8.557  19.049  0.00  0.00    +0.000 A 
ATOM      3  C   UNL     1       2.251   7.266  19.393  0.00  0.00    +0.000 A 
ATOM      4  C   UNL     1       1.818   7.123  20.726  0.00  0.00    +0.000 A 
ATOM      5  N   UNL     1       1.177   8.194  21.194  0.00  0.00    +0.000 NA
ATOM      6  N   UNL     1       1.216   9.086  20.158  0.00  0.00    +0.000 N 
ATOM      7  C   UNL     1       0.647  10.363  20.326  0.00  0.00    +0.000 A 
ATOM      8  N   UNL     1       0.567  11.250  19.384  0.00  0.00    +0.000 NA
ATOM      9  C   UNL     1      -0.014  12.424  19.751  0.00  0.00    +0.000 A 
ATOM     10  C   UNL     1      -0.467  12.728  20.966  0.00  0.00    +0.000 A 
ATOM     11  C   UNL     1      -0.358  11.729  22.031  0.00  0.00    +0.000 A 
ATOM     12  O   UNL     1      -0.733  11.944  23.177  0.00  0.00    +0.000 OA
ATOM     13  N   UNL     1       0.199  10.550  21.619  0.00  0.00    +0.000 N 
ATOM     14  C   UNL     1      -1.042  14.086  21.061  0.00  0.00    +0.000 C 
ATOM     15  C   UNL     1      -1.093  14.521  19.588  0.00  0.00    +0.000 C 
ATOM     16  C   UNL     1      -0.212  13.548  18.792  0.00  0.00    +0.000 C 
ATOM     17  H   UNL     1       0.318   9.797  22.288  0.00  0.00    +0.000 HD
ENDROOT
BRANCH   3  18
ATOM     18  C   UNL     1       3.043   6.352  18.582  0.00  0.00    +0.000 C 
ATOM     19  O   UNL     1       3.865   6.797  17.779  0.00  0.00    +0.000 OA
ATOM     20  N   UNL     1       2.855   4.961  18.743  0.00  0.00    +0.000 N 
ATOM     21  C   UNL     1       3.781   4.152  17.944  0.00  0.00    +0.000 C 
ATOM     22  C   UNL     1       3.603   2.635  18.028  0.00  0.00    +0.000 C 
ATOM     23  C   UNL     1       4.084   2.064  19.368  0.00  0.00    +0.000 C 
ATOM     24  O   UNL     1       3.301   2.522  20.470  0.00  0.00    +0.000 OA
ATOM     25  C   UNL     1       1.908   2.274  20.301  0.00  0.00    +0.000 C 
ATOM     26  C   UNL     1       1.370   2.898  19.008  0.00  0.00    +0.000 C 
ATOM     27  C   UNL     1       2.128   2.313  17.824  0.00  0.00    +0.000 C 
ATOM     28  C   UNL     1       1.508   4.431  19.003  0.00  0.00    +0.000 C 
ENDBRANCH   3  18
TORSDOF 1
ENDMDL
MODEL 5
REMARK VINA RESULT:      -8.1      1.665      2.466
REMARK  Name = 
REMARK  2 active torsions:
REMARK  status: ('A' for Active; 'I' for Inactive)
REMARK    1  A    between atoms: C_1  and  C_2
REMARK    2  A    between atoms: C_3  and  C_4
REMARK                            x       y       z     vdW  Elec       q    Type
REMARK                         _______ _______ _______ _____ _____    ______ ____
ROOT
ATOM      1  C   UNL     1       1.703   6.946  20.639  0.00  0.00    +0.000 C 
ATOM      2  C   UNL     1       2.029   7.595  19.337  0.00  0.00    +0.000 A 
ATOM      3  C   UNL     1       2.758   7.134  18.246  0.00  0.00    +0.000 A 
ATOM      4  C   UNL     1       2.653   8.174  17.301  0.00  0.00    +0.000 A 
ATOM      5  N   UNL     1       1.960   9.225  17.743  0.00  0.00    +0.000 NA
ATOM      6  N   UNL     1       1.565   8.859  19.000  0.00  0.00    +0.000 N 
ATOM      7  C   UNL     1       0.769   9.742  19.756  0.00  0.00    +0.000 A 
ATOM      8  N   UNL     1       0.406   9.521  20.981  0.00  0.00    +0.000 NA
ATOM      9  C   UNL     1      -0.366  10.495  21.534  0.00  0.00    +0.000 A 
ATOM     10  C   UNL     1      -0.781  11.605  20.926  0.00  0.00    +0.000 A 
ATOM     11  C   UNL     1      -0.383  11.841  19.536  0.00  0.00    +0.000 A 
ATOM     12  O   UNL     1      -0.744  12.827  18.906  0.00  0.00    +0.000 OA
ATOM     13  N   UNL     1       0.419  10.859  19.024  0.00  0.00    +0.000 N 
ATOM     14  C   UNL     1      -1.614  12.474  21.783  0.00  0.00    +0.000 C 
ATOM     15  C   UNL     1      -1.455  11.816  23.163  0.00  0.00    +0.000 C 
ATOM     16  C   UNL     1      -0.854  10.421  22.940  0.00  0.00    +0.000 C 
ATOM     17  H   UNL     1       0.745  10.935  18.066  0.00  0.00    +0.000 HD
ENDROOT
BRANCH   3  18
ATOM     18  C   UNL     1       3.361   5.817  18.098  0.00  0.00    +0.000 C 
ATOM     19  O   UNL     1       2.681   4.806  18.276  0.00  0.00    +0.000 OA
ATOM     20  N   UNL     1       4.726   5.729  17.740  0.00  0.00    +0.000 N 
ATOM     21  C   UNL     1       5.183   4.353  17.525  0.00  0.00    +0.000 C 
ATOM     22  C   UNL     1       6.664   4.176  17.184  0.00  0.00    +0.000 C 
ATOM     23  C   UNL     1       6.992   4.626  15.755  0.00  0.00    +0.000 C 
ATOM     24  O   UNL     1       6.805   6.029  15.567  0.00  0.00    +0.000 OA
ATOM     25  C   UNL     1       7.528   6.815  16.510  0.00  0.00    +0.000 C 
ATOM     26  C   UNL     1       7.168   6.448  17.955  0.00  0.00    +0.000 C 
ATOM     27  C   UNL     1       7.486   4.977  18.185  0.00  0.00    +0.000 C 
ATOM     28  C   UNL     1       5.684   6.712  18.267  0.00  0.00    +0.000 C 
ENDBRANCH   3  18
TORSDOF 1
ENDMDL
MODEL 6
REMARK VINA RESULT:      -7.8      2.451      8.090
REMARK  Name = 
REMARK  2 active torsions:
REMARK  status: ('A' for Active; 'I' for Inactive)
REMARK    1  A    between atoms: C_1  and  C_2
REMARK    2  A    between atoms: C_3  and  C_4
REMARK                            x       y       z     vdW  Elec       q    Type
REMARK                         _______ _______ _______ _____ _____    ______ ____
ROOT
ATOM      1  C   UNL     1       0.556   8.488  21.021  0.00  0.00    +0.000 C 
ATOM      2  C   UNL     1       1.149   8.918  19.723  0.00  0.00    +0.000 A 
ATOM      3  C   UNL     1       1.038  10.114  19.022  0.00  0.00    +0.000 A 
ATOM      4  C   UNL     1       1.881   9.937  17.907  0.00  0.00    +0.000 A 
ATOM      5  N   UNL     1       2.453   8.733  17.861  0.00  0.00    +0.000 NA
ATOM      6  N   UNL     1       2.008   8.108  18.993  0.00  0.00    +0.000 N 
ATOM      7  C   UNL     1       2.454   6.803  19.281  0.00  0.00    +0.000 A 
ATOM      8  N   UNL     1       2.034   6.100  20.286  0.00  0.00    +0.000 NA
ATOM      9  C   UNL     1       2.593   4.863  20.392  0.00  0.00    +0.000 A 
ATOM     10  C   UNL     1       3.521   4.352  19.585  0.00  0.00    +0.000 A 
ATOM     11  C   UNL     1       4.004   5.158  18.462  0.00  0.00    +0.000 A 
ATOM     12  O   UNL     1       4.871   4.762  17.693  0.00  0.00    +0.000 OA
ATOM     13  N   UNL     1       3.398   6.379  18.366  0.00  0.00    +0.000 N 
ATOM     14  C   UNL     1       3.939   2.984  19.958  0.00  0.00    +0.000 C 
ATOM     15  C   UNL     1       2.910   2.612  21.037  0.00  0.00    +0.000 C 
ATOM     16  C   UNL     1       2.212   3.908  21.471  0.00  0.00    +0.000 C 
ATOM     17  H   UNL     1       3.669   7.010  17.620  0.00  0.00    +0.000 HD
ENDROOT
BRANCH   3  18
ATOM     18  C   UNL     1       0.316  11.306  19.446  0.00  0.00    +0.000 C 
ATOM     19  O   UNL     1      -0.910  11.276  19.556  0.00  0.00    +0.000 OA
ATOM     20  N   UNL     1       1.048  12.481  19.732  0.00  0.00    +0.000 N 
ATOM     21  C   UNL     1       0.217  13.574  20.243  0.00  0.00    +0.000 C 
ATOM     22  C   UNL     1       0.934  14.896  20.527  0.00  0.00    +0.000 C 
ATOM     23  C   UNL     1       1.810  14.827  21.784  0.00  0.00    +0.000 C 
ATOM     24  O   UNL     1       2.901  13.916  21.640  0.00  0.00    +0.000 OA
ATOM     25  C   UNL     1       3.702  14.189  20.495  0.00  0.00    +0.000 C 
ATOM     26  C   UNL     1       2.874  14.189  19.204  0.00  0.00    +0.000 C 
ATOM     27  C   UNL     1       1.787  15.250  19.315  0.00  0.00    +0.000 C 
ATOM     28  C   UNL     1       2.233  12.817  18.928  0.00  0.00    +0.000 C 
ENDBRANCH   3  18
TORSDOF 1
ENDMDL
MODEL 7
REMARK VINA RESULT:      -7.6      2.426      8.875
REMARK  Name = 
REMARK  2 active torsions:
REMARK  status: ('A' for Active; 'I' for Inactive)
REMARK    1  A    between atoms: C_1  and  C_2
REMARK    2  A    between atoms: C_3  and  C_4
REMARK                            x       y       z     vdW  Elec       q    Type
REMARK                         _______ _______ _______ _____ _____    ______ ____
ROOT
ATOM      1  C   UNL     1       1.679   9.630  18.067  0.00  0.00    +0.000 C 
ATOM      2  C   UNL     1       1.128   9.398  19.432  0.00  0.00    +0.000 A 
ATOM      3  C   UNL     1       0.301  10.184  20.227  0.00  0.00    +0.000 A 
ATOM      4  C   UNL     1       0.077   9.394  21.373  0.00  0.00    +0.000 A 
ATOM      5  N   UNL     1       0.724   8.229  21.349  0.00  0.00    +0.000 NA
ATOM      6  N   UNL     1       1.365   8.228  20.140  0.00  0.00    +0.000 N 
ATOM      7  C   UNL     1       2.131   7.106  19.768  0.00  0.00    +0.000 A 
ATOM      8  N   UNL     1       2.835   7.038  18.681  0.00  0.00    +0.000 NA
ATOM      9  C   UNL     1       3.500   5.865  18.502  0.00  0.00    +0.000 A 
ATOM     10  C   UNL     1       3.464   4.812  19.316  0.00  0.00    +0.000 A 
ATOM     11  C   UNL     1       2.654   4.887  20.534  0.00  0.00    +0.000 A 
ATOM     12  O   UNL     1       2.555   3.952  21.318  0.00  0.00    +0.000 OA
ATOM     13  N   UNL     1       2.027   6.091  20.699  0.00  0.00    +0.000 N 
ATOM     14  C   UNL     1       4.288   3.676  18.851  0.00  0.00    +0.000 C 
ATOM     15  C   UNL     1       5.068   4.298  17.682  0.00  0.00    +0.000 C 
ATOM     16  C   UNL     1       4.377   5.620  17.321  0.00  0.00    +0.000 C 
ATOM     17  H   UNL     1       1.441   6.237  21.513  0.00  0.00    +0.000 HD
ENDROOT
BRANCH   3  18
ATOM     18  C   UNL     1      -0.291  11.464  19.866  0.00  0.00    +0.000 C 
ATOM     19  O   UNL     1      -0.095  11.938  18.746  0.00  0.00    +0.000 OA
ATOM     20  N   UNL     1      -1.094  12.136  20.815  0.00  0.00    +0.000 N 
ATOM     21  C   UNL     1      -1.710  13.360  20.295  0.00  0.00    +0.000 C 
ATOM     22  C   UNL     1      -2.553  14.169  21.283  0.00  0.00    +0.000 C 
ATOM     23  C   UNL     1      -3.894  13.494  21.595  0.00  0.00    +0.000 C 
ATOM     24  O   UNL     1      -3.735  12.252  22.280  0.00  0.00    +0.000 OA
ATOM     25  C   UNL     1      -2.954  12.370  23.466  0.00  0.00    +0.000 C 
ATOM     26  C   UNL     1      -1.571  12.969  23.183  0.00  0.00    +0.000 C 
ATOM     27  C   UNL     1      -1.749  14.350  22.564  0.00  0.00    +0.000 C 
ATOM     28  C   UNL     1      -0.738  12.083  22.241  0.00  0.00    +0.000 C 
ENDBRANCH   3  18
TORSDOF 1
ENDMDL
MODEL 8
REMARK VINA RESULT:      -7.5      3.946      8.625
REMARK  Name = 
REMARK  2 active torsions:
REMARK  status: ('A' for Active; 'I' for Inactive)
REMARK    1  A    between atoms: C_1  and  C_2
REMARK    2  A    between atoms: C_3  and  C_4
REMARK                            x       y       z     vdW  Elec       q    Type
REMARK                         _______ _______ _______ _____ _____    ______ ____
ROOT
ATOM      1  C   UNL     1       3.467   4.128  16.488  0.00  0.00    +0.000 C 
ATOM      2  C   UNL     1       4.312   5.303  16.845  0.00  0.00    +0.000 A 
ATOM      3  C   UNL     1       4.239   6.187  17.915  0.00  0.00    +0.000 A 
ATOM      4  C   UNL     1       5.352   7.033  17.737  0.00  0.00    +0.000 A 
ATOM      5  N   UNL     1       6.058   6.757  16.641  0.00  0.00    +0.000 NA
ATOM      6  N   UNL     1       5.419   5.677  16.096  0.00  0.00    +0.000 N 
ATOM      7  C   UNL     1       5.933   5.094  14.920  0.00  0.00    +0.000 A 
ATOM      8  N   UNL     1       5.361   4.118  14.287  0.00  0.00    +0.000 NA
ATOM      9  C   UNL     1       6.019   3.694  13.174  0.00  0.00    +0.000 A 
ATOM     10  C   UNL     1       7.176   4.171  12.719  0.00  0.00    +0.000 A 
ATOM     11  C   UNL     1       7.827   5.262  13.449  0.00  0.00    +0.000 A 
ATOM     12  O   UNL     1       8.901   5.736  13.103  0.00  0.00    +0.000 OA
ATOM     13  N   UNL     1       7.121   5.685  14.541  0.00  0.00    +0.000 N 
ATOM     14  C   UNL     1       7.649   3.503  11.488  0.00  0.00    +0.000 C 
ATOM     15  C   UNL     1       6.433   2.651  11.095  0.00  0.00    +0.000 C 
ATOM     16  C   UNL     1       5.496   2.599  12.309  0.00  0.00    +0.000 C 
ATOM     17  H   UNL     1       7.494   6.437  15.111  0.00  0.00    +0.000 HD
ENDROOT
BRANCH   3  18
ATOM     18  C   UNL     1       3.294   6.134  19.023  0.00  0.00    +0.000 C 
ATOM     19  O   UNL     1       2.856   7.179  19.508  0.00  0.00    +0.000 OA
ATOM     20  N   UNL     1       2.891   4.872  19.516  0.00  0.00    +0.000 N 
ATOM     21  C   UNL     1       1.866   4.955  20.559  0.00  0.00    +0.000 C 
ATOM     22  C   UNL     1       1.417   3.629  21.177  0.00  0.00    +0.000 C 
ATOM     23  C   UNL     1       0.538   2.809  20.223  0.00  0.00    +0.000 C 
ATOM     24  O   UNL     1       1.248   2.377  19.062  0.00  0.00    +0.000 OA
ATOM     25  C   UNL     1       2.438   1.660  19.376  0.00  0.00    +0.000 C 
ATOM     26  C   UNL     1       3.381   2.479  20.265  0.00  0.00    +0.000 C 
ATOM     27  C   UNL     1       2.658   2.833  21.558  0.00  0.00    +0.000 C 
ATOM     28  C   UNL     1       3.860   3.767  19.571  0.00  0.00    +0.000 C 
ENDBRANCH   3  18
TORSDOF 1
ENDMDL
MODEL 9
REMARK VINA RESULT:      -7.4      3.652     10.382
REMARK  Name = 
REMARK  2 active torsions:
REMARK  status: ('A' for Active; 'I' for Inactive)
REMARK    1  A    between atoms: C_1  and  C_2
REMARK    2  A    between atoms: C_3  and  C_4
REMARK                            x       y       z     vdW  Elec       q    Type
REMARK                         _______ _______ _______ _____ _____    ______ ____
ROOT
ATOM      1  C   UNL     1      -0.357  10.216  22.919  0.00  0.00    +0.000 C 
ATOM      2  C   UNL     1      -0.379  11.185  21.787  0.00  0.00    +0.000 A 
ATOM      3  C   UNL     1      -0.869  12.484  21.709  0.00  0.00    +0.000 A 
ATOM      4  C   UNL     1      -0.536  12.898  20.404  0.00  0.00    +0.000 A 
ATOM      5  N   UNL     1       0.073  11.953  19.687  0.00  0.00    +0.000 NA
ATOM      6  N   UNL     1       0.180  10.897  20.550  0.00  0.00    +0.000 N 
ATOM      7  C   UNL     1       0.819   9.718  20.119  0.00  0.00    +0.000 A 
ATOM      8  N   UNL     1       0.905   8.639  20.833  0.00  0.00    +0.000 NA
ATOM      9  C   UNL     1       1.566   7.610  20.237  0.00  0.00    +0.000 A 
ATOM     10  C   UNL     1       2.131   7.635  19.031  0.00  0.00    +0.000 A 
ATOM     11  C   UNL     1       2.046   8.862  18.237  0.00  0.00    +0.000 A 
ATOM     12  O   UNL     1       2.560   8.967  17.130  0.00  0.00    +0.000 OA
ATOM     13  N   UNL     1       1.347   9.863  18.851  0.00  0.00    +0.000 N 
ATOM     14  C   UNL     1       2.784   6.363  18.657  0.00  0.00    +0.000 C 
ATOM     15  C   UNL     1       2.316   5.417  19.773  0.00  0.00    +0.000 C 
ATOM     16  C   UNL     1       1.740   6.286  20.900  0.00  0.00    +0.000 C 
ATOM     17  H   UNL     1       1.236  10.754  18.378  0.00  0.00    +0.000 HD
ENDROOT
BRANCH   3  18
ATOM     18  C   UNL     1      -1.462  13.256  22.793  0.00  0.00    +0.000 C 
ATOM     19  O   UNL     1      -0.761  13.633  23.734  0.00  0.00    +0.000 OA
ATOM     20  N   UNL     1      -2.839  13.566  22.736  0.00  0.00    +0.000 N 
ATOM     21  C   UNL     1      -3.288  14.429  23.831  0.00  0.00    +0.000 C 
ATOM     22  C   UNL     1      -4.781  14.765  23.864  0.00  0.00    +0.000 C 
ATOM     23  C   UNL     1      -5.178  15.762  22.767  0.00  0.00    +0.000 C 
ATOM     24  O   UNL     1      -5.018  15.224  21.455  0.00  0.00    +0.000 OA
ATOM     25  C   UNL     1      -5.707  13.990  21.274  0.00  0.00    +0.000 C 
ATOM     26  C   UNL     1      -5.279  12.939  22.304  0.00  0.00    +0.000 C 
ATOM     27  C   UNL     1      -5.567  13.471  23.702  0.00  0.00    +0.000 C 
ATOM     28  C   UNL     1      -3.786  12.585  22.184  0.00  0.00    +0.000 C 
ENDBRANCH   3  18
TORSDOF 1
ENDMDL
