MODEL 1
REMARK VINA RESULT:      -6.7      0.000      0.000
REMARK  Name = 
REMARK  9 active torsions:
REMARK  status: ('A' for Active; 'I' for Inactive)
REMARK    1  A    between atoms: C_1  and  O_2
REMARK    2  A    between atoms: O_2  and  C_3
REMARK    3  A    between atoms: C_3  and  C_4
REMARK    4  A    between atoms: N_8  and  S_9
REMARK    5  A    between atoms: S_9  and  N_12
REMARK    6  A    between atoms: N_12  and  C_13
REMARK    7  A    between atoms: C_13  and  C_14
REMARK    8  A    between atoms: C_14  and  C_15
REMARK    9  A    between atoms: C_15  and  C_16
REMARK                            x       y       z     vdW  Elec       q    Type
REMARK                         _______ _______ _______ _____ _____    ______ ____
ROOT
ATOM      1  S   UNL     1       3.982   2.570  18.832  0.00  0.00    +0.000 S 
ATOM      2  O   UNL     1       4.933   2.780  19.900  0.00  0.00    +0.000 OA
ATOM      3  O   UNL     1       3.403   1.276  18.567  0.00  0.00    +0.000 OA
ENDROOT
BRANCH   1   8
ATOM      4  C   UNL     1       2.748   4.432  20.318  0.00  0.00    +0.000 C 
ATOM      5  C   UNL     1       1.803   3.586  21.166  0.00  0.00    +0.000 C 
ATOM      6  C   UNL     1       0.708   3.190  20.192  0.00  0.00    +0.000 C 
ATOM      7  C   UNL     1       1.366   3.174  18.812  0.00  0.00    +0.000 C 
ATOM      8  N   UNL     1       2.748   3.721  18.985  0.00  0.00    +0.000 NA
BRANCH   4   9
ATOM      9  C   UNL     1       2.261   5.888  20.149  0.00  0.00    +0.000 C 
BRANCH   9  11
ATOM     10  C   UNL     1       2.635   7.238  18.242  0.00  0.00    +0.000 C 
ATOM     11  O   UNL     1       3.216   6.645  19.397  0.00  0.00    +0.000 OA
ENDBRANCH   9  11
ENDBRANCH   4   9
ENDBRANCH   1   8
BRANCH   1  12
ATOM     12  N   UNL     1       4.724   3.131  17.422  0.00  0.00    +0.000 NA
ATOM     13  H   UNL     1       3.989   3.214  16.721  0.00  0.00    +0.000 HD
BRANCH  12  14
ATOM     14  C   UNL     1       5.419   4.434  17.615  0.00  0.00    +0.000 C 
BRANCH  14  15
ATOM     15  C   UNL     1       5.368   5.264  16.329  0.00  0.00    +0.000 C 
BRANCH  15  16
ATOM     16  C   UNL     1       6.752   5.326  15.662  0.00  0.00    +0.000 C 
BRANCH  16  17
ATOM     17  C   UNL     1       6.894   4.403  14.447  0.00  0.00    +0.000 C 
ATOM     18  C   UNL     1       5.539   3.984  13.872  0.00  0.00    +0.000 C 
ATOM     19  C   UNL     1       5.874   3.458  12.482  0.00  0.00    +0.000 C 
ATOM     20  C   UNL     1       7.107   4.238  12.032  0.00  0.00    +0.000 C 
ATOM     21  C   UNL     1       7.576   5.047  13.241  0.00  0.00    +0.000 C 
ENDBRANCH  16  17
ENDBRANCH  15  16
ENDBRANCH  14  15
ENDBRANCH  12  14
ENDBRANCH   1  12
TORSDOF 8
ENDMDL
MODEL 2
REMARK VINA RESULT:      -6.5      2.138      6.353
REMARK  Name = 
REMARK  9 active torsions:
REMARK  status: ('A' for Active; 'I' for Inactive)
REMARK    1  A    between atoms: C_1  and  O_2
REMARK    2  A    between atoms: O_2  and  C_3
REMARK    3  A    between atoms: C_3  and  C_4
REMARK    4  A    between atoms: N_8  and  S_9
REMARK    5  A    between atoms: S_9  and  N_12
REMARK    6  A    between atoms: N_12  and  C_13
REMARK    7  A    between atoms: C_13  and  C_14
REMARK    8  A    between atoms: C_14  and  C_15
REMARK    9  A    between atoms: C_15  and  C_16
REMARK                            x       y       z     vdW  Elec       q    Type
REMARK                         _______ _______ _______ _____ _____    ______ ____
ROOT
ATOM      1  S   UNL     1       4.908   4.249  18.476  0.00  0.00    +0.000 S 
ATOM      2  O   UNL     1       5.398   3.474  19.592  0.00  0.00    +0.000 OA
ATOM      3  O   UNL     1       3.900   5.268  18.635  0.00  0.00    +0.000 OA
ENDROOT
BRANCH   1   8
ATOM      4  C   UNL     1       6.153   6.392  17.444  0.00  0.00    +0.000 C 
ATOM      5  C   UNL     1       5.491   6.514  16.075  0.00  0.00    +0.000 C 
ATOM      6  C   UNL     1       6.111   5.381  15.277  0.00  0.00    +0.000 C 
ATOM      7  C   UNL     1       6.482   4.307  16.300  0.00  0.00    +0.000 C 
ATOM      8  N   UNL     1       6.242   4.898  17.654  0.00  0.00    +0.000 NA
BRANCH   4   9
ATOM      9  C   UNL     1       7.562   7.023  17.488  0.00  0.00    +0.000 C 
BRANCH   9  11
ATOM     10  C   UNL     1       8.320   9.190  18.062  0.00  0.00    +0.000 C 
ATOM     11  O   UNL     1       7.486   8.424  17.201  0.00  0.00    +0.000 OA
ENDBRANCH   9  11
ENDBRANCH   4   9
ENDBRANCH   1   8
BRANCH   1  12
ATOM     12  N   UNL     1       4.376   3.136  17.323  0.00  0.00    +0.000 NA
ATOM     13  H   UNL     1       4.712   2.222  17.625  0.00  0.00    +0.000 HD
BRANCH  12  14
ATOM     14  C   UNL     1       2.894   3.129  17.170  0.00  0.00    +0.000 C 
BRANCH  14  15
ATOM     15  C   UNL     1       2.281   1.961  17.948  0.00  0.00    +0.000 C 
BRANCH  15  16
ATOM     16  C   UNL     1       0.908   2.345  18.521  0.00  0.00    +0.000 C 
BRANCH  16  17
ATOM     17  C   UNL     1       0.977   2.998  19.906  0.00  0.00    +0.000 C 
ATOM     18  C   UNL     1       2.185   2.520  20.716  0.00  0.00    +0.000 C 
ATOM     19  C   UNL     1       2.318   3.555  21.825  0.00  0.00    +0.000 C 
ATOM     20  C   UNL     1       1.788   4.861  21.238  0.00  0.00    +0.000 C 
ATOM     21  C   UNL     1       1.177   4.512  19.881  0.00  0.00    +0.000 C 
ENDBRANCH  16  17
ENDBRANCH  15  16
ENDBRANCH  14  15
ENDBRANCH  12  14
ENDBRANCH   1  12
TORSDOF 8
ENDMDL
MODEL 3
REMARK VINA RESULT:      -6.5      1.662      2.956
REMARK  Name = 
REMARK  9 active torsions:
REMARK  status: ('A' for Active; 'I' for Inactive)
REMARK    1  A    between atoms: C_1  and  O_2
REMARK    2  A    between atoms: O_2  and  C_3
REMARK    3  A    between atoms: C_3  and  C_4
REMARK    4  A    between atoms: N_8  and  S_9
REMARK    5  A    between atoms: S_9  and  N_12
REMARK    6  A    between atoms: N_12  and  C_13
REMARK    7  A    between atoms: C_13  and  C_14
REMARK    8  A    between atoms: C_14  and  C_15
REMARK    9  A    between atoms: C_15  and  C_16
REMARK                            x       y       z     vdW  Elec       q    Type
REMARK                         _______ _______ _______ _____ _____    ______ ____
ROOT
ATOM      1  S   UNL     1       4.039   3.038  18.944  0.00  0.00    +0.000 S 
ATOM      2  O   UNL     1       5.128   3.704  19.620  0.00  0.00    +0.000 OA
ATOM      3  O   UNL     1       3.476   1.803  19.433  0.00  0.00    +0.000 OA
ENDROOT
BRANCH   1   8
ATOM      4  C   UNL     1       2.914   5.392  19.573  0.00  0.00    +0.000 C 
ATOM      5  C   UNL     1       2.081   5.028  20.798  0.00  0.00    +0.000 C 
ATOM      6  C   UNL     1       0.904   4.268  20.215  0.00  0.00    +0.000 C 
ATOM      7  C   UNL     1       1.419   3.630  18.925  0.00  0.00    +0.000 C 
ATOM      8  N   UNL     1       2.798   4.166  18.698  0.00  0.00    +0.000 NA
BRANCH   4   9
ATOM      9  C   UNL     1       2.376   6.634  18.829  0.00  0.00    +0.000 C 
BRANCH   9  11
ATOM     10  C   UNL     1       1.654   8.869  19.114  0.00  0.00    +0.000 C 
ATOM     11  O   UNL     1       2.041   7.665  19.765  0.00  0.00    +0.000 OA
ENDBRANCH   9  11
ENDBRANCH   4   9
ENDBRANCH   1   8
BRANCH   1  12
ATOM     12  N   UNL     1       4.540   2.811  17.348  0.00  0.00    +0.000 NA
ATOM     13  H   UNL     1       3.931   2.096  16.951  0.00  0.00    +0.000 HD
BRANCH  12  14
ATOM     14  C   UNL     1       4.481   4.062  16.541  0.00  0.00    +0.000 C 
BRANCH  14  15
ATOM     15  C   UNL     1       5.598   4.077  15.494  0.00  0.00    +0.000 C 
BRANCH  15  16
ATOM     16  C   UNL     1       6.426   5.367  15.594  0.00  0.00    +0.000 C 
BRANCH  16  17
ATOM     17  C   UNL     1       6.670   5.835  17.033  0.00  0.00    +0.000 C 
ATOM     18  C   UNL     1       7.598   4.892  17.803  0.00  0.00    +0.000 C 
ATOM     19  C   UNL     1       8.047   5.715  19.003  0.00  0.00    +0.000 C 
ATOM     20  C   UNL     1       8.039   7.168  18.534  0.00  0.00    +0.000 C 
ATOM     21  C   UNL     1       7.396   7.174  17.148  0.00  0.00    +0.000 C 
ENDBRANCH  16  17
ENDBRANCH  15  16
ENDBRANCH  14  15
ENDBRANCH  12  14
ENDBRANCH   1  12
TORSDOF 8
ENDMDL
MODEL 4
REMARK VINA RESULT:      -6.5      1.603      2.713
REMARK  Name = 
REMARK  9 active torsions:
REMARK  status: ('A' for Active; 'I' for Inactive)
REMARK    1  A    between atoms: C_1  and  O_2
REMARK    2  A    between atoms: O_2  and  C_3
REMARK    3  A    between atoms: C_3  and  C_4
REMARK    4  A    between atoms: N_8  and  S_9
REMARK    5  A    between atoms: S_9  and  N_12
REMARK    6  A    between atoms: N_12  and  C_13
REMARK    7  A    between atoms: C_13  and  C_14
REMARK    8  A    between atoms: C_14  and  C_15
REMARK    9  A    between atoms: C_15  and  C_16
REMARK                            x       y       z     vdW  Elec       q    Type
REMARK                         _______ _______ _______ _____ _____    ______ ____
ROOT
ATOM      1  S   UNL     1       3.932   2.459  18.925  0.00  0.00    +0.000 S 
ATOM      2  O   UNL     1       4.703   2.459  20.146  0.00  0.00    +0.000 OA
ATOM      3  O   UNL     1       3.343   1.255  18.392  0.00  0.00    +0.000 OA
ENDROOT
BRANCH   1   8
ATOM      4  C   UNL     1       2.945   4.591  20.222  0.00  0.00    +0.000 C 
ATOM      5  C   UNL     1       2.123   3.936  21.328  0.00  0.00    +0.000 C 
ATOM      6  C   UNL     1       0.895   3.419  20.601  0.00  0.00    +0.000 C 
ATOM      7  C   UNL     1       1.346   3.144  19.167  0.00  0.00    +0.000 C 
ATOM      8  N   UNL     1       2.745   3.663  19.046  0.00  0.00    +0.000 NA
BRANCH   4   9
ATOM      9  C   UNL     1       2.454   6.013  19.871  0.00  0.00    +0.000 C 
BRANCH   9  11
ATOM     10  C   UNL     1       3.034   7.374  18.024  0.00  0.00    +0.000 C 
ATOM     11  O   UNL     1       2.392   6.178  18.449  0.00  0.00    +0.000 OA
ENDBRANCH   9  11
ENDBRANCH   4   9
ENDBRANCH   1   8
BRANCH   1  12
ATOM     12  N   UNL     1       4.919   3.148  17.741  0.00  0.00    +0.000 NA
ATOM     13  H   UNL     1       5.403   2.378  17.281  0.00  0.00    +0.000 HD
BRANCH  12  14
ATOM     14  C   UNL     1       4.154   3.956  16.751  0.00  0.00    +0.000 C 
BRANCH  14  15
ATOM     15  C   UNL     1       5.089   4.498  15.665  0.00  0.00    +0.000 C 
BRANCH  15  16
ATOM     16  C   UNL     1       6.551   4.140  15.972  0.00  0.00    +0.000 C 
BRANCH  16  17
ATOM     17  C   UNL     1       7.347   5.285  16.609  0.00  0.00    +0.000 C 
ATOM     18  C   UNL     1       6.564   6.600  16.625  0.00  0.00    +0.000 C 
ATOM     19  C   UNL     1       7.308   7.459  17.639  0.00  0.00    +0.000 C 
ATOM     20  C   UNL     1       7.909   6.483  18.647  0.00  0.00    +0.000 C 
ATOM     21  C   UNL     1       7.673   5.080  18.088  0.00  0.00    +0.000 C 
ENDBRANCH  16  17
ENDBRANCH  15  16
ENDBRANCH  14  15
ENDBRANCH  12  14
ENDBRANCH   1  12
TORSDOF 8
ENDMDL
MODEL 5
REMARK VINA RESULT:      -6.3      0.728      1.162
REMARK  Name = 
REMARK  9 active torsions:
REMARK  status: ('A' for Active; 'I' for Inactive)
REMARK    1  A    between atoms: C_1  and  O_2
REMARK    2  A    between atoms: O_2  and  C_3
REMARK    3  A    between atoms: C_3  and  C_4
REMARK    4  A    between atoms: N_8  and  S_9
REMARK    5  A    between atoms: S_9  and  N_12
REMARK    6  A    between atoms: N_12  and  C_13
REMARK    7  A    between atoms: C_13  and  C_14
REMARK    8  A    between atoms: C_14  and  C_15
REMARK    9  A    between atoms: C_15  and  C_16
REMARK                            x       y       z     vdW  Elec       q    Type
REMARK                         _______ _______ _______ _____ _____    ______ ____
ROOT
ATOM      1  S   UNL     1       3.934   2.956  18.727  0.00  0.00    +0.000 S 
ATOM      2  O   UNL     1       5.040   3.300  19.590  0.00  0.00    +0.000 OA
ATOM      3  O   UNL     1       3.268   1.680  18.807  0.00  0.00    +0.000 OA
ENDROOT
BRANCH   1   8
ATOM      4  C   UNL     1       2.963   5.100  20.018  0.00  0.00    +0.000 C 
ATOM      5  C   UNL     1       2.071   4.456  21.074  0.00  0.00    +0.000 C 
ATOM      6  C   UNL     1       0.860   3.995  20.285  0.00  0.00    +0.000 C 
ATOM      7  C   UNL     1       1.365   3.728  18.867  0.00  0.00    +0.000 C 
ATOM      8  N   UNL     1       2.785   4.199  18.818  0.00  0.00    +0.000 NA
BRANCH   4   9
ATOM      9  C   UNL     1       2.538   6.544  19.672  0.00  0.00    +0.000 C 
BRANCH   9  11
ATOM     10  C   UNL     1       2.434   8.125  17.915  0.00  0.00    +0.000 C 
ATOM     11  O   UNL     1       2.982   6.888  18.355  0.00  0.00    +0.000 OA
ENDBRANCH   9  11
ENDBRANCH   4   9
ENDBRANCH   1   8
BRANCH   1  12
ATOM     12  N   UNL     1       4.479   3.186  17.145  0.00  0.00    +0.000 NA
ATOM     13  H   UNL     1       3.653   3.167  16.548  0.00  0.00    +0.000 HD
BRANCH  12  14
ATOM     14  C   UNL     1       5.226   4.463  16.972  0.00  0.00    +0.000 C 
BRANCH  14  15
ATOM     15  C   UNL     1       6.661   4.186  16.512  0.00  0.00    +0.000 C 
BRANCH  15  16
ATOM     16  C   UNL     1       7.142   5.269  15.535  0.00  0.00    +0.000 C 
BRANCH  16  17
ATOM     17  C   UNL     1       6.677   5.048  14.090  0.00  0.00    +0.000 C 
ATOM     18  C   UNL     1       7.828   5.152  13.086  0.00  0.00    +0.000 C 
ATOM     19  C   UNL     1       7.276   4.501  11.824  0.00  0.00    +0.000 C 
ATOM     20  C   UNL     1       6.279   3.450  12.304  0.00  0.00    +0.000 C 
ATOM     21  C   UNL     1       6.125   3.651  13.811  0.00  0.00    +0.000 C 
ENDBRANCH  16  17
ENDBRANCH  15  16
ENDBRANCH  14  15
ENDBRANCH  12  14
ENDBRANCH   1  12
TORSDOF 8
ENDMDL
MODEL 6
REMARK VINA RESULT:      -6.3      0.943      1.011
REMARK  Name = 
REMARK  9 active torsions:
REMARK  status: ('A' for Active; 'I' for Inactive)
REMARK    1  A    between atoms: C_1  and  O_2
REMARK    2  A    between atoms: O_2  and  C_3
REMARK    3  A    between atoms: C_3  and  C_4
REMARK    4  A    between atoms: N_8  and  S_9
REMARK    5  A    between atoms: S_9  and  N_12
REMARK    6  A    between atoms: N_12  and  C_13
REMARK    7  A    between atoms: C_13  and  C_14
REMARK    8  A    between atoms: C_14  and  C_15
REMARK    9  A    between atoms: C_15  and  C_16
REMARK                            x       y       z     vdW  Elec       q    Type
REMARK                         _______ _______ _______ _____ _____    ______ ____
ROOT
ATOM      1  S   UNL     1       4.141   2.997  18.934  0.00  0.00    +0.000 S 
ATOM      2  O   UNL     1       5.184   3.484  19.807  0.00  0.00    +0.000 OA
ATOM      3  O   UNL     1       3.629   1.652  19.029  0.00  0.00    +0.000 OA
ENDROOT
BRANCH   1   8
ATOM      4  C   UNL     1       2.856   4.978  20.208  0.00  0.00    +0.000 C 
ATOM      5  C   UNL     1       1.985   4.208  21.196  0.00  0.00    +0.000 C 
ATOM      6  C   UNL     1       0.883   3.632  20.326  0.00  0.00    +0.000 C 
ATOM      7  C   UNL     1       1.496   3.464  18.936  0.00  0.00    +0.000 C 
ATOM      8  N   UNL     1       2.852   4.096  18.981  0.00  0.00    +0.000 NA
BRANCH   4   9
ATOM      9  C   UNL     1       2.286   6.373  19.867  0.00  0.00    +0.000 C 
BRANCH   9  11
ATOM     10  C   UNL     1       1.360   8.289  20.902  0.00  0.00    +0.000 C 
ATOM     11  O   UNL     1       1.520   6.877  20.967  0.00  0.00    +0.000 OA
ENDBRANCH   9  11
ENDBRANCH   4   9
ENDBRANCH   1   8
BRANCH   1  12
ATOM     12  N   UNL     1       4.684   3.259  17.357  0.00  0.00    +0.000 NA
ATOM     13  H   UNL     1       3.961   2.897  16.736  0.00  0.00    +0.000 HD
BRANCH  12  14
ATOM     14  C   UNL     1       4.952   4.697  17.071  0.00  0.00    +0.000 C 
BRANCH  14  15
ATOM     15  C   UNL     1       6.433   4.912  16.747  0.00  0.00    +0.000 C 
BRANCH  15  16
ATOM     16  C   UNL     1       6.605   5.507  15.341  0.00  0.00    +0.000 C 
BRANCH  16  17
ATOM     17  C   UNL     1       6.810   4.454  14.245  0.00  0.00    +0.000 C 
ATOM     18  C   UNL     1       5.486   3.938  13.678  0.00  0.00    +0.000 C 
ATOM     19  C   UNL     1       5.881   3.265  12.371  0.00  0.00    +0.000 C 
ATOM     20  C   UNL     1       7.112   4.019  11.873  0.00  0.00    +0.000 C 
ATOM     21  C   UNL     1       7.520   4.973  12.996  0.00  0.00    +0.000 C 
ENDBRANCH  16  17
ENDBRANCH  15  16
ENDBRANCH  14  15
ENDBRANCH  12  14
ENDBRANCH   1  12
TORSDOF 8
ENDMDL
MODEL 7
REMARK VINA RESULT:      -6.3      4.711      6.223
REMARK  Name = 
REMARK  9 active torsions:
REMARK  status: ('A' for Active; 'I' for Inactive)
REMARK    1  A    between atoms: C_1  and  O_2
REMARK    2  A    between atoms: O_2  and  C_3
REMARK    3  A    between atoms: C_3  and  C_4
REMARK    4  A    between atoms: N_8  and  S_9
REMARK    5  A    between atoms: S_9  and  N_12
REMARK    6  A    between atoms: N_12  and  C_13
REMARK    7  A    between atoms: C_13  and  C_14
REMARK    8  A    between atoms: C_14  and  C_15
REMARK    9  A    between atoms: C_15  and  C_16
REMARK                            x       y       z     vdW  Elec       q    Type
REMARK                         _______ _______ _______ _____ _____    ______ ____
ROOT
ATOM      1  S   UNL     1       5.801   5.766  16.047  0.00  0.00    +0.000 S 
ATOM      2  O   UNL     1       5.915   4.496  15.367  0.00  0.00    +0.000 OA
ATOM      3  O   UNL     1       5.155   6.904  15.441  0.00  0.00    +0.000 OA
ENDROOT
BRANCH   1   8
ATOM      4  C   UNL     1       4.654   4.070  17.782  0.00  0.00    +0.000 C 
ATOM      5  C   UNL     1       3.188   4.134  17.366  0.00  0.00    +0.000 C 
ATOM      6  C   UNL     1       2.725   5.479  17.894  0.00  0.00    +0.000 C 
ATOM      7  C   UNL     1       3.969   6.367  17.917  0.00  0.00    +0.000 C 
ATOM      8  N   UNL     1       5.134   5.489  17.581  0.00  0.00    +0.000 NA
BRANCH   4   9
ATOM      9  C   UNL     1       4.841   3.646  19.256  0.00  0.00    +0.000 C 
BRANCH   9  11
ATOM     10  C   UNL     1       3.188   2.797  20.721  0.00  0.00    +0.000 C 
ATOM     11  O   UNL     1       3.980   2.545  19.567  0.00  0.00    +0.000 OA
ENDBRANCH   9  11
ENDBRANCH   4   9
ENDBRANCH   1   8
BRANCH   1  12
ATOM     12  N   UNL     1       7.369   6.206  16.493  0.00  0.00    +0.000 NA
ATOM     13  H   UNL     1       7.713   6.831  15.765  0.00  0.00    +0.000 HD
BRANCH  12  14
ATOM     14  C   UNL     1       7.425   6.868  17.827  0.00  0.00    +0.000 C 
BRANCH  14  15
ATOM     15  C   UNL     1       7.683   8.369  17.669  0.00  0.00    +0.000 C 
BRANCH  15  16
ATOM     16  C   UNL     1       8.890   8.810  18.512  0.00  0.00    +0.000 C 
BRANCH  16  17
ATOM     17  C   UNL     1       8.966  10.324  18.738  0.00  0.00    +0.000 C 
ATOM     18  C   UNL     1       9.361  10.680  20.173  0.00  0.00    +0.000 C 
ATOM     19  C   UNL     1       9.791  12.138  20.087  0.00  0.00    +0.000 C 
ATOM     20  C   UNL     1      10.347  12.323  18.677  0.00  0.00    +0.000 C 
ATOM     21  C   UNL     1      10.043  11.032  17.917  0.00  0.00    +0.000 C 
ENDBRANCH  16  17
ENDBRANCH  15  16
ENDBRANCH  14  15
ENDBRANCH  12  14
ENDBRANCH   1  12
TORSDOF 8
ENDMDL
MODEL 8
REMARK VINA RESULT:      -6.3      5.185      6.436
REMARK  Name = 
REMARK  9 active torsions:
REMARK  status: ('A' for Active; 'I' for Inactive)
REMARK    1  A    between atoms: C_1  and  O_2
REMARK    2  A    between atoms: O_2  and  C_3
REMARK    3  A    between atoms: C_3  and  C_4
REMARK    4  A    between atoms: N_8  and  S_9
REMARK    5  A    between atoms: S_9  and  N_12
REMARK    6  A    between atoms: N_12  and  C_13
REMARK    7  A    between atoms: C_13  and  C_14
REMARK    8  A    between atoms: C_14  and  C_15
REMARK    9  A    between atoms: C_15  and  C_16
REMARK                            x       y       z     vdW  Elec       q    Type
REMARK                         _______ _______ _______ _____ _____    ______ ____
ROOT
ATOM      1  S   UNL     1       6.762   5.742  16.487  0.00  0.00    +0.000 S 
ATOM      2  O   UNL     1       7.678   5.063  17.374  0.00  0.00    +0.000 OA
ATOM      3  O   UNL     1       6.900   5.684  15.053  0.00  0.00    +0.000 OA
ENDROOT
BRANCH   1   8
ATOM      4  C   UNL     1       4.632   6.105  18.079  0.00  0.00    +0.000 C 
ATOM      5  C   UNL     1       4.996   5.256  19.293  0.00  0.00    +0.000 C 
ATOM      6  C   UNL     1       4.783   3.833  18.809  0.00  0.00    +0.000 C 
ATOM      7  C   UNL     1       5.018   3.868  17.299  0.00  0.00    +0.000 C 
ATOM      8  N   UNL     1       5.182   5.307  16.920  0.00  0.00    +0.000 NA
BRANCH   4   9
ATOM      9  C   UNL     1       3.109   6.302  17.919  0.00  0.00    +0.000 C 
BRANCH   9  11
ATOM     10  C   UNL     1       2.290   8.520  17.826  0.00  0.00    +0.000 C 
ATOM     11  O   UNL     1       2.675   7.441  18.670  0.00  0.00    +0.000 OA
ENDBRANCH   9  11
ENDBRANCH   4   9
ENDBRANCH   1   8
BRANCH   1  12
ATOM     12  N   UNL     1       6.754   7.362  16.966  0.00  0.00    +0.000 NA
ATOM     13  H   UNL     1       5.845   7.533  17.395  0.00  0.00    +0.000 HD
BRANCH  12  14
ATOM     14  C   UNL     1       7.855   7.688  17.915  0.00  0.00    +0.000 C 
BRANCH  14  15
ATOM     15  C   UNL     1       8.159   9.189  17.887  0.00  0.00    +0.000 C 
BRANCH  15  16
ATOM     16  C   UNL     1       9.072   9.585  19.058  0.00  0.00    +0.000 C 
BRANCH  16  17
ATOM     17  C   UNL     1       9.501  11.056  19.036  0.00  0.00    +0.000 C 
ATOM     18  C   UNL     1      10.303  11.448  20.280  0.00  0.00    +0.000 C 
ATOM     19  C   UNL     1      10.979  12.755  19.888  0.00  0.00    +0.000 C 
ATOM     20  C   UNL     1      11.193  12.672  18.378  0.00  0.00    +0.000 C 
ATOM     21  C   UNL     1      10.459  11.418  17.903  0.00  0.00    +0.000 C 
ENDBRANCH  16  17
ENDBRANCH  15  16
ENDBRANCH  14  15
ENDBRANCH  12  14
ENDBRANCH   1  12
TORSDOF 8
ENDMDL
MODEL 9
REMARK VINA RESULT:      -6.2      4.985      6.525
REMARK  Name = 
REMARK  9 active torsions:
REMARK  status: ('A' for Active; 'I' for Inactive)
REMARK    1  A    between atoms: C_1  and  O_2
REMARK    2  A    between atoms: O_2  and  C_3
REMARK    3  A    between atoms: C_3  and  C_4
REMARK    4  A    between atoms: N_8  and  S_9
REMARK    5  A    between atoms: S_9  and  N_12
REMARK    6  A    between atoms: N_12  and  C_13
REMARK    7  A    between atoms: C_13  and  C_14
REMARK    8  A    between atoms: C_14  and  C_15
REMARK    9  A    between atoms: C_15  and  C_16
REMARK                            x       y       z     vdW  Elec       q    Type
REMARK                         _______ _______ _______ _____ _____    ______ ____
ROOT
ATOM      1  S   UNL     1       7.317   5.471  18.611  0.00  0.00    +0.000 S 
ATOM      2  O   UNL     1       6.786   5.263  19.939  0.00  0.00    +0.000 OA
ATOM      3  O   UNL     1       8.169   4.502  17.967  0.00  0.00    +0.000 OA
ENDROOT
BRANCH   1   8
ATOM      4  C   UNL     1       4.680   5.435  18.111  0.00  0.00    +0.000 C 
ATOM      5  C   UNL     1       4.492   4.047  17.506  0.00  0.00    +0.000 C 
ATOM      6  C   UNL     1       5.071   4.185  16.110  0.00  0.00    +0.000 C 
ATOM      7  C   UNL     1       6.134   5.278  16.207  0.00  0.00    +0.000 C 
ATOM      8  N   UNL     1       6.029   5.863  17.581  0.00  0.00    +0.000 NA
BRANCH   4   9
ATOM      9  C   UNL     1       3.589   6.435  17.669  0.00  0.00    +0.000 C 
BRANCH   9  11
ATOM     10  C   UNL     1       2.411   6.175  19.705  0.00  0.00    +0.000 C 
ATOM     11  O   UNL     1       3.030   7.093  18.811  0.00  0.00    +0.000 OA
ENDBRANCH   9  11
ENDBRANCH   4   9
ENDBRANCH   1   8
BRANCH   1  12
ATOM     12  N   UNL     1       8.117   6.957  18.649  0.00  0.00    +0.000 NA
ATOM     13  H   UNL     1       9.115   6.751  18.619  0.00  0.00    +0.000 HD
BRANCH  12  14
ATOM     14  C   UNL     1       7.729   7.849  17.520  0.00  0.00    +0.000 C 
BRANCH  14  15
ATOM     15  C   UNL     1       8.006   9.313  17.875  0.00  0.00    +0.000 C 
BRANCH  15  16
ATOM     16  C   UNL     1       9.044   9.417  19.003  0.00  0.00    +0.000 C 
BRANCH  16  17
ATOM     17  C   UNL     1       9.798  10.752  19.029  0.00  0.00    +0.000 C 
ATOM     18  C   UNL     1       9.130  11.814  18.153  0.00  0.00    +0.000 C 
ATOM     19  C   UNL     1       9.742  13.124  18.632  0.00  0.00    +0.000 C 
ATOM     20  C   UNL     1      10.071  12.912  20.107  0.00  0.00    +0.000 C 
ATOM     21  C   UNL     1       9.833  11.430  20.397  0.00  0.00    +0.000 C 
ENDBRANCH  16  17
ENDBRANCH  15  16
ENDBRANCH  14  15
ENDBRANCH  12  14
ENDBRANCH   1  12
TORSDOF 8
ENDMDL
