MODEL 1
REMARK VINA RESULT:      -8.3      0.000      0.000
REMARK  Name = 
REMARK  4 active torsions:
REMARK  status: ('A' for Active; 'I' for Inactive)
REMARK    1  A    between atoms: C_1  and  C_2
REMARK    2  A    between atoms: C_2  and  C_3
REMARK    3  A    between atoms: C_3  and  N_4
REMARK    4  A    between atoms: C_5  and  C_7
REMARK                            x       y       z     vdW  Elec       q    Type
REMARK                         _______ _______ _______ _____ _____    ______ ____
ROOT
ATOM      1  C   UNL     1       7.279   4.370  15.982  0.00  0.00    +0.000 C 
ATOM      2  C   UNL     1       6.092   3.551  16.511  0.00  0.00    +0.000 C 
ATOM      3  N   UNL     1       4.996   4.411  16.944  0.00  0.00    +0.000 N 
ATOM      4  C   UNL     1       5.146   5.772  17.088  0.00  0.00    +0.000 A 
ATOM      5  C   UNL     1       3.923   6.270  17.481  0.00  0.00    +0.000 A 
ATOM      6  C   UNL     1       3.066   5.166  17.747  0.00  0.00    +0.000 A 
ATOM      7  C   UNL     1       1.767   5.054  18.278  0.00  0.00    +0.000 A 
ATOM      8  C   UNL     1       1.206   3.787  18.463  0.00  0.00    +0.000 A 
ATOM      9  C   UNL     1       1.917   2.642  18.112  0.00  0.00    +0.000 A 
ATOM     10  C   UNL     1       3.205   2.726  17.570  0.00  0.00    +0.000 A 
ATOM     11  C   UNL     1       3.764   4.005  17.404  0.00  0.00    +0.000 A 
ATOM     12  C   UNL     1       6.395   6.461  16.914  0.00  0.00    +0.000 C 
ATOM     13  O   UNL     1       6.563   7.671  16.987  0.00  0.00    +0.000 OA
ATOM     14  N   UNL     1       7.464   5.637  16.687  0.00  0.00    +0.000 N 
ATOM     15  H   UNL     1       8.363   6.100  16.654  0.00  0.00    +0.000 HD
ENDROOT
BRANCH   1  17
ATOM     16  N   UNL     1       6.371   3.692  13.778  0.00  0.00    +0.000 N 
ATOM     17  C   UNL     1       7.170   4.599  14.458  0.00  0.00    +0.000 C 
ATOM     18  O   UNL     1       7.638   5.599  13.919  0.00  0.00    +0.000 OA
ATOM     19  H   UNL     1       6.140   2.818  14.234  0.00  0.00    +0.000 HD
BRANCH  16  20
ATOM     20  C   UNL     1       6.185   3.763  12.345  0.00  0.00    +0.000 C 
BRANCH  20  22
ATOM     21  C   UNL     1       4.028   3.205  11.174  0.00  0.00    +0.000 C 
ATOM     22  C   UNL     1       5.281   2.647  11.831  0.00  0.00    +0.000 C 
ENDBRANCH  20  22
ENDBRANCH  16  20
ENDBRANCH   1  17
TORSDOF 3
ENDMDL
MODEL 2
REMARK VINA RESULT:      -7.8      2.392      4.938
REMARK  Name = 
REMARK  4 active torsions:
REMARK  status: ('A' for Active; 'I' for Inactive)
REMARK    1  A    between atoms: C_1  and  C_2
REMARK    2  A    between atoms: C_2  and  C_3
REMARK    3  A    between atoms: C_3  and  N_4
REMARK    4  A    between atoms: C_5  and  C_7
REMARK                            x       y       z     vdW  Elec       q    Type
REMARK                         _______ _______ _______ _____ _____    ______ ____
ROOT
ATOM      1  C   UNL     1       5.211   6.607  16.649  0.00  0.00    +0.000 C 
ATOM      2  C   UNL     1       4.023   6.407  17.604  0.00  0.00    +0.000 C 
ATOM      3  N   UNL     1       3.789   4.994  17.881  0.00  0.00    +0.000 N 
ATOM      4  C   UNL     1       4.403   3.994  17.161  0.00  0.00    +0.000 A 
ATOM      5  C   UNL     1       3.981   2.797  17.698  0.00  0.00    +0.000 A 
ATOM      6  C   UNL     1       2.960   3.080  18.647  0.00  0.00    +0.000 A 
ATOM      7  C   UNL     1       2.096   2.271  19.410  0.00  0.00    +0.000 A 
ATOM      8  C   UNL     1       1.144   2.871  20.238  0.00  0.00    +0.000 A 
ATOM      9  C   UNL     1       1.056   4.258  20.324  0.00  0.00    +0.000 A 
ATOM     10  C   UNL     1       1.911   5.085  19.586  0.00  0.00    +0.000 A 
ATOM     11  C   UNL     1       2.854   4.470  18.744  0.00  0.00    +0.000 A 
ATOM     12  C   UNL     1       5.253   4.233  16.027  0.00  0.00    +0.000 C 
ATOM     13  O   UNL     1       5.853   3.379  15.389  0.00  0.00    +0.000 OA
ATOM     14  N   UNL     1       5.330   5.546  15.650  0.00  0.00    +0.000 N 
ATOM     15  H   UNL     1       5.850   5.718  14.800  0.00  0.00    +0.000 HD
ENDROOT
BRANCH   1  17
ATOM     16  N   UNL     1       7.080   8.057  17.385  0.00  0.00    +0.000 N 
ATOM     17  C   UNL     1       6.534   6.783  17.426  0.00  0.00    +0.000 C 
ATOM     18  O   UNL     1       6.984   5.894  18.146  0.00  0.00    +0.000 OA
ATOM     19  H   UNL     1       6.759   8.695  16.668  0.00  0.00    +0.000 HD
BRANCH  16  20
ATOM     20  C   UNL     1       8.327   8.374  18.048  0.00  0.00    +0.000 C 
BRANCH  20  22
ATOM     21  C   UNL     1       9.326  10.268  19.371  0.00  0.00    +0.000 C 
ATOM     22  C   UNL     1       8.574   9.878  18.108  0.00  0.00    +0.000 C 
ENDBRANCH  20  22
ENDBRANCH  16  20
ENDBRANCH   1  17
TORSDOF 3
ENDMDL
MODEL 3
REMARK VINA RESULT:      -7.6      1.905      2.456
REMARK  Name = 
REMARK  4 active torsions:
REMARK  status: ('A' for Active; 'I' for Inactive)
REMARK    1  A    between atoms: C_1  and  C_2
REMARK    2  A    between atoms: C_2  and  C_3
REMARK    3  A    between atoms: C_3  and  N_4
REMARK    4  A    between atoms: C_5  and  C_7
REMARK                            x       y       z     vdW  Elec       q    Type
REMARK                         _______ _______ _______ _____ _____    ______ ____
ROOT
ATOM      1  C   UNL     1       6.548   5.903  18.073  0.00  0.00    +0.000 C 
ATOM      2  C   UNL     1       5.834   5.004  19.094  0.00  0.00    +0.000 C 
ATOM      3  N   UNL     1       4.405   4.906  18.819  0.00  0.00    +0.000 N 
ATOM      4  C   UNL     1       3.775   5.731  17.915  0.00  0.00    +0.000 A 
ATOM      5  C   UNL     1       2.450   5.354  17.884  0.00  0.00    +0.000 A 
ATOM      6  C   UNL     1       2.244   4.397  18.916  0.00  0.00    +0.000 A 
ATOM      7  C   UNL     1       1.100   3.756  19.429  0.00  0.00    +0.000 A 
ATOM      8  C   UNL     1       1.228   2.879  20.510  0.00  0.00    +0.000 A 
ATOM      9  C   UNL     1       2.477   2.626  21.070  0.00  0.00    +0.000 A 
ATOM     10  C   UNL     1       3.633   3.240  20.571  0.00  0.00    +0.000 A 
ATOM     11  C   UNL     1       3.489   4.132  19.494  0.00  0.00    +0.000 A 
ATOM     12  C   UNL     1       4.429   6.810  17.227  0.00  0.00    +0.000 C 
ATOM     13  O   UNL     1       3.920   7.537  16.385  0.00  0.00    +0.000 OA
ATOM     14  N   UNL     1       5.724   7.022  17.618  0.00  0.00    +0.000 N 
ATOM     15  H   UNL     1       6.167   7.834  17.210  0.00  0.00    +0.000 HD
ENDROOT
BRANCH   1  17
ATOM     16  N   UNL     1       6.643   5.515  15.627  0.00  0.00    +0.000 N 
ATOM     17  C   UNL     1       7.074   5.084  16.873  0.00  0.00    +0.000 C 
ATOM     18  O   UNL     1       7.928   4.211  17.011  0.00  0.00    +0.000 OA
ATOM     19  H   UNL     1       5.838   6.126  15.581  0.00  0.00    +0.000 HD
BRANCH  16  20
ATOM     20  C   UNL     1       7.034   4.839  14.409  0.00  0.00    +0.000 C 
BRANCH  20  22
ATOM     21  C   UNL     1       6.206   3.473  12.464  0.00  0.00    +0.000 C 
ATOM     22  C   UNL     1       5.941   3.907  13.898  0.00  0.00    +0.000 C 
ENDBRANCH  20  22
ENDBRANCH  16  20
ENDBRANCH   1  17
TORSDOF 3
ENDMDL
MODEL 4
REMARK VINA RESULT:      -7.4      3.680      5.596
REMARK  Name = 
REMARK  4 active torsions:
REMARK  status: ('A' for Active; 'I' for Inactive)
REMARK    1  A    between atoms: C_1  and  C_2
REMARK    2  A    between atoms: C_2  and  C_3
REMARK    3  A    between atoms: C_3  and  N_4
REMARK    4  A    between atoms: C_5  and  C_7
REMARK                            x       y       z     vdW  Elec       q    Type
REMARK                         _______ _______ _______ _____ _____    ______ ____
ROOT
ATOM      1  C   UNL     1       3.679   4.081  18.135  0.00  0.00    +0.000 C 
ATOM      2  C   UNL     1       3.241   5.486  17.692  0.00  0.00    +0.000 C 
ATOM      3  N   UNL     1       2.658   6.241  18.795  0.00  0.00    +0.000 N 
ATOM      4  C   UNL     1       2.322   5.648  19.992  0.00  0.00    +0.000 A 
ATOM      5  C   UNL     1       1.827   6.643  20.807  0.00  0.00    +0.000 A 
ATOM      6  C   UNL     1       1.701   7.825  20.026  0.00  0.00    +0.000 A 
ATOM      7  C   UNL     1       1.157   9.099  20.278  0.00  0.00    +0.000 A 
ATOM      8  C   UNL     1       1.142  10.055  19.258  0.00  0.00    +0.000 A 
ATOM      9  C   UNL     1       1.675   9.760  18.006  0.00  0.00    +0.000 A 
ATOM     10  C   UNL     1       2.234   8.506  17.733  0.00  0.00    +0.000 A 
ATOM     11  C   UNL     1       2.228   7.548  18.762  0.00  0.00    +0.000 A 
ATOM     12  C   UNL     1       2.428   4.237  20.242  0.00  0.00    +0.000 C 
ATOM     13  O   UNL     1       2.185   3.676  21.302  0.00  0.00    +0.000 OA
ATOM     14  N   UNL     1       2.802   3.500  19.151  0.00  0.00    +0.000 N 
ATOM     15  H   UNL     1       2.792   2.498  19.287  0.00  0.00    +0.000 HD
ENDROOT
BRANCH   1  17
ATOM     16  N   UNL     1       6.006   4.898  17.894  0.00  0.00    +0.000 N 
ATOM     17  C   UNL     1       5.149   4.073  18.608  0.00  0.00    +0.000 C 
ATOM     18  O   UNL     1       5.496   3.492  19.634  0.00  0.00    +0.000 OA
ATOM     19  H   UNL     1       5.709   5.227  16.984  0.00  0.00    +0.000 HD
BRANCH  16  20
ATOM     20  C   UNL     1       7.417   4.984  18.204  0.00  0.00    +0.000 C 
BRANCH  20  22
ATOM     21  C   UNL     1       7.534   7.412  17.551  0.00  0.00    +0.000 C 
ATOM     22  C   UNL     1       7.820   6.389  18.640  0.00  0.00    +0.000 C 
ENDBRANCH  20  22
ENDBRANCH  16  20
ENDBRANCH   1  17
TORSDOF 3
ENDMDL
MODEL 5
REMARK VINA RESULT:      -7.3      1.069      1.123
REMARK  Name = 
REMARK  4 active torsions:
REMARK  status: ('A' for Active; 'I' for Inactive)
REMARK    1  A    between atoms: C_1  and  C_2
REMARK    2  A    between atoms: C_2  and  C_3
REMARK    3  A    between atoms: C_3  and  N_4
REMARK    4  A    between atoms: C_5  and  C_7
REMARK                            x       y       z     vdW  Elec       q    Type
REMARK                         _______ _______ _______ _____ _____    ______ ____
ROOT
ATOM      1  C   UNL     1       6.648   4.123  15.946  0.00  0.00    +0.000 C 
ATOM      2  C   UNL     1       5.514   3.597  16.840  0.00  0.00    +0.000 C 
ATOM      3  N   UNL     1       4.803   4.685  17.502  0.00  0.00    +0.000 N 
ATOM      4  C   UNL     1       5.279   5.976  17.504  0.00  0.00    +0.000 A 
ATOM      5  C   UNL     1       4.359   6.741  18.188  0.00  0.00    +0.000 A 
ATOM      6  C   UNL     1       3.396   5.862  18.757  0.00  0.00    +0.000 A 
ATOM      7  C   UNL     1       2.312   6.050  19.636  0.00  0.00    +0.000 A 
ATOM      8  C   UNL     1       1.568   4.944  20.056  0.00  0.00    +0.000 A 
ATOM      9  C   UNL     1       1.882   3.666  19.600  0.00  0.00    +0.000 A 
ATOM     10  C   UNL     1       2.946   3.453  18.716  0.00  0.00    +0.000 A 
ATOM     11  C   UNL     1       3.697   4.571  18.313  0.00  0.00    +0.000 A 
ATOM     12  C   UNL     1       6.544   6.363  16.943  0.00  0.00    +0.000 C 
ATOM     13  O   UNL     1       6.984   7.504  16.883  0.00  0.00    +0.000 OA
ATOM     14  N   UNL     1       7.297   5.317  16.484  0.00  0.00    +0.000 N 
ATOM     15  H   UNL     1       8.227   5.563  16.170  0.00  0.00    +0.000 HD
ENDROOT
BRANCH   1  17
ATOM     16  N   UNL     1       6.672   3.500  13.548  0.00  0.00    +0.000 N 
ATOM     17  C   UNL     1       6.158   4.366  14.501  0.00  0.00    +0.000 C 
ATOM     18  O   UNL     1       5.266   5.173  14.248  0.00  0.00    +0.000 OA
ATOM     19  H   UNL     1       7.501   2.967  13.778  0.00  0.00    +0.000 HD
BRANCH  16  20
ATOM     20  C   UNL     1       6.323   3.612  12.147  0.00  0.00    +0.000 C 
BRANCH  20  22
ATOM     21  C   UNL     1       4.018   3.217  11.218  0.00  0.00    +0.000 C 
ATOM     22  C   UNL     1       5.294   2.567  11.730  0.00  0.00    +0.000 C 
ENDBRANCH  20  22
ENDBRANCH  16  20
ENDBRANCH   1  17
TORSDOF 3
ENDMDL
MODEL 6
REMARK VINA RESULT:      -7.3      3.008      5.141
REMARK  Name = 
REMARK  4 active torsions:
REMARK  status: ('A' for Active; 'I' for Inactive)
REMARK    1  A    between atoms: C_1  and  C_2
REMARK    2  A    between atoms: C_2  and  C_3
REMARK    3  A    between atoms: C_3  and  N_4
REMARK    4  A    between atoms: C_5  and  C_7
REMARK                            x       y       z     vdW  Elec       q    Type
REMARK                         _______ _______ _______ _____ _____    ______ ____
ROOT
ATOM      1  C   UNL     1       5.493   5.066  16.760  0.00  0.00    +0.000 C 
ATOM      2  C   UNL     1       4.475   6.217  16.790  0.00  0.00    +0.000 C 
ATOM      3  N   UNL     1       3.798   6.302  18.080  0.00  0.00    +0.000 N 
ATOM      4  C   UNL     1       3.896   5.306  19.025  0.00  0.00    +0.000 A 
ATOM      5  C   UNL     1       3.164   5.718  20.118  0.00  0.00    +0.000 A 
ATOM      6  C   UNL     1       2.470   6.906  19.756  0.00  0.00    +0.000 A 
ATOM      7  C   UNL     1       1.504   7.699  20.404  0.00  0.00    +0.000 A 
ATOM      8  C   UNL     1       0.969   8.808  19.744  0.00  0.00    +0.000 A 
ATOM      9  C   UNL     1       1.395   9.140  18.460  0.00  0.00    +0.000 A 
ATOM     10  C   UNL     1       2.364   8.376  17.799  0.00  0.00    +0.000 A 
ATOM     11  C   UNL     1       2.883   7.254  18.467  0.00  0.00    +0.000 A 
ATOM     12  C   UNL     1       4.589   4.065  18.811  0.00  0.00    +0.000 C 
ATOM     13  O   UNL     1       4.739   3.175  19.637  0.00  0.00    +0.000 OA
ATOM     14  N   UNL     1       5.070   3.904  17.539  0.00  0.00    +0.000 N 
ATOM     15  H   UNL     1       5.479   2.999  17.348  0.00  0.00    +0.000 HD
ENDROOT
BRANCH   1  17
ATOM     16  N   UNL     1       6.939   6.806  17.769  0.00  0.00    +0.000 N 
ATOM     17  C   UNL     1       6.895   5.543  17.198  0.00  0.00    +0.000 C 
ATOM     18  O   UNL     1       7.869   4.795  17.176  0.00  0.00    +0.000 OA
ATOM     19  H   UNL     1       6.153   7.427  17.626  0.00  0.00    +0.000 HD
BRANCH  16  20
ATOM     20  C   UNL     1       8.182   7.400  18.213  0.00  0.00    +0.000 C 
BRANCH  20  22
ATOM     21  C   UNL     1       9.026   9.659  18.933  0.00  0.00    +0.000 C 
ATOM     22  C   UNL     1       8.257   8.885  17.873  0.00  0.00    +0.000 C 
ENDBRANCH  20  22
ENDBRANCH  16  20
ENDBRANCH   1  17
TORSDOF 3
ENDMDL
MODEL 7
REMARK VINA RESULT:      -7.1      3.139      5.448
REMARK  Name = 
REMARK  4 active torsions:
REMARK  status: ('A' for Active; 'I' for Inactive)
REMARK    1  A    between atoms: C_1  and  C_2
REMARK    2  A    between atoms: C_2  and  C_3
REMARK    3  A    between atoms: C_3  and  N_4
REMARK    4  A    between atoms: C_5  and  C_7
REMARK                            x       y       z     vdW  Elec       q    Type
REMARK                         _______ _______ _______ _____ _____    ______ ____
ROOT
ATOM      1  C   UNL     1       6.886   7.341  16.896  0.00  0.00    +0.000 C 
ATOM      2  C   UNL     1       5.472   7.270  17.492  0.00  0.00    +0.000 C 
ATOM      3  N   UNL     1       5.239   6.002  18.174  0.00  0.00    +0.000 N 
ATOM      4  C   UNL     1       6.100   4.935  18.052  0.00  0.00    +0.000 A 
ATOM      5  C   UNL     1       5.597   3.921  18.838  0.00  0.00    +0.000 A 
ATOM      6  C   UNL     1       4.316   4.326  19.305  0.00  0.00    +0.000 A 
ATOM      7  C   UNL     1       3.301   3.677  20.034  0.00  0.00    +0.000 A 
ATOM      8  C   UNL     1       2.106   4.351  20.300  0.00  0.00    +0.000 A 
ATOM      9  C   UNL     1       1.921   5.660  19.863  0.00  0.00    +0.000 A 
ATOM     10  C   UNL     1       2.919   6.333  19.148  0.00  0.00    +0.000 A 
ATOM     11  C   UNL     1       4.110   5.639  18.873  0.00  0.00    +0.000 A 
ATOM     12  C   UNL     1       7.250   4.931  17.189  0.00  0.00    +0.000 C 
ATOM     13  O   UNL     1       8.065   4.025  17.085  0.00  0.00    +0.000 OA
ATOM     14  N   UNL     1       7.370   6.050  16.410  0.00  0.00    +0.000 N 
ATOM     15  H   UNL     1       8.121   6.021  15.733  0.00  0.00    +0.000 HD
ENDROOT
BRANCH   1  17
ATOM     16  N   UNL     1       8.012   9.343  17.825  0.00  0.00    +0.000 N 
ATOM     17  C   UNL     1       7.887   7.963  17.894  0.00  0.00    +0.000 C 
ATOM     18  O   UNL     1       8.418   7.296  18.779  0.00  0.00    +0.000 OA
ATOM     19  H   UNL     1       7.677   9.816  16.995  0.00  0.00    +0.000 HD
BRANCH  16  20
ATOM     20  C   UNL     1       8.924  10.071  18.682  0.00  0.00    +0.000 C 
BRANCH  20  22
ATOM     21  C   UNL     1      10.745  11.631  17.918  0.00  0.00    +0.000 C 
ATOM     22  C   UNL     1       9.249  11.453  18.125  0.00  0.00    +0.000 C 
ENDBRANCH  20  22
ENDBRANCH  16  20
ENDBRANCH   1  17
TORSDOF 3
ENDMDL
MODEL 8
REMARK VINA RESULT:      -7.1      3.299      5.153
REMARK  Name = 
REMARK  4 active torsions:
REMARK  status: ('A' for Active; 'I' for Inactive)
REMARK    1  A    between atoms: C_1  and  C_2
REMARK    2  A    between atoms: C_2  and  C_3
REMARK    3  A    between atoms: C_3  and  N_4
REMARK    4  A    between atoms: C_5  and  C_7
REMARK                            x       y       z     vdW  Elec       q    Type
REMARK                         _______ _______ _______ _____ _____    ______ ____
ROOT
ATOM      1  C   UNL     1       4.846   4.889  18.669  0.00  0.00    +0.000 C 
ATOM      2  C   UNL     1       3.919   5.656  19.625  0.00  0.00    +0.000 C 
ATOM      3  N   UNL     1       3.239   6.755  18.949  0.00  0.00    +0.000 N 
ATOM      4  C   UNL     1       3.604   7.179  17.691  0.00  0.00    +0.000 A 
ATOM      5  C   UNL     1       2.749   8.204  17.349  0.00  0.00    +0.000 A 
ATOM      6  C   UNL     1       1.965   8.518  18.494  0.00  0.00    +0.000 A 
ATOM      7  C   UNL     1       1.027   9.529  18.777  0.00  0.00    +0.000 A 
ATOM      8  C   UNL     1       0.451   9.596  20.049  0.00  0.00    +0.000 A 
ATOM      9  C   UNL     1       0.788   8.664  21.028  0.00  0.00    +0.000 A 
ATOM     10  C   UNL     1       1.709   7.642  20.768  0.00  0.00    +0.000 A 
ATOM     11  C   UNL     1       2.293   7.594  19.490  0.00  0.00    +0.000 A 
ATOM     12  C   UNL     1       4.726   6.651  16.964  0.00  0.00    +0.000 C 
ATOM     13  O   UNL     1       5.057   6.966  15.829  0.00  0.00    +0.000 OA
ATOM     14  N   UNL     1       5.477   5.748  17.668  0.00  0.00    +0.000 N 
ATOM     15  H   UNL     1       6.320   5.438  17.204  0.00  0.00    +0.000 HD
ENDROOT
BRANCH   1  17
ATOM     16  N   UNL     1       2.882   3.383  18.552  0.00  0.00    +0.000 N 
ATOM     17  C   UNL     1       4.111   3.709  17.997  0.00  0.00    +0.000 C 
ATOM     18  O   UNL     1       4.520   3.200  16.956  0.00  0.00    +0.000 OA
ATOM     19  H   UNL     1       2.669   3.724  19.481  0.00  0.00    +0.000 HD
BRANCH  16  20
ATOM     20  C   UNL     1       2.082   2.289  18.046  0.00  0.00    +0.000 C 
BRANCH  20  22
ATOM     21  C   UNL     1       0.691   3.113  19.974  0.00  0.00    +0.000 C 
ATOM     22  C   UNL     1       0.761   2.154  18.796  0.00  0.00    +0.000 C 
ENDBRANCH  20  22
ENDBRANCH  16  20
ENDBRANCH   1  17
TORSDOF 3
ENDMDL
MODEL 9
REMARK VINA RESULT:      -7.0      2.154      2.683
REMARK  Name = 
REMARK  4 active torsions:
REMARK  status: ('A' for Active; 'I' for Inactive)
REMARK    1  A    between atoms: C_1  and  C_2
REMARK    2  A    between atoms: C_2  and  C_3
REMARK    3  A    between atoms: C_3  and  N_4
REMARK    4  A    between atoms: C_5  and  C_7
REMARK                            x       y       z     vdW  Elec       q    Type
REMARK                         _______ _______ _______ _____ _____    ______ ____
ROOT
ATOM      1  C   UNL     1       6.276   5.349  17.561  0.00  0.00    +0.000 C 
ATOM      2  C   UNL     1       5.669   4.430  18.632  0.00  0.00    +0.000 C 
ATOM      3  N   UNL     1       4.236   4.655  18.785  0.00  0.00    +0.000 N 
ATOM      4  C   UNL     1       3.600   5.735  18.216  0.00  0.00    +0.000 A 
ATOM      5  C   UNL     1       2.264   5.626  18.534  0.00  0.00    +0.000 A 
ATOM      6  C   UNL     1       2.121   4.554  19.458  0.00  0.00    +0.000 A 
ATOM      7  C   UNL     1       1.036   4.058  20.207  0.00  0.00    +0.000 A 
ATOM      8  C   UNL     1       1.238   2.991  21.087  0.00  0.00    +0.000 A 
ATOM      9  C   UNL     1       2.496   2.409  21.215  0.00  0.00    +0.000 A 
ATOM     10  C   UNL     1       3.589   2.875  20.473  0.00  0.00    +0.000 A 
ATOM     11  C   UNL     1       3.377   3.958  19.603  0.00  0.00    +0.000 A 
ATOM     12  C   UNL     1       4.282   6.778  17.500  0.00  0.00    +0.000 C 
ATOM     13  O   UNL     1       3.752   7.728  16.940  0.00  0.00    +0.000 OA
ATOM     14  N   UNL     1       5.646   6.667  17.510  0.00  0.00    +0.000 N 
ATOM     15  H   UNL     1       6.142   7.442  17.090  0.00  0.00    +0.000 HD
ENDROOT
BRANCH   1  17
ATOM     16  N   UNL     1       7.078   5.270  15.218  0.00  0.00    +0.000 N 
ATOM     17  C   UNL     1       6.261   4.678  16.170  0.00  0.00    +0.000 C 
ATOM     18  O   UNL     1       5.682   3.613  15.971  0.00  0.00    +0.000 OA
ATOM     19  H   UNL     1       7.407   6.212  15.385  0.00  0.00    +0.000 HD
BRANCH  16  20
ATOM     20  C   UNL     1       7.158   4.769  13.862  0.00  0.00    +0.000 C 
BRANCH  20  22
ATOM     21  C   UNL     1       7.694   5.795  11.628  0.00  0.00    +0.000 C 
ATOM     22  C   UNL     1       8.197   5.521  13.037  0.00  0.00    +0.000 C 
ENDBRANCH  20  22
ENDBRANCH  16  20
ENDBRANCH   1  17
TORSDOF 3
ENDMDL
