MODEL 1
REMARK VINA RESULT:      -7.3      0.000      0.000
REMARK  Name = 
REMARK  6 active torsions:
REMARK  status: ('A' for Active; 'I' for Inactive)
REMARK    1  A    between atoms: C_1  and  C_2
REMARK    2  A    between atoms: N_6  and  C_7
REMARK    3  A    between atoms: C_7  and  C_8
REMARK    4  A    between atoms: C_8  and  C_9
REMARK    5  A    between atoms: C_9  and  N_10
REMARK    6  A    between atoms: C_14  and  C_15
REMARK                            x       y       z     vdW  Elec       q    Type
REMARK                         _______ _______ _______ _____ _____    ______ ____
ROOT
ATOM      1  C   UNL     1       6.836   4.889  18.321  0.00  0.00    +0.000 C 
ENDROOT
BRANCH   1   7
ATOM      2  C   UNL     1       6.172   3.355  12.180  0.00  0.00    +0.000 C 
ATOM      3  C   UNL     1       6.381   3.998  13.499  0.00  0.00    +0.000 A 
ATOM      4  C   UNL     1       5.587   3.729  14.592  0.00  0.00    +0.000 A 
ATOM      5  N   UNL     1       5.772   4.283  15.802  0.00  0.00    +0.000 NA
ATOM      6  C   UNL     1       6.786   5.147  15.933  0.00  0.00    +0.000 A 
ATOM      7  N   UNL     1       7.039   5.740  17.156  0.00  0.00    +0.000 N 
ATOM      8  N   UNL     1       7.606   5.495  14.932  0.00  0.00    +0.000 NA
ATOM      9  C   UNL     1       7.382   4.911  13.737  0.00  0.00    +0.000 A 
ATOM     10  H   UNL     1       7.936   6.192  17.070  0.00  0.00    +0.000 HD
ENDBRANCH   1   7
BRANCH   1  11
ATOM     11  C   UNL     1       5.659   5.335  19.199  0.00  0.00    +0.000 C 
BRANCH  11  12
ATOM     12  C   UNL     1       4.413   4.468  18.973  0.00  0.00    +0.000 C 
BRANCH  12  13
ATOM     13  N   UNL     1       3.191   5.230  18.690  0.00  0.00    +0.000 NA
ATOM     14  C   UNL     1       2.598   5.893  19.853  0.00  0.00    +0.000 C 
ATOM     15  C   UNL     1       1.923   4.941  20.837  0.00  0.00    +0.000 C 
ATOM     16  C   UNL     1       0.946   3.971  20.176  0.00  0.00    +0.000 C 
ATOM     17  C   UNL     1       1.397   3.402  18.822  0.00  0.00    +0.000 C 
ATOM     18  C   UNL     1       2.111   2.051  18.929  0.00  0.00    +0.000 C 
ATOM     19  C   UNL     1       2.166   4.442  17.984  0.00  0.00    +0.000 C 
ENDBRANCH  12  13
ENDBRANCH  11  12
ENDBRANCH   1  11
TORSDOF 4
ENDMDL
MODEL 2
REMARK VINA RESULT:      -7.2      1.146      2.033
REMARK  Name = 
REMARK  6 active torsions:
REMARK  status: ('A' for Active; 'I' for Inactive)
REMARK    1  A    between atoms: C_1  and  C_2
REMARK    2  A    between atoms: N_6  and  C_7
REMARK    3  A    between atoms: C_7  and  C_8
REMARK    4  A    between atoms: C_8  and  C_9
REMARK    5  A    between atoms: C_9  and  N_10
REMARK    6  A    between atoms: C_14  and  C_15
REMARK                            x       y       z     vdW  Elec       q    Type
REMARK                         _______ _______ _______ _____ _____    ______ ____
ROOT
ATOM      1  C   UNL     1       7.572   4.827  17.898  0.00  0.00    +0.000 C 
ENDROOT
BRANCH   1   7
ATOM      2  C   UNL     1       5.866   3.165  11.996  0.00  0.00    +0.000 C 
ATOM      3  C   UNL     1       6.277   3.838  13.250  0.00  0.00    +0.000 A 
ATOM      4  C   UNL     1       5.721   3.539  14.474  0.00  0.00    +0.000 A 
ATOM      5  N   UNL     1       6.095   4.121  15.625  0.00  0.00    +0.000 NA
ATOM      6  C   UNL     1       7.059   5.046  15.561  0.00  0.00    +0.000 A 
ATOM      7  N   UNL     1       7.499   5.671  16.713  0.00  0.00    +0.000 N 
ATOM      8  N   UNL     1       7.654   5.428  14.422  0.00  0.00    +0.000 NA
ATOM      9  C   UNL     1       7.247   4.815  13.293  0.00  0.00    +0.000 A 
ATOM     10  H   UNL     1       8.335   6.176  16.458  0.00  0.00    +0.000 HD
ENDBRANCH   1   7
BRANCH   1  11
ATOM     11  C   UNL     1       6.771   5.380  19.084  0.00  0.00    +0.000 C 
BRANCH  11  12
ATOM     12  C   UNL     1       5.288   5.573  18.735  0.00  0.00    +0.000 C 
BRANCH  12  13
ATOM     13  N   UNL     1       4.384   4.628  19.401  0.00  0.00    +0.000 NA
ATOM     14  C   UNL     1       4.051   3.438  18.616  0.00  0.00    +0.000 C 
ATOM     15  C   UNL     1       3.107   3.706  17.447  0.00  0.00    +0.000 C 
ATOM     16  C   UNL     1       1.860   4.496  17.838  0.00  0.00    +0.000 C 
ATOM     17  C   UNL     1       2.088   5.630  18.851  0.00  0.00    +0.000 C 
ATOM     18  C   UNL     1       2.317   6.998  18.201  0.00  0.00    +0.000 C 
ATOM     19  C   UNL     1       3.151   5.259  19.903  0.00  0.00    +0.000 C 
ENDBRANCH  12  13
ENDBRANCH  11  12
ENDBRANCH   1  11
TORSDOF 4
ENDMDL
MODEL 3
REMARK VINA RESULT:      -7.2      1.070      1.549
REMARK  Name = 
REMARK  6 active torsions:
REMARK  status: ('A' for Active; 'I' for Inactive)
REMARK    1  A    between atoms: C_1  and  C_2
REMARK    2  A    between atoms: N_6  and  C_7
REMARK    3  A    between atoms: C_7  and  C_8
REMARK    4  A    between atoms: C_8  and  C_9
REMARK    5  A    between atoms: C_9  and  N_10
REMARK    6  A    between atoms: C_14  and  C_15
REMARK                            x       y       z     vdW  Elec       q    Type
REMARK                         _______ _______ _______ _____ _____    ______ ____
ROOT
ATOM      1  C   UNL     1       6.302   4.911  18.285  0.00  0.00    +0.000 C 
ENDROOT
BRANCH   1   7
ATOM      2  C   UNL     1       6.370   3.421  12.097  0.00  0.00    +0.000 C 
ATOM      3  C   UNL     1       6.441   4.049  13.438  0.00  0.00    +0.000 A 
ATOM      4  C   UNL     1       5.492   3.835  14.412  0.00  0.00    +0.000 A 
ATOM      5  N   UNL     1       5.549   4.376  15.640  0.00  0.00    +0.000 NA
ATOM      6  C   UNL     1       6.591   5.170  15.913  0.00  0.00    +0.000 A 
ATOM      7  N   UNL     1       6.716   5.746  17.164  0.00  0.00    +0.000 N 
ATOM      8  N   UNL     1       7.559   5.462  15.034  0.00  0.00    +0.000 NA
ATOM      9  C   UNL     1       7.460   4.894  13.816  0.00  0.00    +0.000 A 
ATOM     10  H   UNL     1       7.645   6.137  17.203  0.00  0.00    +0.000 HD
ENDBRANCH   1   7
BRANCH   1  11
ATOM     11  C   UNL     1       5.100   5.480  19.050  0.00  0.00    +0.000 C 
BRANCH  11  12
ATOM     12  C   UNL     1       4.166   4.371  19.557  0.00  0.00    +0.000 C 
BRANCH  12  13
ATOM     13  N   UNL     1       3.805   3.375  18.541  0.00  0.00    +0.000 NA
ATOM     14  C   UNL     1       2.895   3.860  17.502  0.00  0.00    +0.000 C 
ATOM     15  C   UNL     1       1.461   4.073  17.979  0.00  0.00    +0.000 C 
ATOM     16  C   UNL     1       0.882   2.874  18.728  0.00  0.00    +0.000 C 
ATOM     17  C   UNL     1       1.854   2.158  19.677  0.00  0.00    +0.000 C 
ATOM     18  C   UNL     1       1.776   2.650  21.126  0.00  0.00    +0.000 C 
ATOM     19  C   UNL     1       3.289   2.121  19.115  0.00  0.00    +0.000 C 
ENDBRANCH  12  13
ENDBRANCH  11  12
ENDBRANCH   1  11
TORSDOF 4
ENDMDL
MODEL 4
REMARK VINA RESULT:      -7.1      2.436      3.681
REMARK  Name = 
REMARK  6 active torsions:
REMARK  status: ('A' for Active; 'I' for Inactive)
REMARK    1  A    between atoms: C_1  and  C_2
REMARK    2  A    between atoms: N_6  and  C_7
REMARK    3  A    between atoms: C_7  and  C_8
REMARK    4  A    between atoms: C_8  and  C_9
REMARK    5  A    between atoms: C_9  and  N_10
REMARK    6  A    between atoms: C_14  and  C_15
REMARK                            x       y       z     vdW  Elec       q    Type
REMARK                         _______ _______ _______ _____ _____    ______ ____
ROOT
ATOM      1  C   UNL     1       4.673   3.295  16.981  0.00  0.00    +0.000 C 
ENDROOT
BRANCH   1   7
ATOM      2  C   UNL     1       8.186   8.537  17.812  0.00  0.00    +0.000 C 
ATOM      3  C   UNL     1       7.418   7.274  17.922  0.00  0.00    +0.000 A 
ATOM      4  C   UNL     1       6.201   7.085  17.306  0.00  0.00    +0.000 A 
ATOM      5  N   UNL     1       5.500   5.942  17.374  0.00  0.00    +0.000 NA
ATOM      6  C   UNL     1       6.026   4.941  18.091  0.00  0.00    +0.000 A 
ATOM      7  N   UNL     1       5.360   3.733  18.188  0.00  0.00    +0.000 N 
ATOM      8  N   UNL     1       7.191   5.024  18.747  0.00  0.00    +0.000 NA
ATOM      9  C   UNL     1       7.859   6.190  18.647  0.00  0.00    +0.000 A 
ATOM     10  H   UNL     1       6.011   3.086  18.606  0.00  0.00    +0.000 HD
ENDBRANCH   1   7
BRANCH   1  11
ATOM     11  C   UNL     1       3.663   2.168  17.236  0.00  0.00    +0.000 C 
BRANCH  11  12
ATOM     12  C   UNL     1       2.906   2.364  18.558  0.00  0.00    +0.000 C 
BRANCH  12  13
ATOM     13  N   UNL     1       1.639   3.093  18.425  0.00  0.00    +0.000 NA
ATOM     14  C   UNL     1       1.779   4.509  18.082  0.00  0.00    +0.000 C 
ATOM     15  C   UNL     1       2.300   5.379  19.222  0.00  0.00    +0.000 C 
ATOM     16  C   UNL     1       1.544   5.183  20.535  0.00  0.00    +0.000 C 
ATOM     17  C   UNL     1       1.151   3.733  20.860  0.00  0.00    +0.000 C 
ATOM     18  C   UNL     1       2.165   3.005  21.748  0.00  0.00    +0.000 C 
ATOM     19  C   UNL     1       0.758   2.944  19.596  0.00  0.00    +0.000 C 
ENDBRANCH  12  13
ENDBRANCH  11  12
ENDBRANCH   1  11
TORSDOF 4
ENDMDL
MODEL 5
REMARK VINA RESULT:      -7.0      0.959      1.247
REMARK  Name = 
REMARK  6 active torsions:
REMARK  status: ('A' for Active; 'I' for Inactive)
REMARK    1  A    between atoms: C_1  and  C_2
REMARK    2  A    between atoms: N_6  and  C_7
REMARK    3  A    between atoms: C_7  and  C_8
REMARK    4  A    between atoms: C_8  and  C_9
REMARK    5  A    between atoms: C_9  and  N_10
REMARK    6  A    between atoms: C_14  and  C_15
REMARK                            x       y       z     vdW  Elec       q    Type
REMARK                         _______ _______ _______ _____ _____    ______ ____
ROOT
ATOM      1  C   UNL     1       5.814   5.096  18.791  0.00  0.00    +0.000 C 
ENDROOT
BRANCH   1   7
ATOM      2  C   UNL     1       6.092   3.542  12.626  0.00  0.00    +0.000 C 
ATOM      3  C   UNL     1       6.164   4.166  13.968  0.00  0.00    +0.000 A 
ATOM      4  C   UNL     1       5.125   4.116  14.870  0.00  0.00    +0.000 A 
ATOM      5  N   UNL     1       5.178   4.655  16.099  0.00  0.00    +0.000 NA
ATOM      6  C   UNL     1       6.310   5.279  16.448  0.00  0.00    +0.000 A 
ATOM      7  N   UNL     1       6.433   5.841  17.704  0.00  0.00    +0.000 N 
ATOM      8  N   UNL     1       7.373   5.404  15.642  0.00  0.00    +0.000 NA
ATOM      9  C   UNL     1       7.273   4.845  14.419  0.00  0.00    +0.000 A 
ATOM     10  H   UNL     1       7.407   6.082  17.811  0.00  0.00    +0.000 HD
ENDBRANCH   1   7
BRANCH   1  11
ATOM     11  C   UNL     1       4.524   5.744  19.312  0.00  0.00    +0.000 C 
BRANCH  11  12
ATOM     12  C   UNL     1       3.585   4.716  19.959  0.00  0.00    +0.000 C 
BRANCH  12  13
ATOM     13  N   UNL     1       2.160   4.960  19.709  0.00  0.00    +0.000 NA
ATOM     14  C   UNL     1       1.252   4.341  20.677  0.00  0.00    +0.000 C 
ATOM     15  C   UNL     1       1.141   2.825  20.547  0.00  0.00    +0.000 C 
ATOM     16  C   UNL     1       0.860   2.352  19.122  0.00  0.00    +0.000 C 
ATOM     17  C   UNL     1       1.607   3.114  18.016  0.00  0.00    +0.000 C 
ATOM     18  C   UNL     1       2.924   2.455  17.595  0.00  0.00    +0.000 C 
ATOM     19  C   UNL     1       1.743   4.615  18.339  0.00  0.00    +0.000 C 
ENDBRANCH  12  13
ENDBRANCH  11  12
ENDBRANCH   1  11
TORSDOF 4
ENDMDL
MODEL 6
REMARK VINA RESULT:      -6.9      0.970      1.779
REMARK  Name = 
REMARK  6 active torsions:
REMARK  status: ('A' for Active; 'I' for Inactive)
REMARK    1  A    between atoms: C_1  and  C_2
REMARK    2  A    between atoms: N_6  and  C_7
REMARK    3  A    between atoms: C_7  and  C_8
REMARK    4  A    between atoms: C_8  and  C_9
REMARK    5  A    between atoms: C_9  and  N_10
REMARK    6  A    between atoms: C_14  and  C_15
REMARK                            x       y       z     vdW  Elec       q    Type
REMARK                         _______ _______ _______ _____ _____    ______ ____
ROOT
ATOM      1  C   UNL     1       7.275   5.083  17.862  0.00  0.00    +0.000 C 
ENDROOT
BRANCH   1   7
ATOM      2  C   UNL     1       6.178   3.131  11.904  0.00  0.00    +0.000 C 
ATOM      3  C   UNL     1       6.454   3.867  13.161  0.00  0.00    +0.000 A 
ATOM      4  C   UNL     1       5.787   3.608  14.338  0.00  0.00    +0.000 A 
ATOM      5  N   UNL     1       6.038   4.246  15.492  0.00  0.00    +0.000 NA
ATOM      6  C   UNL     1       6.987   5.190  15.479  0.00  0.00    +0.000 A 
ATOM      7  N   UNL     1       7.301   5.874  16.638  0.00  0.00    +0.000 N 
ATOM      8  N   UNL     1       7.681   5.536  14.386  0.00  0.00    +0.000 NA
ATOM      9  C   UNL     1       7.397   4.866  13.252  0.00  0.00    +0.000 A 
ATOM     10  H   UNL     1       8.148   6.386  16.442  0.00  0.00    +0.000 HD
ENDBRANCH   1   7
BRANCH   1  11
ATOM     11  C   UNL     1       6.043   5.361  18.734  0.00  0.00    +0.000 C 
BRANCH  11  12
ATOM     12  C   UNL     1       4.918   4.348  18.477  0.00  0.00    +0.000 C 
BRANCH  12  13
ATOM     13  N   UNL     1       4.286   3.827  19.695  0.00  0.00    +0.000 NA
ATOM     14  C   UNL     1       4.294   2.368  19.815  0.00  0.00    +0.000 C 
ATOM     15  C   UNL     1       3.333   1.658  18.865  0.00  0.00    +0.000 C 
ATOM     16  C   UNL     1       1.914   2.223  18.898  0.00  0.00    +0.000 C 
ATOM     17  C   UNL     1       1.816   3.753  19.007  0.00  0.00    +0.000 C 
ATOM     18  C   UNL     1       1.685   4.459  17.654  0.00  0.00    +0.000 C 
ATOM     19  C   UNL     1       2.921   4.340  19.906  0.00  0.00    +0.000 C 
ENDBRANCH  12  13
ENDBRANCH  11  12
ENDBRANCH   1  11
TORSDOF 4
ENDMDL
MODEL 7
REMARK VINA RESULT:      -6.9      1.189      2.054
REMARK  Name = 
REMARK  6 active torsions:
REMARK  status: ('A' for Active; 'I' for Inactive)
REMARK    1  A    between atoms: C_1  and  C_2
REMARK    2  A    between atoms: N_6  and  C_7
REMARK    3  A    between atoms: C_7  and  C_8
REMARK    4  A    between atoms: C_8  and  C_9
REMARK    5  A    between atoms: C_9  and  N_10
REMARK    6  A    between atoms: C_14  and  C_15
REMARK                            x       y       z     vdW  Elec       q    Type
REMARK                         _______ _______ _______ _____ _____    ______ ____
ROOT
ATOM      1  C   UNL     1       6.247   5.418  17.914  0.00  0.00    +0.000 C 
ENDROOT
BRANCH   1   7
ATOM      2  C   UNL     1       7.250   4.691  11.671  0.00  0.00    +0.000 C 
ATOM      3  C   UNL     1       7.017   4.549  13.128  0.00  0.00    +0.000 A 
ATOM      4  C   UNL     1       7.654   5.334  14.064  0.00  0.00    +0.000 A 
ATOM      5  N   UNL     1       7.440   5.237  15.387  0.00  0.00    +0.000 NA
ATOM      6  C   UNL     1       6.561   4.318  15.802  0.00  0.00    +0.000 A 
ATOM      7  N   UNL     1       6.287   4.179  17.149  0.00  0.00    +0.000 N 
ATOM      8  N   UNL     1       5.902   3.489  14.980  0.00  0.00    +0.000 NA
ATOM      9  C   UNL     1       6.148   3.625  13.661  0.00  0.00    +0.000 A 
ATOM     10  H   UNL     1       5.480   3.576  17.212  0.00  0.00    +0.000 HD
ENDBRANCH   1   7
BRANCH   1  11
ATOM     11  C   UNL     1       5.603   5.254  19.297  0.00  0.00    +0.000 C 
BRANCH  11  12
ATOM     12  C   UNL     1       4.113   4.895  19.198  0.00  0.00    +0.000 C 
BRANCH  12  13
ATOM     13  N   UNL     1       3.849   3.567  18.632  0.00  0.00    +0.000 NA
ATOM     14  C   UNL     1       2.838   3.540  17.574  0.00  0.00    +0.000 C 
ATOM     15  C   UNL     1       1.409   3.747  18.071  0.00  0.00    +0.000 C 
ATOM     16  C   UNL     1       1.032   2.840  19.240  0.00  0.00    +0.000 C 
ATOM     17  C   UNL     1       2.133   2.627  20.291  0.00  0.00    +0.000 C 
ATOM     18  C   UNL     1       2.049   3.595  21.476  0.00  0.00    +0.000 C 
ATOM     19  C   UNL     1       3.534   2.553  19.653  0.00  0.00    +0.000 C 
ENDBRANCH  12  13
ENDBRANCH  11  12
ENDBRANCH   1  11
TORSDOF 4
ENDMDL
MODEL 8
REMARK VINA RESULT:      -6.8      1.092      1.689
REMARK  Name = 
REMARK  6 active torsions:
REMARK  status: ('A' for Active; 'I' for Inactive)
REMARK    1  A    between atoms: C_1  and  C_2
REMARK    2  A    between atoms: N_6  and  C_7
REMARK    3  A    between atoms: C_7  and  C_8
REMARK    4  A    between atoms: C_8  and  C_9
REMARK    5  A    between atoms: C_9  and  N_10
REMARK    6  A    between atoms: C_14  and  C_15
REMARK                            x       y       z     vdW  Elec       q    Type
REMARK                         _______ _______ _______ _____ _____    ______ ____
ROOT
ATOM      1  C   UNL     1       6.140   5.124  18.968  0.00  0.00    +0.000 C 
ENDROOT
BRANCH   1   7
ATOM      2  C   UNL     1       7.242   4.900  12.704  0.00  0.00    +0.000 C 
ATOM      3  C   UNL     1       6.951   4.644  14.134  0.00  0.00    +0.000 A 
ATOM      4  C   UNL     1       7.643   5.255  15.156  0.00  0.00    +0.000 A 
ATOM      5  N   UNL     1       7.381   5.055  16.458  0.00  0.00    +0.000 NA
ATOM      6  C   UNL     1       6.392   4.206  16.762  0.00  0.00    +0.000 A 
ATOM      7  N   UNL     1       6.064   3.969  18.084  0.00  0.00    +0.000 N 
ATOM      8  N   UNL     1       5.670   3.543  15.849  0.00  0.00    +0.000 NA
ATOM      9  C   UNL     1       5.968   3.778  14.556  0.00  0.00    +0.000 A 
ATOM     10  H   UNL     1       5.193   3.459  18.070  0.00  0.00    +0.000 HD
ENDBRANCH   1   7
BRANCH   1  11
ATOM     11  C   UNL     1       4.773   5.761  19.251  0.00  0.00    +0.000 C 
BRANCH  11  12
ATOM     12  C   UNL     1       3.751   4.730  19.751  0.00  0.00    +0.000 C 
BRANCH  12  13
ATOM     13  N   UNL     1       2.355   5.070  19.453  0.00  0.00    +0.000 NA
ATOM     14  C   UNL     1       1.398   4.709  20.500  0.00  0.00    +0.000 C 
ATOM     15  C   UNL     1       1.136   3.210  20.616  0.00  0.00    +0.000 C 
ATOM     16  C   UNL     1       0.798   2.544  19.283  0.00  0.00    +0.000 C 
ATOM     17  C   UNL     1       1.609   3.040  18.075  0.00  0.00    +0.000 C 
ATOM     18  C   UNL     1       2.851   2.193  17.778  0.00  0.00    +0.000 C 
ATOM     19  C   UNL     1       1.897   4.552  18.153  0.00  0.00    +0.000 C 
ENDBRANCH  12  13
ENDBRANCH  11  12
ENDBRANCH   1  11
TORSDOF 4
ENDMDL
MODEL 9
REMARK VINA RESULT:      -6.8      2.102      3.944
REMARK  Name = 
REMARK  6 active torsions:
REMARK  status: ('A' for Active; 'I' for Inactive)
REMARK    1  A    between atoms: C_1  and  C_2
REMARK    2  A    between atoms: N_6  and  C_7
REMARK    3  A    between atoms: C_7  and  C_8
REMARK    4  A    between atoms: C_8  and  C_9
REMARK    5  A    between atoms: C_9  and  N_10
REMARK    6  A    between atoms: C_14  and  C_15
REMARK                            x       y       z     vdW  Elec       q    Type
REMARK                         _______ _______ _______ _____ _____    ______ ____
ROOT
ATOM      1  C   UNL     1       5.658   3.916  16.459  0.00  0.00    +0.000 C 
ENDROOT
BRANCH   1   7
ATOM      2  C   UNL     1       8.495   9.356  18.153  0.00  0.00    +0.000 C 
ATOM      3  C   UNL     1       7.852   8.024  18.062  0.00  0.00    +0.000 A 
ATOM      4  C   UNL     1       6.743   7.783  17.281  0.00  0.00    +0.000 A 
ATOM      5  N   UNL     1       6.158   6.580  17.167  0.00  0.00    +0.000 NA
ATOM      6  C   UNL     1       6.693   5.569  17.863  0.00  0.00    +0.000 A 
ATOM      7  N   UNL     1       6.147   4.302  17.776  0.00  0.00    +0.000 N 
ATOM      8  N   UNL     1       7.756   5.696  18.668  0.00  0.00    +0.000 NA
ATOM      9  C   UNL     1       8.310   6.922  18.748  0.00  0.00    +0.000 A 
ATOM     10  H   UNL     1       6.805   3.680  18.220  0.00  0.00    +0.000 HD
ENDBRANCH   1   7
BRANCH   1  11
ATOM     11  C   UNL     1       4.156   3.606  16.438  0.00  0.00    +0.000 C 
BRANCH  11  12
ATOM     12  C   UNL     1       3.468   4.008  17.751  0.00  0.00    +0.000 C 
BRANCH  12  13
ATOM     13  N   UNL     1       3.394   2.933  18.747  0.00  0.00    +0.000 NA
ATOM     14  C   UNL     1       2.288   1.994  18.557  0.00  0.00    +0.000 C 
ATOM     15  C   UNL     1       0.916   2.569  18.896  0.00  0.00    +0.000 C 
ATOM     16  C   UNL     1       0.858   3.244  20.265  0.00  0.00    +0.000 C 
ATOM     17  C   UNL     1       2.097   4.071  20.644  0.00  0.00    +0.000 C 
ATOM     18  C   UNL     1       1.973   5.559  20.300  0.00  0.00    +0.000 C 
ATOM     19  C   UNL     1       3.401   3.427  20.135  0.00  0.00    +0.000 C 
ENDBRANCH  12  13
ENDBRANCH  11  12
ENDBRANCH   1  11
TORSDOF 4
ENDMDL
