MODEL 1
REMARK VINA RESULT:      -7.5      0.000      0.000
REMARK  Name = 
REMARK  9 active torsions:
REMARK  status: ('A' for Active; 'I' for Inactive)
REMARK    1  A    between atoms: C_1  and  C_2
REMARK    2  A    between atoms: C_2  and  N_3
REMARK    3  A    between atoms: C_12  and  C_13
REMARK    4  A    between atoms: C_17  and  O_18
REMARK    5  A    between atoms: O_18  and  C_19
REMARK    6  A    between atoms: C_20  and  O_21
REMARK    7  A    between atoms: O_21  and  C_22
REMARK    8  A    between atoms: C_24  and  C_25
REMARK    9  A    between atoms: C_27  and  N_28
REMARK                            x       y       z     vdW  Elec       q    Type
REMARK                         _______ _______ _______ _____ _____    ______ ____
ROOT
ATOM      1  N   UNL     1       2.196   6.084  19.908  0.00  0.00    +0.000 N 
ATOM      2  C   UNL     1       2.960   6.066  18.770  0.00  0.00    +0.000 A 
ATOM      3  C   UNL     1       2.937   7.331  18.228  0.00  0.00    +0.000 A 
ATOM      4  C   UNL     1       2.121   8.150  19.057  0.00  0.00    +0.000 A 
ATOM      5  C   UNL     1       1.715   9.501  19.013  0.00  0.00    +0.000 A 
ATOM      6  C   UNL     1       0.808   9.966  19.980  0.00  0.00    +0.000 A 
ATOM      7  C   UNL     1       0.382   9.138  21.025  0.00  0.00    +0.000 A 
ATOM      8  C   UNL     1       0.813   7.820  21.109  0.00  0.00    +0.000 A 
ATOM      9  C   UNL     1       1.663   7.341  20.104  0.00  0.00    +0.000 A 
ATOM     10  C   UNL     1       0.234  11.351  19.838  0.00  0.00    +0.000 C 
ATOM     11  C   UNL     1       1.089  12.218  18.965  0.00  0.00    +0.000 C 
ATOM     12  C   UNL     1       2.012  11.710  18.130  0.00  0.00    +0.000 C 
ATOM     13  O   UNL     1       2.190  10.329  18.009  0.00  0.00    +0.000 OA
ENDROOT
BRANCH  10  14
ATOM     14  C   UNL     1      -1.203  11.310  19.331  0.00  0.00    +0.000 A 
ATOM     15  C   UNL     1      -2.210  12.049  19.961  0.00  0.00    +0.000 A 
ATOM     16  C   UNL     1      -3.516  12.011  19.481  0.00  0.00    +0.000 A 
ATOM     17 BR   UNL     1      -4.805  13.054  20.422  0.00  0.00    +0.000 Br
ATOM     18  C   UNL     1      -3.859  11.242  18.355  0.00  0.00    +0.000 A 
ATOM     19  C   UNL     1      -2.850  10.489  17.715  0.00  0.00    +0.000 A 
ATOM     20  C   UNL     1      -1.538  10.530  18.216  0.00  0.00    +0.000 A 
BRANCH  18  21
ATOM     21  O   UNL     1      -5.183  11.320  18.009  0.00  0.00    +0.000 OA
ATOM     22  C   UNL     1      -5.618  12.303  17.087  0.00  0.00    +0.000 C 
ENDBRANCH  18  21
BRANCH  19  23
ATOM     23  O   UNL     1      -3.188   9.743  16.616  0.00  0.00    +0.000 OA
ATOM     24  C   UNL     1      -2.984  10.294  15.321  0.00  0.00    +0.000 C 
ENDBRANCH  19  23
ENDBRANCH  10  14
BRANCH  12  25
ATOM     25  N   UNL     1       2.844  12.449  17.323  0.00  0.00    +0.000 N 
ATOM     26  H   UNL     1       2.409  13.221  16.824  0.00  0.00    +0.000 HD
ATOM     27  H   UNL     1       3.425  11.862  16.729  0.00  0.00    +0.000 HD
ENDBRANCH  12  25
BRANCH   1  29
ATOM     28  C   UNL     1       1.016   3.933  20.150  0.00  0.00    +0.000 C 
ATOM     29  C   UNL     1       1.969   4.938  20.772  0.00  0.00    +0.000 C 
ENDBRANCH   1  29
BRANCH  11  30
ATOM     30  C   UNL     1       0.932  13.711  19.209  0.00  0.00    +0.000 C 
ATOM     31  N   UNL     1       0.801  14.948  19.411  0.00  0.00    +0.000 NA
ENDBRANCH  11  30
TORSDOF 6
ENDMDL
MODEL 2
REMARK VINA RESULT:      -7.2      1.372      2.206
REMARK  Name = 
REMARK  9 active torsions:
REMARK  status: ('A' for Active; 'I' for Inactive)
REMARK    1  A    between atoms: C_1  and  C_2
REMARK    2  A    between atoms: C_2  and  N_3
REMARK    3  A    between atoms: C_12  and  C_13
REMARK    4  A    between atoms: C_17  and  O_18
REMARK    5  A    between atoms: O_18  and  C_19
REMARK    6  A    between atoms: C_20  and  O_21
REMARK    7  A    between atoms: O_21  and  C_22
REMARK    8  A    between atoms: C_24  and  C_25
REMARK    9  A    between atoms: C_27  and  N_28
REMARK                            x       y       z     vdW  Elec       q    Type
REMARK                         _______ _______ _______ _____ _____    ______ ____
ROOT
ATOM      1  N   UNL     1       1.994   6.398  19.980  0.00  0.00    +0.000 N 
ATOM      2  C   UNL     1       2.759   6.381  18.844  0.00  0.00    +0.000 A 
ATOM      3  C   UNL     1       2.765   7.653  18.320  0.00  0.00    +0.000 A 
ATOM      4  C   UNL     1       1.964   8.477  19.160  0.00  0.00    +0.000 A 
ATOM      5  C   UNL     1       1.587   9.837  19.136  0.00  0.00    +0.000 A 
ATOM      6  C   UNL     1       0.688  10.307  20.108  0.00  0.00    +0.000 A 
ATOM      7  C   UNL     1       0.242   9.473  21.139  0.00  0.00    +0.000 A 
ATOM      8  C   UNL     1       0.644   8.144  21.205  0.00  0.00    +0.000 A 
ATOM      9  C   UNL     1       1.487   7.662  20.194  0.00  0.00    +0.000 A 
ATOM     10  C   UNL     1       0.144  11.706  19.986  0.00  0.00    +0.000 C 
ATOM     11  C   UNL     1       1.019  12.568  19.127  0.00  0.00    +0.000 C 
ATOM     12  C   UNL     1       1.933  12.053  18.286  0.00  0.00    +0.000 C 
ATOM     13  O   UNL     1       2.082  10.670  18.145  0.00  0.00    +0.000 OA
ENDROOT
BRANCH  10  14
ATOM     14  C   UNL     1      -1.292  11.703  19.475  0.00  0.00    +0.000 A 
ATOM     15  C   UNL     1      -1.621  11.110  18.252  0.00  0.00    +0.000 A 
ATOM     16  C   UNL     1      -2.938  11.105  17.802  0.00  0.00    +0.000 A 
ATOM     17 BR   UNL     1      -3.266  10.274  16.118  0.00  0.00    +0.000 Br
ATOM     18  C   UNL     1      -3.970  11.685  18.560  0.00  0.00    +0.000 A 
ATOM     19  C   UNL     1      -3.648  12.290  19.795  0.00  0.00    +0.000 A 
ATOM     20  C   UNL     1      -2.314  12.295  20.232  0.00  0.00    +0.000 A 
BRANCH  18  21
ATOM     21  O   UNL     1      -5.209  11.589  17.980  0.00  0.00    +0.000 OA
ATOM     22  C   UNL     1      -6.176  10.702  18.514  0.00  0.00    +0.000 C 
ENDBRANCH  18  21
BRANCH  19  23
ATOM     23  O   UNL     1      -4.659  12.851  20.531  0.00  0.00    +0.000 OA
ATOM     24  C   UNL     1      -4.503  12.965  21.940  0.00  0.00    +0.000 C 
ENDBRANCH  19  23
ENDBRANCH  10  14
BRANCH  12  25
ATOM     25  N   UNL     1       2.783  12.786  17.493  0.00  0.00    +0.000 N 
ATOM     26  H   UNL     1       2.691  13.796  17.557  0.00  0.00    +0.000 HD
ATOM     27  H   UNL     1       2.805  12.444  16.534  0.00  0.00    +0.000 HD
ENDBRANCH  12  25
BRANCH   1  29
ATOM     28  C   UNL     1       1.100   4.100  20.059  0.00  0.00    +0.000 C 
ATOM     29  C   UNL     1       1.739   5.244  20.827  0.00  0.00    +0.000 C 
ENDBRANCH   1  29
BRANCH  11  30
ATOM     30  C   UNL     1       0.894  14.059  19.393  0.00  0.00    +0.000 C 
ATOM     31  N   UNL     1       0.789  15.296  19.614  0.00  0.00    +0.000 NA
ENDBRANCH  11  30
TORSDOF 6
ENDMDL
MODEL 3
REMARK VINA RESULT:      -6.5      1.248      1.433
REMARK  Name = 
REMARK  9 active torsions:
REMARK  status: ('A' for Active; 'I' for Inactive)
REMARK    1  A    between atoms: C_1  and  C_2
REMARK    2  A    between atoms: C_2  and  N_3
REMARK    3  A    between atoms: C_12  and  C_13
REMARK    4  A    between atoms: C_17  and  O_18
REMARK    5  A    between atoms: O_18  and  C_19
REMARK    6  A    between atoms: C_20  and  O_21
REMARK    7  A    between atoms: O_21  and  C_22
REMARK    8  A    between atoms: C_24  and  C_25
REMARK    9  A    between atoms: C_27  and  N_28
REMARK                            x       y       z     vdW  Elec       q    Type
REMARK                         _______ _______ _______ _____ _____    ______ ____
ROOT
ATOM      1  N   UNL     1       1.968   6.592  19.888  0.00  0.00    +0.000 N 
ATOM      2  C   UNL     1       2.429   6.584  18.598  0.00  0.00    +0.000 A 
ATOM      3  C   UNL     1       2.386   7.876  18.127  0.00  0.00    +0.000 A 
ATOM      4  C   UNL     1       1.869   8.704  19.162  0.00  0.00    +0.000 A 
ATOM      5  C   UNL     1       1.583  10.082  19.271  0.00  0.00    +0.000 A 
ATOM      6  C   UNL     1       0.981  10.557  20.448  0.00  0.00    +0.000 A 
ATOM      7  C   UNL     1       0.750   9.703  21.533  0.00  0.00    +0.000 A 
ATOM      8  C   UNL     1       1.072   8.353  21.459  0.00  0.00    +0.000 A 
ATOM      9  C   UNL     1       1.609   7.872  20.257  0.00  0.00    +0.000 A 
ATOM     10  C   UNL     1       0.512  11.986  20.505  0.00  0.00    +0.000 C 
ATOM     11  C   UNL     1       1.203  12.837  19.483  0.00  0.00    +0.000 C 
ATOM     12  C   UNL     1       1.849  12.311  18.427  0.00  0.00    +0.000 C 
ATOM     13  O   UNL     1       1.872  10.930  18.214  0.00  0.00    +0.000 OA
ENDROOT
BRANCH  10  14
ATOM     14  C   UNL     1      -1.002  12.083  20.366  0.00  0.00    +0.000 A 
ATOM     15  C   UNL     1      -1.802  12.464  21.447  0.00  0.00    +0.000 A 
ATOM     16  C   UNL     1      -3.184  12.559  21.304  0.00  0.00    +0.000 A 
ATOM     17 BR   UNL     1      -4.172  13.082  22.847  0.00  0.00    +0.000 Br
ATOM     18  C   UNL     1      -3.811  12.284  20.076  0.00  0.00    +0.000 A 
ATOM     19  C   UNL     1      -3.011  11.895  18.978  0.00  0.00    +0.000 A 
ATOM     20  C   UNL     1      -1.620  11.794  19.141  0.00  0.00    +0.000 A 
BRANCH  18  21
ATOM     21  O   UNL     1      -5.174  12.431  20.100  0.00  0.00    +0.000 OA
ATOM     22  C   UNL     1      -5.772  13.592  19.552  0.00  0.00    +0.000 C 
ENDBRANCH  18  21
BRANCH  19  23
ATOM     23  O   UNL     1      -3.627  11.630  17.782  0.00  0.00    +0.000 OA
ATOM     24  C   UNL     1      -3.513  10.328  17.222  0.00  0.00    +0.000 C 
ENDBRANCH  19  23
ENDBRANCH  10  14
BRANCH  12  25
ATOM     25  N   UNL     1       2.523  13.031  17.470  0.00  0.00    +0.000 N 
ATOM     26  H   UNL     1       2.690  14.011  17.686  0.00  0.00    +0.000 HD
ATOM     27  H   UNL     1       2.141  12.884  16.538  0.00  0.00    +0.000 HD
ENDBRANCH  12  25
BRANCH   1  29
ATOM     28  C   UNL     1       2.779   4.298  20.289  0.00  0.00    +0.000 C 
ATOM     29  C   UNL     1       1.857   5.418  20.737  0.00  0.00    +0.000 C 
ENDBRANCH   1  29
BRANCH  11  30
ATOM     30  C   UNL     1       1.240  14.320  19.815  0.00  0.00    +0.000 C 
ATOM     31  N   UNL     1       1.272  15.550  20.090  0.00  0.00    +0.000 NA
ENDBRANCH  11  30
TORSDOF 6
ENDMDL
MODEL 4
REMARK VINA RESULT:      -6.2      3.142      6.941
REMARK  Name = 
REMARK  9 active torsions:
REMARK  status: ('A' for Active; 'I' for Inactive)
REMARK    1  A    between atoms: C_1  and  C_2
REMARK    2  A    between atoms: C_2  and  N_3
REMARK    3  A    between atoms: C_12  and  C_13
REMARK    4  A    between atoms: C_17  and  O_18
REMARK    5  A    between atoms: O_18  and  C_19
REMARK    6  A    between atoms: C_20  and  O_21
REMARK    7  A    between atoms: O_21  and  C_22
REMARK    8  A    between atoms: C_24  and  C_25
REMARK    9  A    between atoms: C_27  and  N_28
REMARK                            x       y       z     vdW  Elec       q    Type
REMARK                         _______ _______ _______ _____ _____    ______ ____
ROOT
ATOM      1  N   UNL     1      -5.417  12.056  19.647  0.00  0.00    +0.000 N 
ATOM      2  C   UNL     1      -5.478  12.852  20.761  0.00  0.00    +0.000 A 
ATOM      3  C   UNL     1      -4.204  13.295  21.033  0.00  0.00    +0.000 A 
ATOM      4  C   UNL     1      -3.329  12.742  20.057  0.00  0.00    +0.000 A 
ATOM      5  C   UNL     1      -1.939  12.817  19.825  0.00  0.00    +0.000 A 
ATOM      6  C   UNL     1      -1.384  12.050  18.787  0.00  0.00    +0.000 A 
ATOM      7  C   UNL     1      -2.198  11.295  17.936  0.00  0.00    +0.000 A 
ATOM      8  C   UNL     1      -3.575  11.250  18.121  0.00  0.00    +0.000 A 
ATOM      9  C   UNL     1      -4.116  11.963  19.200  0.00  0.00    +0.000 A 
ATOM     10  C   UNL     1       0.114  11.986  18.644  0.00  0.00    +0.000 C 
ATOM     11  C   UNL     1       0.784  13.145  19.317  0.00  0.00    +0.000 C 
ATOM     12  C   UNL     1       0.159  13.903  20.235  0.00  0.00    +0.000 C 
ATOM     13  O   UNL     1      -1.149  13.616  20.635  0.00  0.00    +0.000 OA
ENDROOT
BRANCH  10  14
ATOM     14  C   UNL     1       0.667  10.661  19.155  0.00  0.00    +0.000 A 
ATOM     15  C   UNL     1       1.441   9.838  18.330  0.00  0.00    +0.000 A 
ATOM     16  C   UNL     1       1.949   8.635  18.812  0.00  0.00    +0.000 A 
ATOM     17 BR   UNL     1       2.985   7.594  17.597  0.00  0.00    +0.000 Br
ATOM     18  C   UNL     1       1.708   8.217  20.133  0.00  0.00    +0.000 A 
ATOM     19  C   UNL     1       0.924   9.040  20.972  0.00  0.00    +0.000 A 
ATOM     20  C   UNL     1       0.410  10.246  20.469  0.00  0.00    +0.000 A 
BRANCH  18  21
ATOM     21  O   UNL     1       2.285   7.015  20.451  0.00  0.00    +0.000 OA
ATOM     22  C   UNL     1       1.495   5.841  20.506  0.00  0.00    +0.000 C 
ENDBRANCH  18  21
BRANCH  19  23
ATOM     23  O   UNL     1       0.695   8.629  22.260  0.00  0.00    +0.000 OA
ATOM     24  C   UNL     1       0.018   9.506  23.151  0.00  0.00    +0.000 C 
ENDBRANCH  19  23
ENDBRANCH  10  14
BRANCH  12  25
ATOM     25  N   UNL     1       0.707  14.993  20.870  0.00  0.00    +0.000 N 
ATOM     26  H   UNL     1       1.668  15.214  20.624  0.00  0.00    +0.000 HD
ATOM     27  H   UNL     1       0.541  14.977  21.874  0.00  0.00    +0.000 HD
ENDBRANCH  12  25
BRANCH   1  29
ATOM     28  C   UNL     1      -7.149  12.206  17.898  0.00  0.00    +0.000 C 
ATOM     29  C   UNL     1      -6.557  11.393  19.037  0.00  0.00    +0.000 C 
ENDBRANCH   1  29
BRANCH  11  30
ATOM     30  C   UNL     1       2.163  13.481  18.773  0.00  0.00    +0.000 C 
ATOM     31  N   UNL     1       3.307  13.759  18.321  0.00  0.00    +0.000 NA
ENDBRANCH  11  30
TORSDOF 6
ENDMDL
MODEL 5
REMARK VINA RESULT:      -6.2      2.576      3.638
REMARK  Name = 
REMARK  9 active torsions:
REMARK  status: ('A' for Active; 'I' for Inactive)
REMARK    1  A    between atoms: C_1  and  C_2
REMARK    2  A    between atoms: C_2  and  N_3
REMARK    3  A    between atoms: C_12  and  C_13
REMARK    4  A    between atoms: C_17  and  O_18
REMARK    5  A    between atoms: O_18  and  C_19
REMARK    6  A    between atoms: C_20  and  O_21
REMARK    7  A    between atoms: O_21  and  C_22
REMARK    8  A    between atoms: C_24  and  C_25
REMARK    9  A    between atoms: C_27  and  N_28
REMARK                            x       y       z     vdW  Elec       q    Type
REMARK                         _______ _______ _______ _____ _____    ______ ____
ROOT
ATOM      1  N   UNL     1       1.147   8.893  20.174  0.00  0.00    +0.000 N 
ATOM      2  C   UNL     1       1.545   9.201  18.900  0.00  0.00    +0.000 A 
ATOM      3  C   UNL     1       1.076  10.461  18.605  0.00  0.00    +0.000 A 
ATOM      4  C   UNL     1       0.354  10.936  19.736  0.00  0.00    +0.000 A 
ATOM      5  C   UNL     1      -0.354  12.123  20.024  0.00  0.00    +0.000 A 
ATOM      6  C   UNL     1      -1.038  12.221  21.247  0.00  0.00    +0.000 A 
ATOM      7  C   UNL     1      -0.949  11.205  22.205  0.00  0.00    +0.000 A 
ATOM      8  C   UNL     1      -0.215  10.052  21.955  0.00  0.00    +0.000 A 
ATOM      9  C   UNL     1       0.410   9.929  20.706  0.00  0.00    +0.000 A 
ATOM     10  C   UNL     1      -1.938  13.404  21.489  0.00  0.00    +0.000 C 
ATOM     11  C   UNL     1      -1.589  14.557  20.598  0.00  0.00    +0.000 C 
ATOM     12  C   UNL     1      -0.842  14.408  19.489  0.00  0.00    +0.000 C 
ATOM     13  O   UNL     1      -0.386  13.148  19.093  0.00  0.00    +0.000 OA
ENDROOT
BRANCH  10  14
ATOM     14  C   UNL     1      -3.407  13.026  21.346  0.00  0.00    +0.000 A 
ATOM     15  C   UNL     1      -4.277  13.089  22.440  0.00  0.00    +0.000 A 
ATOM     16  C   UNL     1      -5.619  12.751  22.293  0.00  0.00    +0.000 A 
ATOM     17 BR   UNL     1      -6.708  12.869  23.853  0.00  0.00    +0.000 Br
ATOM     18  C   UNL     1      -6.139  12.346  21.051  0.00  0.00    +0.000 A 
ATOM     19  C   UNL     1      -5.268  12.276  19.941  0.00  0.00    +0.000 A 
ATOM     20  C   UNL     1      -3.914  12.611  20.106  0.00  0.00    +0.000 A 
BRANCH  18  21
ATOM     21  O   UNL     1      -7.479  12.057  21.075  0.00  0.00    +0.000 OA
ATOM     22  C   UNL     1      -7.915  10.710  21.044  0.00  0.00    +0.000 C 
ENDBRANCH  18  21
BRANCH  19  23
ATOM     23  O   UNL     1      -5.781  11.884  18.732  0.00  0.00    +0.000 OA
ATOM     24  C   UNL     1      -4.905  11.771  17.617  0.00  0.00    +0.000 C 
ENDBRANCH  19  23
ENDBRANCH  10  14
BRANCH  12  25
ATOM     25  N   UNL     1      -0.466  15.425  18.645  0.00  0.00    +0.000 N 
ATOM     26  H   UNL     1      -1.042  15.552  17.816  0.00  0.00    +0.000 HD
ATOM     27  H   UNL     1       0.531  15.408  18.443  0.00  0.00    +0.000 HD
ENDBRANCH  12  25
BRANCH   1  29
ATOM     28  C   UNL     1       2.230   6.685  19.980  0.00  0.00    +0.000 C 
ATOM     29  C   UNL     1       1.445   7.645  20.857  0.00  0.00    +0.000 C 
ENDBRANCH   1  29
BRANCH  11  30
ATOM     30  C   UNL     1      -2.017  15.916  21.126  0.00  0.00    +0.000 C 
ATOM     31  N   UNL     1      -2.373  17.044  21.564  0.00  0.00    +0.000 NA
ENDBRANCH  11  30
TORSDOF 6
ENDMDL
MODEL 6
REMARK VINA RESULT:      -6.2      2.912      4.274
REMARK  Name = 
REMARK  9 active torsions:
REMARK  status: ('A' for Active; 'I' for Inactive)
REMARK    1  A    between atoms: C_1  and  C_2
REMARK    2  A    between atoms: C_2  and  N_3
REMARK    3  A    between atoms: C_12  and  C_13
REMARK    4  A    between atoms: C_17  and  O_18
REMARK    5  A    between atoms: O_18  and  C_19
REMARK    6  A    between atoms: C_20  and  O_21
REMARK    7  A    between atoms: O_21  and  C_22
REMARK    8  A    between atoms: C_24  and  C_25
REMARK    9  A    between atoms: C_27  and  N_28
REMARK                            x       y       z     vdW  Elec       q    Type
REMARK                         _______ _______ _______ _____ _____    ______ ____
ROOT
ATOM      1  N   UNL     1       1.139   8.872  20.176  0.00  0.00    +0.000 N 
ATOM      2  C   UNL     1       1.548   9.188  18.907  0.00  0.00    +0.000 A 
ATOM      3  C   UNL     1       1.078  10.448  18.614  0.00  0.00    +0.000 A 
ATOM      4  C   UNL     1       0.345  10.916  19.741  0.00  0.00    +0.000 A 
ATOM      5  C   UNL     1      -0.368  12.100  20.030  0.00  0.00    +0.000 A 
ATOM      6  C   UNL     1      -1.063  12.190  21.248  0.00  0.00    +0.000 A 
ATOM      7  C   UNL     1      -0.980  11.169  22.201  0.00  0.00    +0.000 A 
ATOM      8  C   UNL     1      -0.240  10.019  21.951  0.00  0.00    +0.000 A 
ATOM      9  C   UNL     1       0.395   9.905  20.707  0.00  0.00    +0.000 A 
ATOM     10  C   UNL     1      -1.967  13.369  21.488  0.00  0.00    +0.000 C 
ATOM     11  C   UNL     1      -1.614  14.528  20.606  0.00  0.00    +0.000 C 
ATOM     12  C   UNL     1      -0.857  14.387  19.503  0.00  0.00    +0.000 C 
ATOM     13  O   UNL     1      -0.394  13.130  19.104  0.00  0.00    +0.000 OA
ENDROOT
BRANCH  10  14
ATOM     14  C   UNL     1      -3.435  12.989  21.330  0.00  0.00    +0.000 A 
ATOM     15  C   UNL     1      -3.982  12.737  20.068  0.00  0.00    +0.000 A 
ATOM     16  C   UNL     1      -5.321  12.380  19.938  0.00  0.00    +0.000 A 
ATOM     17 BR   UNL     1      -5.958  12.067  18.169  0.00  0.00    +0.000 Br
ATOM     18  C   UNL     1      -6.156  12.256  21.063  0.00  0.00    +0.000 A 
ATOM     19  C   UNL     1      -5.613  12.510  22.342  0.00  0.00    +0.000 A 
ATOM     20  C   UNL     1      -4.263  12.879  22.457  0.00  0.00    +0.000 A 
BRANCH  18  21
ATOM     21  O   UNL     1      -7.443  11.890  20.764  0.00  0.00    +0.000 OA
ATOM     22  C   UNL     1      -7.854  10.544  20.929  0.00  0.00    +0.000 C 
ENDBRANCH  18  21
BRANCH  19  23
ATOM     23  O   UNL     1      -6.430  12.384  23.436  0.00  0.00    +0.000 OA
ATOM     24  C   UNL     1      -7.149  13.523  23.892  0.00  0.00    +0.000 C 
ENDBRANCH  19  23
ENDBRANCH  10  14
BRANCH  12  25
ATOM     25  N   UNL     1      -0.476  15.409  18.667  0.00  0.00    +0.000 N 
ATOM     26  H   UNL     1      -0.536  16.347  19.055  0.00  0.00    +0.000 HD
ATOM     27  H   UNL     1      -0.896  15.328  17.743  0.00  0.00    +0.000 HD
ENDBRANCH  12  25
BRANCH   1  29
ATOM     28  C   UNL     1       2.195   6.654  19.967  0.00  0.00    +0.000 C 
ATOM     29  C   UNL     1       1.434   7.622  20.855  0.00  0.00    +0.000 C 
ENDBRANCH   1  29
BRANCH  11  30
ATOM     30  C   UNL     1      -2.050  15.883  21.137  0.00  0.00    +0.000 C 
ATOM     31  N   UNL     1      -2.412  17.008  21.578  0.00  0.00    +0.000 NA
ENDBRANCH  11  30
TORSDOF 6
ENDMDL
MODEL 7
REMARK VINA RESULT:      -6.1      2.263      3.504
REMARK  Name = 
REMARK  9 active torsions:
REMARK  status: ('A' for Active; 'I' for Inactive)
REMARK    1  A    between atoms: C_1  and  C_2
REMARK    2  A    between atoms: C_2  and  N_3
REMARK    3  A    between atoms: C_12  and  C_13
REMARK    4  A    between atoms: C_17  and  O_18
REMARK    5  A    between atoms: O_18  and  C_19
REMARK    6  A    between atoms: C_20  and  O_21
REMARK    7  A    between atoms: O_21  and  C_22
REMARK    8  A    between atoms: C_24  and  C_25
REMARK    9  A    between atoms: C_27  and  N_28
REMARK                            x       y       z     vdW  Elec       q    Type
REMARK                         _______ _______ _______ _____ _____    ______ ____
ROOT
ATOM      1  N   UNL     1       1.690   8.287  19.471  0.00  0.00    +0.000 N 
ATOM      2  C   UNL     1       2.199   8.678  18.261  0.00  0.00    +0.000 A 
ATOM      3  C   UNL     1       1.842   9.992  18.059  0.00  0.00    +0.000 A 
ATOM      4  C   UNL     1       1.077  10.417  19.181  0.00  0.00    +0.000 A 
ATOM      5  C   UNL     1       0.437  11.624  19.537  0.00  0.00    +0.000 A 
ATOM      6  C   UNL     1      -0.323  11.663  20.717  0.00  0.00    +0.000 A 
ATOM      7  C   UNL     1      -0.375  10.560  21.577  0.00  0.00    +0.000 A 
ATOM      8  C   UNL     1       0.291   9.381  21.265  0.00  0.00    +0.000 A 
ATOM      9  C   UNL     1       0.993   9.325  20.052  0.00  0.00    +0.000 A 
ATOM     10  C   UNL     1      -1.151  12.885  21.014  0.00  0.00    +0.000 C 
ATOM     11  C   UNL     1      -0.659  14.084  20.262  0.00  0.00    +0.000 C 
ATOM     12  C   UNL     1       0.152  13.980  19.194  0.00  0.00    +0.000 C 
ATOM     13  O   UNL     1       0.545  12.729  18.709  0.00  0.00    +0.000 OA
ENDROOT
BRANCH  10  14
ATOM     14  C   UNL     1      -2.630  12.637  20.742  0.00  0.00    +0.000 A 
ATOM     15  C   UNL     1      -3.080  12.303  19.460  0.00  0.00    +0.000 A 
ATOM     16  C   UNL     1      -4.432  12.069  19.227  0.00  0.00    +0.000 A 
ATOM     17 BR   UNL     1      -4.930  11.627  17.441  0.00  0.00    +0.000 Br
ATOM     18  C   UNL     1      -5.378  12.153  20.264  0.00  0.00    +0.000 A 
ATOM     19  C   UNL     1      -4.933  12.492  21.561  0.00  0.00    +0.000 A 
ATOM     20  C   UNL     1      -3.568  12.735  21.780  0.00  0.00    +0.000 A 
BRANCH  18  21
ATOM     21  O   UNL     1      -6.664  11.885  19.870  0.00  0.00    +0.000 OA
ATOM     22  C   UNL     1      -7.249  10.630  20.163  0.00  0.00    +0.000 C 
ENDBRANCH  18  21
BRANCH  19  23
ATOM     23  O   UNL     1      -5.859  12.570  22.570  0.00  0.00    +0.000 OA
ATOM     24  C   UNL     1      -5.453  13.067  23.839  0.00  0.00    +0.000 C 
ENDBRANCH  19  23
ENDBRANCH  10  14
BRANCH  12  25
ATOM     25  N   UNL     1       0.659  15.037  18.477  0.00  0.00    +0.000 N 
ATOM     26  H   UNL     1       1.583  15.359  18.753  0.00  0.00    +0.000 HD
ATOM     27  H   UNL     1      -0.016  15.791  18.374  0.00  0.00    +0.000 HD
ENDBRANCH  12  25
BRANCH   1  29
ATOM     28  C   UNL     1       2.785   6.090  19.231  0.00  0.00    +0.000 C 
ATOM     29  C   UNL     1       1.849   6.963  20.049  0.00  0.00    +0.000 C 
ENDBRANCH   1  29
BRANCH  11  30
ATOM     30  C   UNL     1      -1.026  15.419  20.889  0.00  0.00    +0.000 C 
ATOM     31  N   UNL     1      -1.331  16.526  21.410  0.00  0.00    +0.000 NA
ENDBRANCH  11  30
TORSDOF 6
ENDMDL
MODEL 8
REMARK VINA RESULT:      -6.1      3.584      5.721
REMARK  Name = 
REMARK  9 active torsions:
REMARK  status: ('A' for Active; 'I' for Inactive)
REMARK    1  A    between atoms: C_1  and  C_2
REMARK    2  A    between atoms: C_2  and  N_3
REMARK    3  A    between atoms: C_12  and  C_13
REMARK    4  A    between atoms: C_17  and  O_18
REMARK    5  A    between atoms: O_18  and  C_19
REMARK    6  A    between atoms: C_20  and  O_21
REMARK    7  A    between atoms: O_21  and  C_22
REMARK    8  A    between atoms: C_24  and  C_25
REMARK    9  A    between atoms: C_27  and  N_28
REMARK                            x       y       z     vdW  Elec       q    Type
REMARK                         _______ _______ _______ _____ _____    ______ ____
ROOT
ATOM      1  N   UNL     1       2.300   6.978  19.130  0.00  0.00    +0.000 N 
ATOM      2  C   UNL     1       2.154   6.563  20.427  0.00  0.00    +0.000 A 
ATOM      3  C   UNL     1       1.568   7.588  21.134  0.00  0.00    +0.000 A 
ATOM      4  C   UNL     1       1.358   8.675  20.239  0.00  0.00    +0.000 A 
ATOM      5  C   UNL     1       0.822   9.973  20.375  0.00  0.00    +0.000 A 
ATOM      6  C   UNL     1       0.849  10.835  19.266  0.00  0.00    +0.000 A 
ATOM      7  C   UNL     1       1.313  10.393  18.022  0.00  0.00    +0.000 A 
ATOM      8  C   UNL     1       1.798   9.101  17.861  0.00  0.00    +0.000 A 
ATOM      9  C   UNL     1       1.832   8.267  18.987  0.00  0.00    +0.000 A 
ATOM     10  C   UNL     1       0.444  12.274  19.448  0.00  0.00    +0.000 C 
ATOM     11  C   UNL     1      -0.406  12.460  20.668  0.00  0.00    +0.000 C 
ATOM     12  C   UNL     1      -0.463  11.545  21.652  0.00  0.00    +0.000 C 
ATOM     13  O   UNL     1       0.309  10.381  21.596  0.00  0.00    +0.000 OA
ENDROOT
BRANCH  10  14
ATOM     14  C   UNL     1       1.657  13.196  19.479  0.00  0.00    +0.000 A 
ATOM     15  C   UNL     1       2.451  13.302  20.626  0.00  0.00    +0.000 A 
ATOM     16  C   UNL     1       3.563  14.140  20.638  0.00  0.00    +0.000 A 
ATOM     17 BR   UNL     1       4.567  14.209  22.257  0.00  0.00    +0.000 Br
ATOM     18  C   UNL     1       3.922  14.893  19.506  0.00  0.00    +0.000 A 
ATOM     19  C   UNL     1       3.125  14.794  18.344  0.00  0.00    +0.000 A 
ATOM     20  C   UNL     1       2.001  13.953  18.350  0.00  0.00    +0.000 A 
BRANCH  18  21
ATOM     21  O   UNL     1       5.046  15.660  19.680  0.00  0.00    +0.000 OA
ATOM     22  C   UNL     1       6.273  15.265  19.093  0.00  0.00    +0.000 C 
ENDBRANCH  18  21
BRANCH  19  23
ATOM     23  O   UNL     1       3.482  15.528  17.243  0.00  0.00    +0.000 OA
ATOM     24  C   UNL     1       2.977  16.850  17.103  0.00  0.00    +0.000 C 
ENDBRANCH  19  23
ENDBRANCH  10  14
BRANCH  12  25
ATOM     25  N   UNL     1      -1.239  11.642  22.782  0.00  0.00    +0.000 N 
ATOM     26  H   UNL     1      -0.760  11.487  23.665  0.00  0.00    +0.000 HD
ATOM     27  H   UNL     1      -2.108  11.119  22.698  0.00  0.00    +0.000 HD
ENDBRANCH  12  25
BRANCH   1  29
ATOM     28  C   UNL     1       2.139   4.870  17.859  0.00  0.00    +0.000 C 
ATOM     29  C   UNL     1       2.882   6.179  18.064  0.00  0.00    +0.000 C 
ENDBRANCH   1  29
BRANCH  11  30
ATOM     30  C   UNL     1      -1.303  13.686  20.633  0.00  0.00    +0.000 C 
ATOM     31  N   UNL     1      -2.048  14.703  20.603  0.00  0.00    +0.000 NA
ENDBRANCH  11  30
TORSDOF 6
ENDMDL
MODEL 9
REMARK VINA RESULT:      -6.0      3.531      5.917
REMARK  Name = 
REMARK  9 active torsions:
REMARK  status: ('A' for Active; 'I' for Inactive)
REMARK    1  A    between atoms: C_1  and  C_2
REMARK    2  A    between atoms: C_2  and  N_3
REMARK    3  A    between atoms: C_12  and  C_13
REMARK    4  A    between atoms: C_17  and  O_18
REMARK    5  A    between atoms: O_18  and  C_19
REMARK    6  A    between atoms: C_20  and  O_21
REMARK    7  A    between atoms: O_21  and  C_22
REMARK    8  A    between atoms: C_24  and  C_25
REMARK    9  A    between atoms: C_27  and  N_28
REMARK                            x       y       z     vdW  Elec       q    Type
REMARK                         _______ _______ _______ _____ _____    ______ ____
ROOT
ATOM      1  N   UNL     1       2.359   6.989  19.150  0.00  0.00    +0.000 N 
ATOM      2  C   UNL     1       2.127   6.500  20.408  0.00  0.00    +0.000 A 
ATOM      3  C   UNL     1       1.459   7.469  21.121  0.00  0.00    +0.000 A 
ATOM      4  C   UNL     1       1.287   8.598  20.271  0.00  0.00    +0.000 A 
ATOM      5  C   UNL     1       0.704   9.873  20.434  0.00  0.00    +0.000 A 
ATOM      6  C   UNL     1       0.790  10.796  19.378  0.00  0.00    +0.000 A 
ATOM      7  C   UNL     1       1.360  10.435  18.151  0.00  0.00    +0.000 A 
ATOM      8  C   UNL     1       1.893   9.166  17.960  0.00  0.00    +0.000 A 
ATOM      9  C   UNL     1       1.866   8.272  19.039  0.00  0.00    +0.000 A 
ATOM     10  C   UNL     1       0.331  12.211  19.603  0.00  0.00    +0.000 C 
ATOM     11  C   UNL     1      -0.614  12.309  20.762  0.00  0.00    +0.000 C 
ATOM     12  C   UNL     1      -0.719  11.340  21.688  0.00  0.00    +0.000 C 
ATOM     13  O   UNL     1       0.088  10.201  21.631  0.00  0.00    +0.000 OA
ENDROOT
BRANCH  10  14
ATOM     14  C   UNL     1       1.511  13.160  19.777  0.00  0.00    +0.000 A 
ATOM     15  C   UNL     1       1.958  13.955  18.717  0.00  0.00    +0.000 A 
ATOM     16  C   UNL     1       3.030  14.826  18.892  0.00  0.00    +0.000 A 
ATOM     17 BR   UNL     1       3.555  15.855  17.376  0.00  0.00    +0.000 Br
ATOM     18  C   UNL     1       3.686  14.936  20.131  0.00  0.00    +0.000 A 
ATOM     19  C   UNL     1       3.244  14.135  21.206  0.00  0.00    +0.000 A 
ATOM     20  C   UNL     1       2.167  13.255  21.013  0.00  0.00    +0.000 A 
BRANCH  18  21
ATOM     21  O   UNL     1       4.715  15.843  20.138  0.00  0.00    +0.000 OA
ATOM     22  C   UNL     1       4.518  17.136  20.680  0.00  0.00    +0.000 C 
ENDBRANCH  18  21
BRANCH  19  23
ATOM     23  O   UNL     1       3.885  14.249  22.413  0.00  0.00    +0.000 OA
ATOM     24  C   UNL     1       5.202  13.728  22.544  0.00  0.00    +0.000 C 
ENDBRANCH  19  23
ENDBRANCH  10  14
BRANCH  12  25
ATOM     25  N   UNL     1      -1.581  11.355  22.759  0.00  0.00    +0.000 N 
ATOM     26  H   UNL     1      -2.449  10.838  22.639  0.00  0.00    +0.000 HD
ATOM     27  H   UNL     1      -1.720  12.294  23.128  0.00  0.00    +0.000 HD
ENDBRANCH  12  25
BRANCH   1  29
ATOM     28  C   UNL     1       2.413   4.908  17.827  0.00  0.00    +0.000 C 
ATOM     29  C   UNL     1       3.043   6.265  18.091  0.00  0.00    +0.000 C 
ENDBRANCH   1  29
BRANCH  11  30
ATOM     30  C   UNL     1      -1.542  13.513  20.722  0.00  0.00    +0.000 C 
ATOM     31  N   UNL     1      -2.312  14.511  20.689  0.00  0.00    +0.000 NA
ENDBRANCH  11  30
TORSDOF 6
ENDMDL
