MODEL 1
REMARK VINA RESULT:      -6.5      0.000      0.000
REMARK  Name = 
REMARK  8 active torsions:
REMARK  status: ('A' for Active; 'I' for Inactive)
REMARK    1  A    between atoms: C_1  and  C_2
REMARK    2  A    between atoms: C_2  and  N_3
REMARK    3  A    between atoms: C_2  and  C_16
REMARK    4  A    between atoms: N_6  and  C_7
REMARK    5  A    between atoms: C_16  and  C_17
REMARK    6  A    between atoms: C_16  and  N_23
REMARK    7  A    between atoms: N_23  and  C_24
REMARK    8  A    between atoms: N_23  and  C_25
REMARK                            x       y       z     vdW  Elec       q    Type
REMARK                         _______ _______ _______ _____ _____    ______ ____
ROOT
ATOM      1  N   UNL     1      -2.409  12.949  19.500  0.00  0.00    +0.000 N 
ATOM      2  C   UNL     1      -3.544  12.733  20.240  0.00  0.00    +0.000 A 
ATOM      3  N   UNL     1      -3.561  12.951  21.524  0.00  0.00    +0.000 NA
ATOM      4  N   UNL     1      -4.721  12.745  22.223  0.00  0.00    +0.000 N 
ATOM      5  C   UNL     1      -4.678  13.067  23.633  0.00  0.00    +0.000 C 
ATOM      6  C   UNL     1      -5.926  12.350  21.654  0.00  0.00    +0.000 A 
ATOM      7  O   UNL     1      -6.970  12.196  22.281  0.00  0.00    +0.000 OA
ATOM      8  C   UNL     1      -5.924  12.111  20.212  0.00  0.00    +0.000 A 
ATOM      9  C   UNL     1      -7.074  11.753  19.507  0.00  0.00    +0.000 A 
ATOM     10  C   UNL     1      -7.000  11.573  18.126  0.00  0.00    +0.000 A 
ATOM     11  C   UNL     1      -5.769  11.742  17.505  0.00  0.00    +0.000 A 
ATOM     12  N   UNL     1      -4.633  12.073  18.161  0.00  0.00    +0.000 NA
ATOM     13  C   UNL     1      -4.755  12.266  19.508  0.00  0.00    +0.000 A 
ATOM     14  H   UNL     1      -2.345  12.382  18.655  0.00  0.00    +0.000 HD
ENDROOT
BRANCH   1  16
ATOM     15  C   UNL     1      -0.789  14.828  19.431  0.00  0.00    +0.000 C 
ATOM     16  C   UNL     1      -1.122  13.441  19.988  0.00  0.00    +0.000 C 
BRANCH  16  17
ATOM     17  C   UNL     1       0.021  12.372  19.677  0.00  0.00    +0.000 C 
BRANCH  17  18
ATOM     18  C   UNL     1       0.034  11.276  20.767  0.00  0.00    +0.000 A 
ATOM     19  C   UNL     1      -0.418  11.515  22.077  0.00  0.00    +0.000 A 
ATOM     20  C   UNL     1      -0.648  10.461  22.966  0.00  0.00    +0.000 A 
ATOM     21  C   UNL     1      -0.375   9.153  22.582  0.00  0.00    +0.000 A 
ATOM     22  C   UNL     1       0.165   8.904  21.324  0.00  0.00    +0.000 A 
ATOM     23  C   UNL     1       0.370   9.954  20.423  0.00  0.00    +0.000 A 
ENDBRANCH  17  18
BRANCH  17  24
ATOM     24  N   UNL     1       1.363  13.019  19.465  0.00  0.00    +0.000 NA
ATOM     25  C   UNL     1       2.139  13.063  20.712  0.00  0.00    +0.000 C 
ATOM     26  C   UNL     1       2.156  12.277  18.468  0.00  0.00    +0.000 C 
ENDBRANCH  17  24
ENDBRANCH  16  17
ENDBRANCH   1  16
TORSDOF 4
ENDMDL
MODEL 2
REMARK VINA RESULT:      -6.1      8.407     11.257
REMARK  Name = 
REMARK  8 active torsions:
REMARK  status: ('A' for Active; 'I' for Inactive)
REMARK    1  A    between atoms: C_1  and  C_2
REMARK    2  A    between atoms: C_2  and  N_3
REMARK    3  A    between atoms: C_2  and  C_16
REMARK    4  A    between atoms: N_6  and  C_7
REMARK    5  A    between atoms: C_16  and  C_17
REMARK    6  A    between atoms: C_16  and  N_23
REMARK    7  A    between atoms: N_23  and  C_24
REMARK    8  A    between atoms: N_23  and  C_25
REMARK                            x       y       z     vdW  Elec       q    Type
REMARK                         _______ _______ _______ _____ _____    ______ ____
ROOT
ATOM      1  N   UNL     1       4.787   5.361  17.016  0.00  0.00    +0.000 N 
ATOM      2  C   UNL     1       3.841   5.342  18.010  0.00  0.00    +0.000 A 
ATOM      3  N   UNL     1       3.424   6.444  18.563  0.00  0.00    +0.000 NA
ATOM      4  N   UNL     1       2.462   6.383  19.536  0.00  0.00    +0.000 N 
ATOM      5  C   UNL     1       2.006   7.654  20.058  0.00  0.00    +0.000 C 
ATOM      6  C   UNL     1       1.849   5.213  19.968  0.00  0.00    +0.000 A 
ATOM      7  O   UNL     1       0.966   5.168  20.819  0.00  0.00    +0.000 OA
ATOM      8  C   UNL     1       2.301   3.969  19.349  0.00  0.00    +0.000 A 
ATOM      9  C   UNL     1       1.740   2.728  19.657  0.00  0.00    +0.000 A 
ATOM     10  C   UNL     1       2.203   1.587  19.002  0.00  0.00    +0.000 A 
ATOM     11  C   UNL     1       3.226   1.732  18.073  0.00  0.00    +0.000 A 
ATOM     12  N   UNL     1       3.801   2.916  17.762  0.00  0.00    +0.000 NA
ATOM     13  C   UNL     1       3.300   4.012  18.408  0.00  0.00    +0.000 A 
ATOM     14  H   UNL     1       5.342   4.509  16.949  0.00  0.00    +0.000 HD
ENDROOT
BRANCH   1  16
ATOM     15  C   UNL     1       4.572   7.179  15.340  0.00  0.00    +0.000 C 
ATOM     16  C   UNL     1       5.429   6.540  16.437  0.00  0.00    +0.000 C 
BRANCH  16  17
ATOM     17  C   UNL     1       6.892   6.165  15.924  0.00  0.00    +0.000 C 
BRANCH  17  18
ATOM     18  C   UNL     1       6.803   5.157  14.756  0.00  0.00    +0.000 A 
ATOM     19  C   UNL     1       5.774   4.201  14.666  0.00  0.00    +0.000 A 
ATOM     20  C   UNL     1       5.555   3.483  13.488  0.00  0.00    +0.000 A 
ATOM     21  C   UNL     1       6.395   3.664  12.395  0.00  0.00    +0.000 A 
ATOM     22  C   UNL     1       7.478   4.533  12.495  0.00  0.00    +0.000 A 
ATOM     23  C   UNL     1       7.682   5.273  13.665  0.00  0.00    +0.000 A 
ENDBRANCH  17  18
BRANCH  17  24
ATOM     24  N   UNL     1       7.788   5.704  17.042  0.00  0.00    +0.000 NA
ATOM     25  C   UNL     1       7.642   6.557  18.230  0.00  0.00    +0.000 C 
ATOM     26  C   UNL     1       7.469   4.321  17.439  0.00  0.00    +0.000 C 
ENDBRANCH  17  24
ENDBRANCH  16  17
ENDBRANCH   1  16
TORSDOF 4
ENDMDL
MODEL 3
REMARK VINA RESULT:      -6.1      0.386      1.032
REMARK  Name = 
REMARK  8 active torsions:
REMARK  status: ('A' for Active; 'I' for Inactive)
REMARK    1  A    between atoms: C_1  and  C_2
REMARK    2  A    between atoms: C_2  and  N_3
REMARK    3  A    between atoms: C_2  and  C_16
REMARK    4  A    between atoms: N_6  and  C_7
REMARK    5  A    between atoms: C_16  and  C_17
REMARK    6  A    between atoms: C_16  and  N_23
REMARK    7  A    between atoms: N_23  and  C_24
REMARK    8  A    between atoms: N_23  and  C_25
REMARK                            x       y       z     vdW  Elec       q    Type
REMARK                         _______ _______ _______ _____ _____    ______ ____
ROOT
ATOM      1  N   UNL     1      -2.316  12.899  19.445  0.00  0.00    +0.000 N 
ATOM      2  C   UNL     1      -3.449  12.699  20.192  0.00  0.00    +0.000 A 
ATOM      3  N   UNL     1      -3.459  12.926  21.474  0.00  0.00    +0.000 NA
ATOM      4  N   UNL     1      -4.618  12.735  22.180  0.00  0.00    +0.000 N 
ATOM      5  C   UNL     1      -4.565  13.067  23.587  0.00  0.00    +0.000 C 
ATOM      6  C   UNL     1      -5.828  12.348  21.618  0.00  0.00    +0.000 A 
ATOM      7  O   UNL     1      -6.871  12.208  22.251  0.00  0.00    +0.000 OA
ATOM      8  C   UNL     1      -5.834  12.099  20.179  0.00  0.00    +0.000 A 
ATOM      9  C   UNL     1      -6.991  11.747  19.481  0.00  0.00    +0.000 A 
ATOM     10  C   UNL     1      -6.925  11.556  18.101  0.00  0.00    +0.000 A 
ATOM     11  C   UNL     1      -5.695  11.709  17.474  0.00  0.00    +0.000 A 
ATOM     12  N   UNL     1      -4.553  12.035  18.122  0.00  0.00    +0.000 NA
ATOM     13  C   UNL     1      -4.667  12.237  19.469  0.00  0.00    +0.000 A 
ATOM     14  H   UNL     1      -2.261  12.325  18.605  0.00  0.00    +0.000 HD
ENDROOT
BRANCH   1  16
ATOM     15  C   UNL     1      -0.756  14.829  19.498  0.00  0.00    +0.000 C 
ATOM     16  C   UNL     1      -1.021  13.382  19.925  0.00  0.00    +0.000 C 
BRANCH  16  17
ATOM     17  C   UNL     1       0.136  12.389  19.458  0.00  0.00    +0.000 C 
BRANCH  17  18
ATOM     18  C   UNL     1       0.159  11.137  20.363  0.00  0.00    +0.000 A 
ATOM     19  C   UNL     1       0.723   9.918  19.945  0.00  0.00    +0.000 A 
ATOM     20  C   UNL     1       0.975   8.888  20.854  0.00  0.00    +0.000 A 
ATOM     21  C   UNL     1       0.613   9.032  22.188  0.00  0.00    +0.000 A 
ATOM     22  C   UNL     1      -0.035  10.191  22.604  0.00  0.00    +0.000 A 
ATOM     23  C   UNL     1      -0.262  11.235  21.701  0.00  0.00    +0.000 A 
ENDBRANCH  17  18
BRANCH  17  24
ATOM     24  N   UNL     1       1.471  13.077  19.357  0.00  0.00    +0.000 NA
ATOM     25  C   UNL     1       2.184  13.052  20.641  0.00  0.00    +0.000 C 
ATOM     26  C   UNL     1       2.328  12.422  18.352  0.00  0.00    +0.000 C 
ENDBRANCH  17  24
ENDBRANCH  16  17
ENDBRANCH   1  16
TORSDOF 4
ENDMDL
MODEL 4
REMARK VINA RESULT:      -6.0      5.555      8.360
REMARK  Name = 
REMARK  8 active torsions:
REMARK  status: ('A' for Active; 'I' for Inactive)
REMARK    1  A    between atoms: C_1  and  C_2
REMARK    2  A    between atoms: C_2  and  N_3
REMARK    3  A    between atoms: C_2  and  C_16
REMARK    4  A    between atoms: N_6  and  C_7
REMARK    5  A    between atoms: C_16  and  C_17
REMARK    6  A    between atoms: C_16  and  N_23
REMARK    7  A    between atoms: N_23  and  C_24
REMARK    8  A    between atoms: N_23  and  C_25
REMARK                            x       y       z     vdW  Elec       q    Type
REMARK                         _______ _______ _______ _____ _____    ______ ____
ROOT
ATOM      1  N   UNL     1       1.987   7.184  19.856  0.00  0.00    +0.000 N 
ATOM      2  C   UNL     1       1.726   8.529  19.778  0.00  0.00    +0.000 A 
ATOM      3  N   UNL     1       2.139   9.237  18.766  0.00  0.00    +0.000 NA
ATOM      4  N   UNL     1       1.839  10.572  18.716  0.00  0.00    +0.000 N 
ATOM      5  C   UNL     1       2.280  11.277  17.531  0.00  0.00    +0.000 C 
ATOM      6  C   UNL     1       1.074  11.245  19.661  0.00  0.00    +0.000 A 
ATOM      7  O   UNL     1       0.782  12.436  19.595  0.00  0.00    +0.000 OA
ATOM      8  C   UNL     1       0.595  10.461  20.797  0.00  0.00    +0.000 A 
ATOM      9  C   UNL     1      -0.218  11.000  21.795  0.00  0.00    +0.000 A 
ATOM     10  C   UNL     1      -0.662  10.180  22.832  0.00  0.00    +0.000 A 
ATOM     11  C   UNL     1      -0.258   8.852  22.839  0.00  0.00    +0.000 A 
ATOM     12  N   UNL     1       0.541   8.301  21.897  0.00  0.00    +0.000 NA
ATOM     13  C   UNL     1       0.932   9.132  20.885  0.00  0.00    +0.000 A 
ATOM     14  H   UNL     1       2.017   6.816  20.806  0.00  0.00    +0.000 HD
ENDROOT
BRANCH   1  16
ATOM     15  C   UNL     1       1.760   5.713  17.869  0.00  0.00    +0.000 C 
ATOM     16  C   UNL     1       2.707   6.370  18.877  0.00  0.00    +0.000 C 
BRANCH  16  17
ATOM     17  C   UNL     1       3.628   5.306  19.628  0.00  0.00    +0.000 C 
BRANCH  17  18
ATOM     18  C   UNL     1       4.919   5.055  18.817  0.00  0.00    +0.000 A 
ATOM     19  C   UNL     1       4.893   4.606  17.484  0.00  0.00    +0.000 A 
ATOM     20  C   UNL     1       6.040   4.638  16.688  0.00  0.00    +0.000 A 
ATOM     21  C   UNL     1       7.250   5.064  17.224  0.00  0.00    +0.000 A 
ATOM     22  C   UNL     1       7.319   5.420  18.569  0.00  0.00    +0.000 A 
ATOM     23  C   UNL     1       6.165   5.415  19.360  0.00  0.00    +0.000 A 
ENDBRANCH  17  18
BRANCH  17  24
ATOM     24  N   UNL     1       2.881   4.045  19.967  0.00  0.00    +0.000 NA
ATOM     25  C   UNL     1       3.786   2.889  20.037  0.00  0.00    +0.000 C 
ATOM     26  C   UNL     1       2.202   4.166  21.270  0.00  0.00    +0.000 C 
ENDBRANCH  17  24
ENDBRANCH  16  17
ENDBRANCH   1  16
TORSDOF 4
ENDMDL
MODEL 5
REMARK VINA RESULT:      -6.0      5.273      8.384
REMARK  Name = 
REMARK  8 active torsions:
REMARK  status: ('A' for Active; 'I' for Inactive)
REMARK    1  A    between atoms: C_1  and  C_2
REMARK    2  A    between atoms: C_2  and  N_3
REMARK    3  A    between atoms: C_2  and  C_16
REMARK    4  A    between atoms: N_6  and  C_7
REMARK    5  A    between atoms: C_16  and  C_17
REMARK    6  A    between atoms: C_16  and  N_23
REMARK    7  A    between atoms: N_23  and  C_24
REMARK    8  A    between atoms: N_23  and  C_25
REMARK                            x       y       z     vdW  Elec       q    Type
REMARK                         _______ _______ _______ _____ _____    ______ ____
ROOT
ATOM      1  N   UNL     1       2.073   8.433  18.225  0.00  0.00    +0.000 N 
ATOM      2  C   UNL     1       2.581   7.227  18.637  0.00  0.00    +0.000 A 
ATOM      3  N   UNL     1       2.087   6.606  19.669  0.00  0.00    +0.000 NA
ATOM      4  N   UNL     1       2.608   5.392  20.034  0.00  0.00    +0.000 N 
ATOM      5  C   UNL     1       1.966   4.737  21.153  0.00  0.00    +0.000 C 
ATOM      6  C   UNL     1       3.621   4.731  19.350  0.00  0.00    +0.000 A 
ATOM      7  O   UNL     1       4.063   3.630  19.664  0.00  0.00    +0.000 OA
ATOM      8  C   UNL     1       4.178   5.412  18.183  0.00  0.00    +0.000 A 
ATOM      9  C   UNL     1       5.169   4.842  17.381  0.00  0.00    +0.000 A 
ATOM     10  C   UNL     1       5.628   5.540  16.264  0.00  0.00    +0.000 A 
ATOM     11  C   UNL     1       5.089   6.793  16.004  0.00  0.00    +0.000 A 
ATOM     12  N   UNL     1       4.140   7.380  16.768  0.00  0.00    +0.000 NA
ATOM     13  C   UNL     1       3.699   6.652  17.837  0.00  0.00    +0.000 A 
ATOM     14  H   UNL     1       2.740   9.021  17.727  0.00  0.00    +0.000 HD
ENDROOT
BRANCH   1  16
ATOM     15  C   UNL     1      -0.057   9.624  17.773  0.00  0.00    +0.000 C 
ATOM     16  C   UNL     1       0.959   9.167  18.824  0.00  0.00    +0.000 C 
BRANCH  16  17
ATOM     17  C   UNL     1       1.516  10.381  19.697  0.00  0.00    +0.000 C 
BRANCH  17  18
ATOM     18  C   UNL     1       0.746  10.469  21.035  0.00  0.00    +0.000 A 
ATOM     19  C   UNL     1      -0.300  11.387  21.240  0.00  0.00    +0.000 A 
ATOM     20  C   UNL     1      -1.152  11.278  22.341  0.00  0.00    +0.000 A 
ATOM     21  C   UNL     1      -0.940  10.285  23.291  0.00  0.00    +0.000 A 
ATOM     22  C   UNL     1       0.148   9.427  23.158  0.00  0.00    +0.000 A 
ATOM     23  C   UNL     1       0.986   9.517  22.042  0.00  0.00    +0.000 A 
ENDBRANCH  17  18
BRANCH  17  24
ATOM     24  N   UNL     1       1.530  11.675  18.930  0.00  0.00    +0.000 NA
ATOM     25  C   UNL     1       1.813  12.816  19.812  0.00  0.00    +0.000 C 
ATOM     26  C   UNL     1       2.560  11.654  17.876  0.00  0.00    +0.000 C 
ENDBRANCH  17  24
ENDBRANCH  16  17
ENDBRANCH   1  16
TORSDOF 4
ENDMDL
MODEL 6
REMARK VINA RESULT:      -6.0      2.163      3.471
REMARK  Name = 
REMARK  8 active torsions:
REMARK  status: ('A' for Active; 'I' for Inactive)
REMARK    1  A    between atoms: C_1  and  C_2
REMARK    2  A    between atoms: C_2  and  N_3
REMARK    3  A    between atoms: C_2  and  C_16
REMARK    4  A    between atoms: N_6  and  C_7
REMARK    5  A    between atoms: C_16  and  C_17
REMARK    6  A    between atoms: C_16  and  N_23
REMARK    7  A    between atoms: N_23  and  C_24
REMARK    8  A    between atoms: N_23  and  C_25
REMARK                            x       y       z     vdW  Elec       q    Type
REMARK                         _______ _______ _______ _____ _____    ______ ____
ROOT
ATOM      1  N   UNL     1      -1.835  13.002  20.191  0.00  0.00    +0.000 N 
ATOM      2  C   UNL     1      -3.005  12.517  19.663  0.00  0.00    +0.000 A 
ATOM      3  N   UNL     1      -4.160  12.963  20.065  0.00  0.00    +0.000 NA
ATOM      4  N   UNL     1      -5.304  12.468  19.496  0.00  0.00    +0.000 N 
ATOM      5  C   UNL     1      -6.545  13.057  19.952  0.00  0.00    +0.000 C 
ATOM      6  C   UNL     1      -5.334  11.533  18.469  0.00  0.00    +0.000 A 
ATOM      7  O   UNL     1      -6.361  11.115  17.943  0.00  0.00    +0.000 OA
ATOM      8  C   UNL     1      -4.044  11.030  18.001  0.00  0.00    +0.000 A 
ATOM      9  C   UNL     1      -3.927  10.122  16.948  0.00  0.00    +0.000 A 
ATOM     10  C   UNL     1      -2.659   9.713  16.536  0.00  0.00    +0.000 A 
ATOM     11  C   UNL     1      -1.554  10.217  17.210  0.00  0.00    +0.000 A 
ATOM     12  N   UNL     1      -1.633  11.086  18.244  0.00  0.00    +0.000 NA
ATOM     13  C   UNL     1      -2.892  11.482  18.598  0.00  0.00    +0.000 A 
ATOM     14  H   UNL     1      -1.055  12.348  20.153  0.00  0.00    +0.000 HD
ENDROOT
BRANCH   1  16
ATOM     15  C   UNL     1      -1.001  15.292  20.664  0.00  0.00    +0.000 C 
ATOM     16  C   UNL     1      -1.696  14.041  21.210  0.00  0.00    +0.000 C 
BRANCH  16  17
ATOM     17  C   UNL     1      -0.956  13.447  22.493  0.00  0.00    +0.000 C 
BRANCH  17  18
ATOM     18  C   UNL     1      -0.600  11.962  22.260  0.00  0.00    +0.000 A 
ATOM     19  C   UNL     1       0.373  11.560  21.327  0.00  0.00    +0.000 A 
ATOM     20  C   UNL     1       0.869  10.255  21.316  0.00  0.00    +0.000 A 
ATOM     21  C   UNL     1       0.362   9.309  22.199  0.00  0.00    +0.000 A 
ATOM     22  C   UNL     1      -0.670   9.659  23.065  0.00  0.00    +0.000 A 
ATOM     23  C   UNL     1      -1.149  10.973  23.097  0.00  0.00    +0.000 A 
ENDBRANCH  17  18
BRANCH  17  24
ATOM     24  N   UNL     1      -1.734  13.683  23.759  0.00  0.00    +0.000 NA
ATOM     25  C   UNL     1      -1.256  14.878  24.467  0.00  0.00    +0.000 C 
ATOM     26  C   UNL     1      -3.168  13.873  23.472  0.00  0.00    +0.000 C 
ENDBRANCH  17  24
ENDBRANCH  16  17
ENDBRANCH   1  16
TORSDOF 4
ENDMDL
MODEL 7
REMARK VINA RESULT:      -6.0      2.370      6.864
REMARK  Name = 
REMARK  8 active torsions:
REMARK  status: ('A' for Active; 'I' for Inactive)
REMARK    1  A    between atoms: C_1  and  C_2
REMARK    2  A    between atoms: C_2  and  N_3
REMARK    3  A    between atoms: C_2  and  C_16
REMARK    4  A    between atoms: N_6  and  C_7
REMARK    5  A    between atoms: C_16  and  C_17
REMARK    6  A    between atoms: C_16  and  N_23
REMARK    7  A    between atoms: N_23  and  C_24
REMARK    8  A    between atoms: N_23  and  C_25
REMARK                            x       y       z     vdW  Elec       q    Type
REMARK                         _______ _______ _______ _____ _____    ______ ____
ROOT
ATOM      1  N   UNL     1      -2.853  12.475  22.233  0.00  0.00    +0.000 N 
ATOM      2  C   UNL     1      -1.841  12.165  21.360  0.00  0.00    +0.000 A 
ATOM      3  N   UNL     1      -1.706  12.804  20.233  0.00  0.00    +0.000 NA
ATOM      4  N   UNL     1      -0.668  12.480  19.400  0.00  0.00    +0.000 N 
ATOM      5  C   UNL     1      -0.549  13.275  18.197  0.00  0.00    +0.000 C 
ATOM      6  C   UNL     1       0.303  11.527  19.682  0.00  0.00    +0.000 A 
ATOM      7  O   UNL     1       1.248  11.262  18.945  0.00  0.00    +0.000 OA
ATOM      8  C   UNL     1       0.169  10.808  20.948  0.00  0.00    +0.000 A 
ATOM      9  C   UNL     1       1.097   9.858  21.376  0.00  0.00    +0.000 A 
ATOM     10  C   UNL     1       0.919   9.236  22.611  0.00  0.00    +0.000 A 
ATOM     11  C   UNL     1      -0.196   9.580  23.365  0.00  0.00    +0.000 A 
ATOM     12  N   UNL     1      -1.122  10.485  22.974  0.00  0.00    +0.000 NA
ATOM     13  C   UNL     1      -0.896  11.089  21.769  0.00  0.00    +0.000 A 
ATOM     14  H   UNL     1      -3.140  11.703  22.834  0.00  0.00    +0.000 HD
ENDROOT
BRANCH   1  16
ATOM     15  C   UNL     1      -3.656  14.685  23.029  0.00  0.00    +0.000 C 
ATOM     16  C   UNL     1      -3.870  13.512  22.067  0.00  0.00    +0.000 C 
BRANCH  16  17
ATOM     17  C   UNL     1      -5.325  12.873  22.203  0.00  0.00    +0.000 C 
BRANCH  17  18
ATOM     18  C   UNL     1      -5.843  12.427  20.817  0.00  0.00    +0.000 A 
ATOM     19  C   UNL     1      -5.287  12.910  19.618  0.00  0.00    +0.000 A 
ATOM     20  C   UNL     1      -5.579  12.308  18.392  0.00  0.00    +0.000 A 
ATOM     21  C   UNL     1      -6.477  11.248  18.332  0.00  0.00    +0.000 A 
ATOM     22  C   UNL     1      -7.112  10.818  19.493  0.00  0.00    +0.000 A 
ATOM     23  C   UNL     1      -6.800  11.402  20.726  0.00  0.00    +0.000 A 
ENDBRANCH  17  18
BRANCH  17  24
ATOM     24  N   UNL     1      -6.280  13.779  22.934  0.00  0.00    +0.000 NA
ATOM     25  C   UNL     1      -7.210  14.435  22.005  0.00  0.00    +0.000 C 
ATOM     26  C   UNL     1      -7.080  13.024  23.915  0.00  0.00    +0.000 C 
ENDBRANCH  17  24
ENDBRANCH  16  17
ENDBRANCH   1  16
TORSDOF 4
ENDMDL
MODEL 8
REMARK VINA RESULT:      -5.9      7.427     10.118
REMARK  Name = 
REMARK  8 active torsions:
REMARK  status: ('A' for Active; 'I' for Inactive)
REMARK    1  A    between atoms: C_1  and  C_2
REMARK    2  A    between atoms: C_2  and  N_3
REMARK    3  A    between atoms: C_2  and  C_16
REMARK    4  A    between atoms: N_6  and  C_7
REMARK    5  A    between atoms: C_16  and  C_17
REMARK    6  A    between atoms: C_16  and  N_23
REMARK    7  A    between atoms: N_23  and  C_24
REMARK    8  A    between atoms: N_23  and  C_25
REMARK                            x       y       z     vdW  Elec       q    Type
REMARK                         _______ _______ _______ _____ _____    ______ ____
ROOT
ATOM      1  N   UNL     1       7.362  15.354  19.139  0.00  0.00    +0.000 N 
ATOM      2  C   UNL     1       6.303  15.046  19.955  0.00  0.00    +0.000 A 
ATOM      3  N   UNL     1       6.485  14.742  21.208  0.00  0.00    +0.000 NA
ATOM      4  N   UNL     1       5.399  14.462  21.994  0.00  0.00    +0.000 N 
ATOM      5  C   UNL     1       5.678  14.193  23.389  0.00  0.00    +0.000 C 
ATOM      6  C   UNL     1       4.079  14.517  21.564  0.00  0.00    +0.000 A 
ATOM      7  O   UNL     1       3.108  14.294  22.282  0.00  0.00    +0.000 OA
ATOM      8  C   UNL     1       3.859  14.866  20.163  0.00  0.00    +0.000 A 
ATOM      9  C   UNL     1       2.583  15.000  19.612  0.00  0.00    +0.000 A 
ATOM     10  C   UNL     1       2.452  15.368  18.273  0.00  0.00    +0.000 A 
ATOM     11  C   UNL     1       3.609  15.571  17.531  0.00  0.00    +0.000 A 
ATOM     12  N   UNL     1       4.859  15.436  18.030  0.00  0.00    +0.000 NA
ATOM     13  C   UNL     1       4.942  15.099  19.352  0.00  0.00    +0.000 A 
ATOM     14  H   UNL     1       7.200  15.162  18.151  0.00  0.00    +0.000 HD
ENDROOT
BRANCH   1  16
ATOM     15  C   UNL     1       9.308  16.842  19.543  0.00  0.00    +0.000 C 
ATOM     16  C   UNL     1       8.774  15.406  19.515  0.00  0.00    +0.000 C 
BRANCH  16  17
ATOM     17  C   UNL     1       9.627  14.460  18.554  0.00  0.00    +0.000 C 
BRANCH  17  18
ATOM     18  C   UNL     1       9.362  12.977  18.897  0.00  0.00    +0.000 A 
ATOM     19  C   UNL     1       9.253  11.985  17.905  0.00  0.00    +0.000 A 
ATOM     20  C   UNL     1       9.280  10.628  18.235  0.00  0.00    +0.000 A 
ATOM     21  C   UNL     1       9.357  10.234  19.566  0.00  0.00    +0.000 A 
ATOM     22  C   UNL     1       9.366  11.200  20.569  0.00  0.00    +0.000 A 
ATOM     23  C   UNL     1       9.368  12.559  20.240  0.00  0.00    +0.000 A 
ENDBRANCH  17  18
BRANCH  17  24
ATOM     24  N   UNL     1      11.088  14.820  18.550  0.00  0.00    +0.000 NA
ATOM     25  C   UNL     1      11.900  13.765  19.172  0.00  0.00    +0.000 C 
ATOM     26  C   UNL     1      11.581  15.017  17.175  0.00  0.00    +0.000 C 
ENDBRANCH  17  24
ENDBRANCH  16  17
ENDBRANCH   1  16
TORSDOF 4
ENDMDL
MODEL 9
REMARK VINA RESULT:      -5.8      9.061     11.502
REMARK  Name = 
REMARK  8 active torsions:
REMARK  status: ('A' for Active; 'I' for Inactive)
REMARK    1  A    between atoms: C_1  and  C_2
REMARK    2  A    between atoms: C_2  and  N_3
REMARK    3  A    between atoms: C_2  and  C_16
REMARK    4  A    between atoms: N_6  and  C_7
REMARK    5  A    between atoms: C_16  and  C_17
REMARK    6  A    between atoms: C_16  and  N_23
REMARK    7  A    between atoms: N_23  and  C_24
REMARK    8  A    between atoms: N_23  and  C_25
REMARK                            x       y       z     vdW  Elec       q    Type
REMARK                         _______ _______ _______ _____ _____    ______ ____
ROOT
ATOM      1  N   UNL     1       7.911  14.276  20.048  0.00  0.00    +0.000 N 
ATOM      2  C   UNL     1       7.062  14.429  21.114  0.00  0.00    +0.000 A 
ATOM      3  N   UNL     1       6.156  15.365  21.124  0.00  0.00    +0.000 NA
ATOM      4  N   UNL     1       5.313  15.470  22.198  0.00  0.00    +0.000 N 
ATOM      5  C   UNL     1       4.294  16.495  22.107  0.00  0.00    +0.000 C 
ATOM      6  C   UNL     1       5.317  14.613  23.292  0.00  0.00    +0.000 A 
ATOM      7  O   UNL     1       4.539  14.694  24.237  0.00  0.00    +0.000 OA
ATOM      8  C   UNL     1       6.322  13.552  23.290  0.00  0.00    +0.000 A 
ATOM      9  C   UNL     1       6.409  12.596  24.304  0.00  0.00    +0.000 A 
ATOM     10  C   UNL     1       7.375  11.594  24.217  0.00  0.00    +0.000 A 
ATOM     11  C   UNL     1       8.231  11.599  23.123  0.00  0.00    +0.000 A 
ATOM     12  N   UNL     1       8.184  12.518  22.132  0.00  0.00    +0.000 NA
ATOM     13  C   UNL     1       7.206  13.467  22.243  0.00  0.00    +0.000 A 
ATOM     14  H   UNL     1       8.806  13.847  20.283  0.00  0.00    +0.000 HD
ENDROOT
BRANCH   1  16
ATOM     15  C   UNL     1       7.052  14.457  17.726  0.00  0.00    +0.000 C 
ATOM     16  C   UNL     1       7.932  15.069  18.820  0.00  0.00    +0.000 C 
BRANCH  16  17
ATOM     17  C   UNL     1       9.438  15.284  18.338  0.00  0.00    +0.000 C 
BRANCH  17  18
ATOM     18  C   UNL     1      10.254  13.990  18.553  0.00  0.00    +0.000 A 
ATOM     19  C   UNL     1      10.936  13.723  19.753  0.00  0.00    +0.000 A 
ATOM     20  C   UNL     1      11.441  12.450  20.030  0.00  0.00    +0.000 A 
ATOM     21  C   UNL     1      11.326  11.434  19.089  0.00  0.00    +0.000 A 
ATOM     22  C   UNL     1      10.740  11.703  17.855  0.00  0.00    +0.000 A 
ATOM     23  C   UNL     1      10.209  12.969  17.587  0.00  0.00    +0.000 A 
ENDBRANCH  17  18
BRANCH  17  24
ATOM     24  N   UNL     1      10.069  16.498  18.965  0.00  0.00    +0.000 NA
ATOM     25  C   UNL     1      11.152  17.031  18.127  0.00  0.00    +0.000 C 
ATOM     26  C   UNL     1       9.077  17.572  19.155  0.00  0.00    +0.000 C 
ENDBRANCH  17  24
ENDBRANCH  16  17
ENDBRANCH   1  16
TORSDOF 4
ENDMDL
