MODEL 1
REMARK VINA RESULT:      -8.4      0.000      0.000
REMARK  Name = 
REMARK  9 active torsions:
REMARK  status: ('A' for Active; 'I' for Inactive)
REMARK    1  A    between atoms: C_1  and  C_2
REMARK    2  A    between atoms: C_2  and  O_3
REMARK    3  A    between atoms: O_3  and  C_4
REMARK    4  A    between atoms: C_4  and  C_6
REMARK    5  A    between atoms: C_10  and  N_11
REMARK    6  A    between atoms: C_15  and  C_17
REMARK    7  A    between atoms: C_17  and  C_18
REMARK    8  A    between atoms: C_21  and  O_22
REMARK    9  A    between atoms: O_22  and  C_23
REMARK                            x       y       z     vdW  Elec       q    Type
REMARK                         _______ _______ _______ _____ _____    ______ ____
ROOT
ATOM      1  N   UNL     1       1.681   8.316  19.458  0.00  0.00    +0.000 N 
ATOM      2  C   UNL     1       1.122   8.315  20.822  0.00  0.00    +0.000 C 
ATOM      3  C   UNL     1       1.257   9.727  21.425  0.00  0.00    +0.000 C 
ATOM      4  N   UNL     1       0.677  10.751  20.544  0.00  0.00    +0.000 N 
ATOM      5  C   UNL     1      -0.114  11.740  21.097  0.00  0.00    +0.000 C 
ATOM      6  O   UNL     1      -0.360  11.768  22.309  0.00  0.00    +0.000 OA
ATOM      7  C   UNL     1       1.198  10.719  19.165  0.00  0.00    +0.000 C 
ATOM      8  C   UNL     1       1.081   9.309  18.551  0.00  0.00    +0.000 C 
ENDROOT
BRANCH   1  13
ATOM      9  C   UNL     1       5.637   5.113  16.412  0.00  0.00    +0.000 A 
ATOM     10  C   UNL     1       5.103   6.386  16.341  0.00  0.00    +0.000 A 
ATOM     11  C   UNL     1       4.187   6.510  17.408  0.00  0.00    +0.000 A 
ATOM     12  C   UNL     1       3.332   7.527  17.865  0.00  0.00    +0.000 A 
ATOM     13  C   UNL     1       2.543   7.335  19.014  0.00  0.00    +0.000 A 
ATOM     14  C   UNL     1       2.636   6.091  19.666  0.00  0.00    +0.000 A 
ATOM     15  C   UNL     1       3.464   5.044  19.219  0.00  0.00    +0.000 A 
ATOM     16  C   UNL     1       4.223   5.302  18.086  0.00  0.00    +0.000 A 
ATOM     17  O   UNL     1       5.095   4.444  17.478  0.00  0.00    +0.000 OA
BRANCH   9  18
ATOM     18  C   UNL     1       6.582   4.497  15.518  0.00  0.00    +0.000 C 
ATOM     19  O   UNL     1       7.792   4.690  15.555  0.00  0.00    +0.000 OA
BRANCH  18  20
ATOM     20  O   UNL     1       5.948   3.764  14.556  0.00  0.00    +0.000 OA
BRANCH  20  22
ATOM     21  C   UNL     1       5.536   3.234  12.265  0.00  0.00    +0.000 C 
ATOM     22  C   UNL     1       6.441   3.980  13.231  0.00  0.00    +0.000 C 
ENDBRANCH  20  22
ENDBRANCH  18  20
ENDBRANCH   9  18
ENDBRANCH   1  13
BRANCH   5  23
ATOM     23  C   UNL     1      -0.707  12.807  20.192  0.00  0.00    +0.000 C 
BRANCH  23  24
ATOM     24  C   UNL     1      -2.040  12.443  19.579  0.00  0.00    +0.000 A 
ATOM     25  C   UNL     1      -2.079  11.776  18.348  0.00  0.00    +0.000 A 
ATOM     26  C   UNL     1      -3.303  11.434  17.766  0.00  0.00    +0.000 A 
ATOM     27  C   UNL     1      -4.504  11.722  18.414  0.00  0.00    +0.000 A 
ATOM     28  C   UNL     1      -4.475  12.356  19.654  0.00  0.00    +0.000 A 
ATOM     29  C   UNL     1      -3.251  12.701  20.237  0.00  0.00    +0.000 A 
BRANCH  27  30
ATOM     30  O   UNL     1      -5.634  11.375  17.727  0.00  0.00    +0.000 OA
ATOM     31  C   UNL     1      -6.670  10.776  18.498  0.00  0.00    +0.000 C 
ENDBRANCH  27  30
ENDBRANCH  23  24
ENDBRANCH   5  23
TORSDOF 7
ENDMDL
MODEL 2
REMARK VINA RESULT:      -8.1      0.701      1.144
REMARK  Name = 
REMARK  9 active torsions:
REMARK  status: ('A' for Active; 'I' for Inactive)
REMARK    1  A    between atoms: C_1  and  C_2
REMARK    2  A    between atoms: C_2  and  O_3
REMARK    3  A    between atoms: O_3  and  C_4
REMARK    4  A    between atoms: C_4  and  C_6
REMARK    5  A    between atoms: C_10  and  N_11
REMARK    6  A    between atoms: C_15  and  C_17
REMARK    7  A    between atoms: C_17  and  C_18
REMARK    8  A    between atoms: C_21  and  O_22
REMARK    9  A    between atoms: O_22  and  C_23
REMARK                            x       y       z     vdW  Elec       q    Type
REMARK                         _______ _______ _______ _____ _____    ______ ____
ROOT
ATOM      1  N   UNL     1       1.564   8.389  19.773  0.00  0.00    +0.000 N 
ATOM      2  C   UNL     1       0.953   8.222  21.103  0.00  0.00    +0.000 C 
ATOM      3  C   UNL     1       1.070   9.544  21.885  0.00  0.00    +0.000 C 
ATOM      4  N   UNL     1       0.530  10.676  21.119  0.00  0.00    +0.000 N 
ATOM      5  C   UNL     1      -0.278  11.595  21.763  0.00  0.00    +0.000 C 
ATOM      6  O   UNL     1      -0.570  11.472  22.959  0.00  0.00    +0.000 OA
ATOM      7  C   UNL     1       1.103  10.815  19.769  0.00  0.00    +0.000 C 
ATOM      8  C   UNL     1       1.004   9.495  18.977  0.00  0.00    +0.000 C 
ENDROOT
BRANCH   1  13
ATOM      9  C   UNL     1       5.468   5.482  16.382  0.00  0.00    +0.000 A 
ATOM     10  C   UNL     1       4.880   6.733  16.394  0.00  0.00    +0.000 A 
ATOM     11  C   UNL     1       4.021   6.776  17.514  0.00  0.00    +0.000 A 
ATOM     12  C   UNL     1       3.153   7.736  18.060  0.00  0.00    +0.000 A 
ATOM     13  C   UNL     1       2.438   7.465  19.240  0.00  0.00    +0.000 A 
ATOM     14  C   UNL     1       2.618   6.200  19.833  0.00  0.00    +0.000 A 
ATOM     15  C   UNL     1       3.461   5.208  19.298  0.00  0.00    +0.000 A 
ATOM     16  C   UNL     1       4.144   5.544  18.137  0.00  0.00    +0.000 A 
ATOM     17  O   UNL     1       5.014   4.749  17.446  0.00  0.00    +0.000 OA
BRANCH   9  18
ATOM     18  C   UNL     1       6.384   4.943  15.411  0.00  0.00    +0.000 C 
ATOM     19  O   UNL     1       7.564   4.701  15.639  0.00  0.00    +0.000 OA
BRANCH  18  20
ATOM     20  O   UNL     1       5.802   4.846  14.181  0.00  0.00    +0.000 OA
BRANCH  20  22
ATOM     21  C   UNL     1       6.801   3.933  12.214  0.00  0.00    +0.000 C 
ATOM     22  C   UNL     1       6.063   3.614  13.502  0.00  0.00    +0.000 C 
ENDBRANCH  20  22
ENDBRANCH  18  20
ENDBRANCH   9  18
ENDBRANCH   1  13
BRANCH   5  23
ATOM     23  C   UNL     1      -0.831  12.774  20.979  0.00  0.00    +0.000 C 
BRANCH  23  24
ATOM     24  C   UNL     1      -2.229  12.571  20.440  0.00  0.00    +0.000 A 
ATOM     25  C   UNL     1      -3.330  13.028  21.177  0.00  0.00    +0.000 A 
ATOM     26  C   UNL     1      -4.629  12.847  20.695  0.00  0.00    +0.000 A 
ATOM     27  C   UNL     1      -4.852  12.238  19.460  0.00  0.00    +0.000 A 
ATOM     28  C   UNL     1      -3.762  11.810  18.705  0.00  0.00    +0.000 A 
ATOM     29  C   UNL     1      -2.461  11.988  19.187  0.00  0.00    +0.000 A 
BRANCH  27  30
ATOM     30  O   UNL     1      -6.166  12.081  19.116  0.00  0.00    +0.000 OA
ATOM     31  C   UNL     1      -6.499  10.852  18.480  0.00  0.00    +0.000 C 
ENDBRANCH  27  30
ENDBRANCH  23  24
ENDBRANCH   5  23
TORSDOF 7
ENDMDL
MODEL 3
REMARK VINA RESULT:      -8.0      2.426      3.054
REMARK  Name = 
REMARK  9 active torsions:
REMARK  status: ('A' for Active; 'I' for Inactive)
REMARK    1  A    between atoms: C_1  and  C_2
REMARK    2  A    between atoms: C_2  and  O_3
REMARK    3  A    between atoms: O_3  and  C_4
REMARK    4  A    between atoms: C_4  and  C_6
REMARK    5  A    between atoms: C_10  and  N_11
REMARK    6  A    between atoms: C_15  and  C_17
REMARK    7  A    between atoms: C_17  and  C_18
REMARK    8  A    between atoms: C_21  and  O_22
REMARK    9  A    between atoms: O_22  and  C_23
REMARK                            x       y       z     vdW  Elec       q    Type
REMARK                         _______ _______ _______ _____ _____    ______ ____
ROOT
ATOM      1  N   UNL     1       1.901   7.746  19.603  0.00  0.00    +0.000 N 
ATOM      2  C   UNL     1       1.367   7.451  20.945  0.00  0.00    +0.000 C 
ATOM      3  C   UNL     1       1.486   8.711  21.824  0.00  0.00    +0.000 C 
ATOM      4  N   UNL     1       0.872   9.881  21.182  0.00  0.00    +0.000 N 
ATOM      5  C   UNL     1       0.073  10.717  21.940  0.00  0.00    +0.000 C 
ATOM      6  O   UNL     1      -0.152  10.489  23.134  0.00  0.00    +0.000 OA
ATOM      7  C   UNL     1       1.368  10.147  19.820  0.00  0.00    +0.000 C 
ATOM      8  C   UNL     1       1.266   8.892  18.929  0.00  0.00    +0.000 C 
ENDROOT
BRANCH   1  13
ATOM      9  C   UNL     1       5.752   5.280  15.824  0.00  0.00    +0.000 A 
ATOM     10  C   UNL     1       5.148   6.513  15.986  0.00  0.00    +0.000 A 
ATOM     11  C   UNL     1       4.319   6.422  17.124  0.00  0.00    +0.000 A 
ATOM     12  C   UNL     1       3.453   7.305  17.791  0.00  0.00    +0.000 A 
ATOM     13  C   UNL     1       2.772   6.898  18.953  0.00  0.00    +0.000 A 
ATOM     14  C   UNL     1       2.983   5.580  19.402  0.00  0.00    +0.000 A 
ATOM     15  C   UNL     1       3.825   4.664  18.742  0.00  0.00    +0.000 A 
ATOM     16  C   UNL     1       4.473   5.133  17.608  0.00  0.00    +0.000 A 
ATOM     17  O   UNL     1       5.335   4.429  16.815  0.00  0.00    +0.000 OA
BRANCH   9  18
ATOM     18  C   UNL     1       6.650   4.863  14.780  0.00  0.00    +0.000 C 
ATOM     19  O   UNL     1       7.644   5.491  14.435  0.00  0.00    +0.000 OA
BRANCH  18  20
ATOM     20  O   UNL     1       6.190   3.742  14.149  0.00  0.00    +0.000 OA
BRANCH  20  22
ATOM     21  C   UNL     1       5.121   3.351  12.051  0.00  0.00    +0.000 C 
ATOM     22  C   UNL     1       6.424   3.722  12.738  0.00  0.00    +0.000 C 
ENDBRANCH  20  22
ENDBRANCH  18  20
ENDBRANCH   9  18
ENDBRANCH   1  13
BRANCH   5  23
ATOM     23  C   UNL     1      -0.557  11.936  21.284  0.00  0.00    +0.000 C 
BRANCH  23  24
ATOM     24  C   UNL     1      -1.369  12.805  22.217  0.00  0.00    +0.000 A 
ATOM     25  C   UNL     1      -2.717  12.503  22.448  0.00  0.00    +0.000 A 
ATOM     26  C   UNL     1      -3.484  13.297  23.306  0.00  0.00    +0.000 A 
ATOM     27  C   UNL     1      -2.913  14.383  23.970  0.00  0.00    +0.000 A 
ATOM     28  C   UNL     1      -1.564  14.671  23.773  0.00  0.00    +0.000 A 
ATOM     29  C   UNL     1      -0.796  13.879  22.913  0.00  0.00    +0.000 A 
BRANCH  27  30
ATOM     30  O   UNL     1      -3.772  15.106  24.750  0.00  0.00    +0.000 OA
ATOM     31  C   UNL     1      -4.782  15.829  24.055  0.00  0.00    +0.000 C 
ENDBRANCH  27  30
ENDBRANCH  23  24
ENDBRANCH   5  23
TORSDOF 7
ENDMDL
MODEL 4
REMARK VINA RESULT:      -8.0      2.397      3.554
REMARK  Name = 
REMARK  9 active torsions:
REMARK  status: ('A' for Active; 'I' for Inactive)
REMARK    1  A    between atoms: C_1  and  C_2
REMARK    2  A    between atoms: C_2  and  O_3
REMARK    3  A    between atoms: O_3  and  C_4
REMARK    4  A    between atoms: C_4  and  C_6
REMARK    5  A    between atoms: C_10  and  N_11
REMARK    6  A    between atoms: C_15  and  C_17
REMARK    7  A    between atoms: C_17  and  C_18
REMARK    8  A    between atoms: C_21  and  O_22
REMARK    9  A    between atoms: O_22  and  C_23
REMARK                            x       y       z     vdW  Elec       q    Type
REMARK                         _______ _______ _______ _____ _____    ______ ____
ROOT
ATOM      1  N   UNL     1       1.801   8.420  19.549  0.00  0.00    +0.000 N 
ATOM      2  C   UNL     1       1.448   9.687  18.884  0.00  0.00    +0.000 C 
ATOM      3  C   UNL     1      -0.021  10.031  19.196  0.00  0.00    +0.000 C 
ATOM      4  N   UNL     1      -0.285  10.024  20.641  0.00  0.00    +0.000 N 
ATOM      5  C   UNL     1      -1.034  11.048  21.190  0.00  0.00    +0.000 C 
ATOM      6  O   UNL     1      -1.466  11.977  20.495  0.00  0.00    +0.000 OA
ATOM      7  C   UNL     1       0.115   8.777  21.317  0.00  0.00    +0.000 C 
ATOM      8  C   UNL     1       1.580   8.412  21.006  0.00  0.00    +0.000 C 
ENDROOT
BRANCH   1  13
ATOM      9  C   UNL     1       5.276   5.237  15.948  0.00  0.00    +0.000 A 
ATOM     10  C   UNL     1       5.044   6.576  16.199  0.00  0.00    +0.000 A 
ATOM     11  C   UNL     1       4.064   6.643  17.213  0.00  0.00    +0.000 A 
ATOM     12  C   UNL     1       3.407   7.687  17.886  0.00  0.00    +0.000 A 
ATOM     13  C   UNL     1       2.471   7.406  18.898  0.00  0.00    +0.000 A 
ATOM     14  C   UNL     1       2.215   6.053  19.191  0.00  0.00    +0.000 A 
ATOM     15  C   UNL     1       2.840   4.986  18.519  0.00  0.00    +0.000 A 
ATOM     16  C   UNL     1       3.759   5.331  17.538  0.00  0.00    +0.000 A 
ATOM     17  O   UNL     1       4.484   4.470  16.763  0.00  0.00    +0.000 OA
BRANCH   9  18
ATOM     18  C   UNL     1       6.157   4.658  14.967  0.00  0.00    +0.000 C 
ATOM     19  O   UNL     1       7.379   4.659  15.055  0.00  0.00    +0.000 OA
BRANCH  18  20
ATOM     20  O   UNL     1       5.463   4.213  13.879  0.00  0.00    +0.000 OA
BRANCH  20  22
ATOM     21  C   UNL     1       5.359   3.031  11.807  0.00  0.00    +0.000 C 
ATOM     22  C   UNL     1       6.278   3.624  12.861  0.00  0.00    +0.000 C 
ENDBRANCH  20  22
ENDBRANCH  18  20
ENDBRANCH   9  18
ENDBRANCH   1  13
BRANCH   5  23
ATOM     23  C   UNL     1      -1.319  11.041  22.683  0.00  0.00    +0.000 C 
BRANCH  23  24
ATOM     24  C   UNL     1      -1.944  12.312  23.212  0.00  0.00    +0.000 A 
ATOM     25  C   UNL     1      -1.174  13.479  23.298  0.00  0.00    +0.000 A 
ATOM     26  C   UNL     1      -1.734  14.663  23.786  0.00  0.00    +0.000 A 
ATOM     27  C   UNL     1      -3.076  14.711  24.166  0.00  0.00    +0.000 A 
ATOM     28  C   UNL     1      -3.858  13.564  24.053  0.00  0.00    +0.000 A 
ATOM     29  C   UNL     1      -3.298  12.378  23.567  0.00  0.00    +0.000 A 
BRANCH  27  30
ATOM     30  O   UNL     1      -3.497  15.913  24.665  0.00  0.00    +0.000 OA
ATOM     31  C   UNL     1      -2.543  16.633  25.438  0.00  0.00    +0.000 C 
ENDBRANCH  27  30
ENDBRANCH  23  24
ENDBRANCH   5  23
TORSDOF 7
ENDMDL
MODEL 5
REMARK VINA RESULT:      -7.9      2.987     10.649
REMARK  Name = 
REMARK  9 active torsions:
REMARK  status: ('A' for Active; 'I' for Inactive)
REMARK    1  A    between atoms: C_1  and  C_2
REMARK    2  A    between atoms: C_2  and  O_3
REMARK    3  A    between atoms: O_3  and  C_4
REMARK    4  A    between atoms: C_4  and  C_6
REMARK    5  A    between atoms: C_10  and  N_11
REMARK    6  A    between atoms: C_15  and  C_17
REMARK    7  A    between atoms: C_17  and  C_18
REMARK    8  A    between atoms: C_21  and  O_22
REMARK    9  A    between atoms: O_22  and  C_23
REMARK                            x       y       z     vdW  Elec       q    Type
REMARK                         _______ _______ _______ _____ _____    ______ ____
ROOT
ATOM      1  N   UNL     1       1.911   7.165  19.949  0.00  0.00    +0.000 N 
ATOM      2  C   UNL     1       2.045   6.097  20.955  0.00  0.00    +0.000 C 
ATOM      3  C   UNL     1       1.672   4.747  20.313  0.00  0.00    +0.000 C 
ATOM      4  N   UNL     1       2.436   4.503  19.081  0.00  0.00    +0.000 N 
ATOM      5  C   UNL     1       2.982   3.251  18.869  0.00  0.00    +0.000 C 
ATOM      6  O   UNL     1       2.859   2.343  19.700  0.00  0.00    +0.000 OA
ATOM      7  C   UNL     1       2.345   5.594  18.094  0.00  0.00    +0.000 C 
ATOM      8  C   UNL     1       2.704   6.955  18.725  0.00  0.00    +0.000 C 
ENDROOT
BRANCH   1  13
ATOM      9  C   UNL     1      -1.197  11.569  22.424  0.00  0.00    +0.000 A 
ATOM     10  C   UNL     1      -0.735  10.324  22.806  0.00  0.00    +0.000 A 
ATOM     11  C   UNL     1      -0.040   9.783  21.703  0.00  0.00    +0.000 A 
ATOM     12  C   UNL     1       0.636   8.577  21.453  0.00  0.00    +0.000 A 
ATOM     13  C   UNL     1       1.266   8.354  20.215  0.00  0.00    +0.000 A 
ATOM     14  C   UNL     1       1.177   9.373  19.247  0.00  0.00    +0.000 A 
ATOM     15  C   UNL     1       0.488  10.582  19.459  0.00  0.00    +0.000 A 
ATOM     16  C   UNL     1      -0.104  10.741  20.704  0.00  0.00    +0.000 A 
ATOM     17  O   UNL     1      -0.817  11.826  21.133  0.00  0.00    +0.000 OA
BRANCH   9  18
ATOM     18  C   UNL     1      -1.999  12.490  23.187  0.00  0.00    +0.000 C 
ATOM     19  O   UNL     1      -3.015  12.176  23.797  0.00  0.00    +0.000 OA
BRANCH  18  20
ATOM     20  O   UNL     1      -1.547  13.771  23.049  0.00  0.00    +0.000 OA
BRANCH  20  22
ATOM     21  C   UNL     1      -0.996  15.910  23.955  0.00  0.00    +0.000 C 
ATOM     22  C   UNL     1      -1.477  14.505  24.275  0.00  0.00    +0.000 C 
ENDBRANCH  20  22
ENDBRANCH  18  20
ENDBRANCH   9  18
ENDBRANCH   1  13
BRANCH   5  23
ATOM     23  C   UNL     1       3.764   2.990  17.591  0.00  0.00    +0.000 C 
BRANCH  23  24
ATOM     24  C   UNL     1       4.828   4.019  17.284  0.00  0.00    +0.000 A 
ATOM     25  C   UNL     1       5.698   4.441  18.297  0.00  0.00    +0.000 A 
ATOM     26  C   UNL     1       6.687   5.393  18.031  0.00  0.00    +0.000 A 
ATOM     27  C   UNL     1       6.844   5.915  16.747  0.00  0.00    +0.000 A 
ATOM     28  C   UNL     1       6.005   5.477  15.725  0.00  0.00    +0.000 A 
ATOM     29  C   UNL     1       5.014   4.526  15.990  0.00  0.00    +0.000 A 
BRANCH  27  30
ATOM     30  O   UNL     1       7.817   6.868  16.620  0.00  0.00    +0.000 OA
ATOM     31  C   UNL     1       7.767   7.936  17.560  0.00  0.00    +0.000 C 
ENDBRANCH  27  30
ENDBRANCH  23  24
ENDBRANCH   5  23
TORSDOF 7
ENDMDL
MODEL 6
REMARK VINA RESULT:      -7.9      3.063     10.672
REMARK  Name = 
REMARK  9 active torsions:
REMARK  status: ('A' for Active; 'I' for Inactive)
REMARK    1  A    between atoms: C_1  and  C_2
REMARK    2  A    between atoms: C_2  and  O_3
REMARK    3  A    between atoms: O_3  and  C_4
REMARK    4  A    between atoms: C_4  and  C_6
REMARK    5  A    between atoms: C_10  and  N_11
REMARK    6  A    between atoms: C_15  and  C_17
REMARK    7  A    between atoms: C_17  and  C_18
REMARK    8  A    between atoms: C_21  and  O_22
REMARK    9  A    between atoms: O_22  and  C_23
REMARK                            x       y       z     vdW  Elec       q    Type
REMARK                         _______ _______ _______ _____ _____    ______ ____
ROOT
ATOM      1  N   UNL     1       1.842   7.154  20.097  0.00  0.00    +0.000 N 
ATOM      2  C   UNL     1       1.918   6.021  21.037  0.00  0.00    +0.000 C 
ATOM      3  C   UNL     1       1.591   4.716  20.285  0.00  0.00    +0.000 C 
ATOM      4  N   UNL     1       2.429   4.555  19.089  0.00  0.00    +0.000 N 
ATOM      5  C   UNL     1       2.991   3.319  18.827  0.00  0.00    +0.000 C 
ATOM      6  O   UNL     1       2.823   2.359  19.588  0.00  0.00    +0.000 OA
ATOM      7  C   UNL     1       2.393   5.709  18.173  0.00  0.00    +0.000 C 
ATOM      8  C   UNL     1       2.708   7.025  18.913  0.00  0.00    +0.000 C 
ENDROOT
BRANCH   1  13
ATOM      9  C   UNL     1      -1.386  11.401  22.690  0.00  0.00    +0.000 A 
ATOM     10  C   UNL     1      -0.924  10.142  23.024  0.00  0.00    +0.000 A 
ATOM     11  C   UNL     1      -0.189   9.664  21.918  0.00  0.00    +0.000 A 
ATOM     12  C   UNL     1       0.506   8.477  21.629  0.00  0.00    +0.000 A 
ATOM     13  C   UNL     1       1.177   8.322  20.402  0.00  0.00    +0.000 A 
ATOM     14  C   UNL     1       1.109   9.387  19.484  0.00  0.00    +0.000 A 
ATOM     15  C   UNL     1       0.401  10.578  19.734  0.00  0.00    +0.000 A 
ATOM     16  C   UNL     1      -0.231  10.671  20.966  0.00  0.00    +0.000 A 
ATOM     17  O   UNL     1      -0.968  11.726  21.426  0.00  0.00    +0.000 OA
BRANCH   9  18
ATOM     18  C   UNL     1      -2.220  12.276  23.472  0.00  0.00    +0.000 C 
ATOM     19  O   UNL     1      -3.354  11.997  23.842  0.00  0.00    +0.000 OA
BRANCH  18  20
ATOM     20  O   UNL     1      -1.630  13.494  23.649  0.00  0.00    +0.000 OA
BRANCH  20  22
ATOM     21  C   UNL     1      -2.863  15.449  24.249  0.00  0.00    +0.000 C 
ATOM     22  C   UNL     1      -2.366  14.591  23.099  0.00  0.00    +0.000 C 
ENDBRANCH  20  22
ENDBRANCH  18  20
ENDBRANCH   9  18
ENDBRANCH   1  13
BRANCH   5  23
ATOM     23  C   UNL     1       3.850   3.144  17.585  0.00  0.00    +0.000 C 
BRANCH  23  24
ATOM     24  C   UNL     1       4.923   4.194  17.408  0.00  0.00    +0.000 A 
ATOM     25  C   UNL     1       4.985   4.929  16.218  0.00  0.00    +0.000 A 
ATOM     26  C   UNL     1       5.971   5.902  16.036  0.00  0.00    +0.000 A 
ATOM     27  C   UNL     1       6.891   6.180  17.047  0.00  0.00    +0.000 A 
ATOM     28  C   UNL     1       6.818   5.477  18.248  0.00  0.00    +0.000 A 
ATOM     29  C   UNL     1       5.832   4.501  18.431  0.00  0.00    +0.000 A 
BRANCH  27  30
ATOM     30  O   UNL     1       7.832   7.123  16.736  0.00  0.00    +0.000 OA
ATOM     31  C   UNL     1       7.910   8.237  17.620  0.00  0.00    +0.000 C 
ENDBRANCH  27  30
ENDBRANCH  23  24
ENDBRANCH   5  23
TORSDOF 7
ENDMDL
MODEL 7
REMARK VINA RESULT:      -7.7      2.437      3.375
REMARK  Name = 
REMARK  9 active torsions:
REMARK  status: ('A' for Active; 'I' for Inactive)
REMARK    1  A    between atoms: C_1  and  C_2
REMARK    2  A    between atoms: C_2  and  O_3
REMARK    3  A    between atoms: O_3  and  C_4
REMARK    4  A    between atoms: C_4  and  C_6
REMARK    5  A    between atoms: C_10  and  N_11
REMARK    6  A    between atoms: C_15  and  C_17
REMARK    7  A    between atoms: C_17  and  C_18
REMARK    8  A    between atoms: C_21  and  O_22
REMARK    9  A    between atoms: O_22  and  C_23
REMARK                            x       y       z     vdW  Elec       q    Type
REMARK                         _______ _______ _______ _____ _____    ______ ____
ROOT
ATOM      1  N   UNL     1       1.796   7.879  19.791  0.00  0.00    +0.000 N 
ATOM      2  C   UNL     1       1.239   7.607  21.128  0.00  0.00    +0.000 C 
ATOM      3  C   UNL     1       1.331   8.885  21.984  0.00  0.00    +0.000 C 
ATOM      4  N   UNL     1       0.717  10.036  21.307  0.00  0.00    +0.000 N 
ATOM      5  C   UNL     1      -0.103  10.880  22.032  0.00  0.00    +0.000 C 
ATOM      6  O   UNL     1      -0.348  10.673  23.227  0.00  0.00    +0.000 OA
ATOM      7  C   UNL     1       1.236  10.278  19.948  0.00  0.00    +0.000 C 
ATOM      8  C   UNL     1       1.163   9.004  19.082  0.00  0.00    +0.000 C 
ENDROOT
BRANCH   1  13
ATOM      9  C   UNL     1       5.745   5.376  16.141  0.00  0.00    +0.000 A 
ATOM     10  C   UNL     1       5.130   6.608  16.268  0.00  0.00    +0.000 A 
ATOM     11  C   UNL     1       4.276   6.530  17.389  0.00  0.00    +0.000 A 
ATOM     12  C   UNL     1       3.390   7.418  18.022  0.00  0.00    +0.000 A 
ATOM     13  C   UNL     1       2.687   7.025  19.175  0.00  0.00    +0.000 A 
ATOM     14  C   UNL     1       2.896   5.717  19.651  0.00  0.00    +0.000 A 
ATOM     15  C   UNL     1       3.759   4.796  19.026  0.00  0.00    +0.000 A 
ATOM     16  C   UNL     1       4.429   5.250  17.898  0.00  0.00    +0.000 A 
ATOM     17  O   UNL     1       5.313   4.540  17.136  0.00  0.00    +0.000 OA
BRANCH   9  18
ATOM     18  C   UNL     1       6.669   4.948  15.123  0.00  0.00    +0.000 C 
ATOM     19  O   UNL     1       7.618   5.616  14.729  0.00  0.00    +0.000 OA
BRANCH  18  20
ATOM     20  O   UNL     1       6.286   3.756  14.577  0.00  0.00    +0.000 OA
BRANCH  20  22
ATOM     21  C   UNL     1       6.284   3.356  12.224  0.00  0.00    +0.000 C 
ATOM     22  C   UNL     1       5.481   3.879  13.401  0.00  0.00    +0.000 C 
ENDBRANCH  20  22
ENDBRANCH  18  20
ENDBRANCH   9  18
ENDBRANCH   1  13
BRANCH   5  23
ATOM     23  C   UNL     1      -0.732  12.078  21.339  0.00  0.00    +0.000 C 
BRANCH  23  24
ATOM     24  C   UNL     1      -1.403  13.063  22.269  0.00  0.00    +0.000 A 
ATOM     25  C   UNL     1      -0.671  14.140  22.784  0.00  0.00    +0.000 A 
ATOM     26  C   UNL     1      -1.275  15.059  23.647  0.00  0.00    +0.000 A 
ATOM     27  C   UNL     1      -2.623  14.937  23.986  0.00  0.00    +0.000 A 
ATOM     28  C   UNL     1      -3.368  13.887  23.452  0.00  0.00    +0.000 A 
ATOM     29  C   UNL     1      -2.765  12.966  22.590  0.00  0.00    +0.000 A 
BRANCH  27  30
ATOM     30  O   UNL     1      -3.089  15.872  24.869  0.00  0.00    +0.000 OA
ATOM     31  C   UNL     1      -2.097  16.573  25.611  0.00  0.00    +0.000 C 
ENDBRANCH  27  30
ENDBRANCH  23  24
ENDBRANCH   5  23
TORSDOF 7
ENDMDL
MODEL 8
REMARK VINA RESULT:      -7.7      0.779      1.255
REMARK  Name = 
REMARK  9 active torsions:
REMARK  status: ('A' for Active; 'I' for Inactive)
REMARK    1  A    between atoms: C_1  and  C_2
REMARK    2  A    between atoms: C_2  and  O_3
REMARK    3  A    between atoms: O_3  and  C_4
REMARK    4  A    between atoms: C_4  and  C_6
REMARK    5  A    between atoms: C_10  and  N_11
REMARK    6  A    between atoms: C_15  and  C_17
REMARK    7  A    between atoms: C_17  and  C_18
REMARK    8  A    between atoms: C_21  and  O_22
REMARK    9  A    between atoms: O_22  and  C_23
REMARK                            x       y       z     vdW  Elec       q    Type
REMARK                         _______ _______ _______ _____ _____    ______ ____
ROOT
ATOM      1  N   UNL     1       1.768   8.139  19.723  0.00  0.00    +0.000 N 
ATOM      2  C   UNL     1       1.100   8.024  21.032  0.00  0.00    +0.000 C 
ATOM      3  C   UNL     1       1.228   9.363  21.784  0.00  0.00    +0.000 C 
ATOM      4  N   UNL     1       0.753  10.490  20.971  0.00  0.00    +0.000 N 
ATOM      5  C   UNL     1      -0.050  11.449  21.559  0.00  0.00    +0.000 C 
ATOM      6  O   UNL     1      -0.393  11.365  22.745  0.00  0.00    +0.000 OA
ATOM      7  C   UNL     1       1.382  10.576  19.641  0.00  0.00    +0.000 C 
ATOM      8  C   UNL     1       1.273   9.240  18.878  0.00  0.00    +0.000 C 
ENDROOT
BRANCH   1  13
ATOM      9  C   UNL     1       5.682   5.016  16.543  0.00  0.00    +0.000 A 
ATOM     10  C   UNL     1       5.122   6.279  16.493  0.00  0.00    +0.000 A 
ATOM     11  C   UNL     1       4.240   6.385  17.589  0.00  0.00    +0.000 A 
ATOM     12  C   UNL     1       3.381   7.384  18.076  0.00  0.00    +0.000 A 
ATOM     13  C   UNL     1       2.632   7.176  19.248  0.00  0.00    +0.000 A 
ATOM     14  C   UNL     1       2.770   5.932  19.894  0.00  0.00    +0.000 A 
ATOM     15  C   UNL     1       3.603   4.902  19.419  0.00  0.00    +0.000 A 
ATOM     16  C   UNL     1       4.320   5.176  18.262  0.00  0.00    +0.000 A 
ATOM     17  O   UNL     1       5.188   4.335  17.624  0.00  0.00    +0.000 OA
BRANCH   9  18
ATOM     18  C   UNL     1       6.609   4.420  15.617  0.00  0.00    +0.000 C 
ATOM     19  O   UNL     1       7.812   4.653  15.601  0.00  0.00    +0.000 OA
BRANCH  18  20
ATOM     20  O   UNL     1       5.960   3.654  14.692  0.00  0.00    +0.000 OA
BRANCH  20  22
ATOM     21  C   UNL     1       5.958   3.198  12.348  0.00  0.00    +0.000 C 
ATOM     22  C   UNL     1       5.815   4.274  13.411  0.00  0.00    +0.000 C 
ENDBRANCH  20  22
ENDBRANCH  18  20
ENDBRANCH   9  18
ENDBRANCH   1  13
BRANCH   5  23
ATOM     23  C   UNL     1      -0.536  12.623  20.725  0.00  0.00    +0.000 C 
BRANCH  23  24
ATOM     24  C   UNL     1      -1.536  12.261  19.650  0.00  0.00    +0.000 A 
ATOM     25  C   UNL     1      -2.903  12.235  19.955  0.00  0.00    +0.000 A 
ATOM     26  C   UNL     1      -3.842  11.900  18.974  0.00  0.00    +0.000 A 
ATOM     27  C   UNL     1      -3.437  11.616  17.670  0.00  0.00    +0.000 A 
ATOM     28  C   UNL     1      -2.082  11.672  17.349  0.00  0.00    +0.000 A 
ATOM     29  C   UNL     1      -1.142  12.004  18.330  0.00  0.00    +0.000 A 
BRANCH  27  30
ATOM     30  O   UNL     1      -4.441  11.263  16.812  0.00  0.00    +0.000 OA
ATOM     31  C   UNL     1      -4.028  10.706  15.569  0.00  0.00    +0.000 C 
ENDBRANCH  27  30
ENDBRANCH  23  24
ENDBRANCH   5  23
TORSDOF 7
ENDMDL
MODEL 9
REMARK VINA RESULT:      -7.7      2.960     10.542
REMARK  Name = 
REMARK  9 active torsions:
REMARK  status: ('A' for Active; 'I' for Inactive)
REMARK    1  A    between atoms: C_1  and  C_2
REMARK    2  A    between atoms: C_2  and  O_3
REMARK    3  A    between atoms: O_3  and  C_4
REMARK    4  A    between atoms: C_4  and  C_6
REMARK    5  A    between atoms: C_10  and  N_11
REMARK    6  A    between atoms: C_15  and  C_17
REMARK    7  A    between atoms: C_17  and  C_18
REMARK    8  A    between atoms: C_21  and  O_22
REMARK    9  A    between atoms: O_22  and  C_23
REMARK                            x       y       z     vdW  Elec       q    Type
REMARK                         _______ _______ _______ _____ _____    ______ ____
ROOT
ATOM      1  N   UNL     1       1.888   7.126  19.913  0.00  0.00    +0.000 N 
ATOM      2  C   UNL     1       1.764   6.029  20.889  0.00  0.00    +0.000 C 
ATOM      3  C   UNL     1       1.340   4.743  20.155  0.00  0.00    +0.000 C 
ATOM      4  N   UNL     1       2.235   4.441  19.029  0.00  0.00    +0.000 N 
ATOM      5  C   UNL     1       2.666   3.140  18.848  0.00  0.00    +0.000 C 
ATOM      6  O   UNL     1       2.332   2.235  19.622  0.00  0.00    +0.000 OA
ATOM      7  C   UNL     1       2.400   5.555  18.079  0.00  0.00    +0.000 C 
ATOM      8  C   UNL     1       2.814   6.854  18.800  0.00  0.00    +0.000 C 
ENDROOT
BRANCH   1  13
ATOM      9  C   UNL     1      -0.748  11.899  22.248  0.00  0.00    +0.000 A 
ATOM     10  C   UNL     1      -0.352  10.651  22.689  0.00  0.00    +0.000 A 
ATOM     11  C   UNL     1       0.235   9.990  21.589  0.00  0.00    +0.000 A 
ATOM     12  C   UNL     1       0.809   8.724  21.385  0.00  0.00    +0.000 A 
ATOM     13  C   UNL     1       1.345   8.375  20.132  0.00  0.00    +0.000 A 
ATOM     14  C   UNL     1       1.270   9.332  19.103  0.00  0.00    +0.000 A 
ATOM     15  C   UNL     1       0.680  10.600  19.269  0.00  0.00    +0.000 A 
ATOM     16  C   UNL     1       0.178  10.884  20.531  0.00  0.00    +0.000 A 
ATOM     17  O   UNL     1      -0.429  12.043  20.923  0.00  0.00    +0.000 OA
BRANCH   9  18
ATOM     18  C   UNL     1      -1.435  12.925  22.989  0.00  0.00    +0.000 C 
ATOM     19  O   UNL     1      -0.888  13.689  23.776  0.00  0.00    +0.000 OA
BRANCH  18  20
ATOM     20  O   UNL     1      -2.784  12.860  22.790  0.00  0.00    +0.000 OA
BRANCH  20  22
ATOM     21  C   UNL     1      -4.474  13.058  24.464  0.00  0.00    +0.000 C 
ATOM     22  C   UNL     1      -3.492  12.118  23.787  0.00  0.00    +0.000 C 
ENDBRANCH  20  22
ENDBRANCH  18  20
ENDBRANCH   9  18
ENDBRANCH   1  13
BRANCH   5  23
ATOM     23  C   UNL     1       3.584   2.819  17.679  0.00  0.00    +0.000 C 
BRANCH  23  24
ATOM     24  C   UNL     1       4.685   3.829  17.447  0.00  0.00    +0.000 A 
ATOM     25  C   UNL     1       4.816   4.437  16.192  0.00  0.00    +0.000 A 
ATOM     26  C   UNL     1       5.829   5.371  15.960  0.00  0.00    +0.000 A 
ATOM     27  C   UNL     1       6.707   5.737  16.981  0.00  0.00    +0.000 A 
ATOM     28  C   UNL     1       6.564   5.163  18.242  0.00  0.00    +0.000 A 
ATOM     29  C   UNL     1       5.551   4.226  18.475  0.00  0.00    +0.000 A 
BRANCH  27  30
ATOM     30  O   UNL     1       7.679   6.628  16.621  0.00  0.00    +0.000 OA
ATOM     31  C   UNL     1       7.776   7.799  17.425  0.00  0.00    +0.000 C 
ENDBRANCH  27  30
ENDBRANCH  23  24
ENDBRANCH   5  23
TORSDOF 7
ENDMDL
