MODEL 1
REMARK VINA RESULT:      -7.2      0.000      0.000
REMARK  Name = 
REMARK  10 active torsions:
REMARK  status: ('A' for Active; 'I' for Inactive)
REMARK    1  A    between atoms: C_1  and  C_2
REMARK    2  A    between atoms: C_2  and  O_3
REMARK    3  A    between atoms: O_3  and  C_4
REMARK    4  A    between atoms: C_9  and  O_10
REMARK    5  A    between atoms: O_10  and  C_11
REMARK    6  A    between atoms: C_17  and  C_18
REMARK    7  A    between atoms: C_18  and  C_19
REMARK    8  A    between atoms: C_20  and  C_21
REMARK    9  A    between atoms: C_26  and  O_27
REMARK   10  A    between atoms: O_27  and  C_28
REMARK                            x       y       z     vdW  Elec       q    Type
REMARK                         _______ _______ _______ _____ _____    ______ ____
ROOT
ATOM      1  C   UNL     1      -1.700  12.824  23.090  0.00  0.00    +0.000 A 
ATOM      2  C   UNL     1      -2.772  12.399  22.295  0.00  0.00    +0.000 A 
ATOM      3  C   UNL     1      -3.943  13.155  22.186  0.00  0.00    +0.000 A 
ATOM      4  C   UNL     1      -4.061  14.355  22.894  0.00  0.00    +0.000 A 
ATOM      5  C   UNL     1      -2.971  14.828  23.622  0.00  0.00    +0.000 A 
ATOM      6  C   UNL     1      -1.788  14.076  23.730  0.00  0.00    +0.000 A 
ATOM      7  C   UNL     1      -5.380  15.076  22.834  0.00  0.00    +0.000 C 
ATOM      8  C   UNL     1      -6.502  14.036  22.928  0.00  0.00    +0.000 C 
ATOM      9  N   UNL     1      -6.368  12.913  21.996  0.00  0.00    +0.000 N 
ATOM     10  C   UNL     1      -7.343  11.939  21.949  0.00  0.00    +0.000 C 
ATOM     11  O   UNL     1      -7.300  10.912  21.286  0.00  0.00    +0.000 OA
ATOM     12  C   UNL     1      -5.083  12.689  21.296  0.00  0.00    +0.000 C 
ENDROOT
BRANCH   6  13
ATOM     13  O   UNL     1      -0.852  14.716  24.499  0.00  0.00    +0.000 OA
ATOM     14  C   UNL     1      -0.464  16.034  24.148  0.00  0.00    +0.000 C 
ENDBRANCH   6  13
BRANCH   1  15
ATOM     15  O   UNL     1      -0.570  12.060  23.251  0.00  0.00    +0.000 OA
BRANCH  15  17
ATOM     16  C   UNL     1      -0.324   9.675  23.250  0.00  0.00    +0.000 C 
ATOM     17  C   UNL     1      -0.428  10.923  22.395  0.00  0.00    +0.000 C 
ENDBRANCH  15  17
ENDBRANCH   1  15
BRANCH  12  18
ATOM     18  C   UNL     1      -5.081  13.376  19.906  0.00  0.00    +0.000 C 
BRANCH  18  19
ATOM     19  C   UNL     1      -4.971  12.439  18.731  0.00  0.00    +0.000 A 
ATOM     20  C   UNL     1      -5.963  12.121  17.815  0.00  0.00    +0.000 A 
ATOM     21  C   UNL     1      -7.362  12.598  17.637  0.00  0.00    +0.000 C 
ATOM     22  N   UNL     1      -5.450  11.193  16.946  0.00  0.00    +0.000 N 
ATOM     23  C   UNL     1      -4.136  10.934  17.236  0.00  0.00    +0.000 A 
ATOM     24  C   UNL     1      -3.232  10.077  16.600  0.00  0.00    +0.000 A 
ATOM     25  C   UNL     1      -1.928  10.019  17.103  0.00  0.00    +0.000 A 
ATOM     26  C   UNL     1      -1.544  10.790  18.200  0.00  0.00    +0.000 A 
ATOM     27  C   UNL     1      -2.477  11.629  18.828  0.00  0.00    +0.000 A 
ATOM     28  C   UNL     1      -3.799  11.707  18.342  0.00  0.00    +0.000 A 
ATOM     29  H   UNL     1      -5.959  10.771  16.181  0.00  0.00    +0.000 HD
BRANCH  26  30
ATOM     30  O   UNL     1      -0.292  10.818  18.754  0.00  0.00    +0.000 OA
ATOM     31  C   UNL     1       0.287  12.100  18.964  0.00  0.00    +0.000 C 
ENDBRANCH  26  30
ENDBRANCH  18  19
ENDBRANCH  12  18
TORSDOF 6
ENDMDL
MODEL 2
REMARK VINA RESULT:      -6.3      2.760      7.040
REMARK  Name = 
REMARK  10 active torsions:
REMARK  status: ('A' for Active; 'I' for Inactive)
REMARK    1  A    between atoms: C_1  and  C_2
REMARK    2  A    between atoms: C_2  and  O_3
REMARK    3  A    between atoms: O_3  and  C_4
REMARK    4  A    between atoms: C_9  and  O_10
REMARK    5  A    between atoms: O_10  and  C_11
REMARK    6  A    between atoms: C_17  and  C_18
REMARK    7  A    between atoms: C_18  and  C_19
REMARK    8  A    between atoms: C_20  and  C_21
REMARK    9  A    between atoms: C_26  and  O_27
REMARK   10  A    between atoms: O_27  and  C_28
REMARK                            x       y       z     vdW  Elec       q    Type
REMARK                         _______ _______ _______ _____ _____    ______ ____
ROOT
ATOM      1  C   UNL     1      -3.647  10.787  17.723  0.00  0.00    +0.000 A 
ATOM      2  C   UNL     1      -3.089  11.323  18.891  0.00  0.00    +0.000 A 
ATOM      3  C   UNL     1      -1.749  11.104  19.225  0.00  0.00    +0.000 A 
ATOM      4  C   UNL     1      -0.945  10.321  18.389  0.00  0.00    +0.000 A 
ATOM      5  C   UNL     1      -1.467   9.852  17.185  0.00  0.00    +0.000 A 
ATOM      6  C   UNL     1      -2.812  10.075  16.840  0.00  0.00    +0.000 A 
ATOM      7  C   UNL     1       0.456  10.021  18.846  0.00  0.00    +0.000 C 
ATOM      8  C   UNL     1       0.417   9.718  20.349  0.00  0.00    +0.000 C 
ATOM      9  N   UNL     1      -0.294  10.717  21.151  0.00  0.00    +0.000 N 
ATOM     10  C   UNL     1      -0.351  10.582  22.522  0.00  0.00    +0.000 C 
ATOM     11  O   UNL     1      -0.989  11.293  23.287  0.00  0.00    +0.000 OA
ATOM     12  C   UNL     1      -1.156  11.717  20.482  0.00  0.00    +0.000 C 
ENDROOT
BRANCH   6  13
ATOM     13  O   UNL     1      -3.119   9.519  15.626  0.00  0.00    +0.000 OA
ATOM     14  C   UNL     1      -3.188  10.360  14.486  0.00  0.00    +0.000 C 
ENDBRANCH   6  13
BRANCH   1  15
ATOM     15  O   UNL     1      -4.976  10.946  17.416  0.00  0.00    +0.000 OA
BRANCH  15  17
ATOM     16  C   UNL     1      -6.747  10.312  18.903  0.00  0.00    +0.000 C 
ATOM     17  C   UNL     1      -5.828  11.432  18.457  0.00  0.00    +0.000 C 
ENDBRANCH  15  17
ENDBRANCH   1  15
BRANCH  12  18
ATOM     18  C   UNL     1      -0.373  13.025  20.202  0.00  0.00    +0.000 C 
BRANCH  18  19
ATOM     19  C   UNL     1      -1.192  14.288  20.279  0.00  0.00    +0.000 A 
ATOM     20  C   UNL     1      -0.963  15.480  19.605  0.00  0.00    +0.000 A 
ATOM     21  C   UNL     1       0.052  15.888  18.596  0.00  0.00    +0.000 C 
ATOM     22  N   UNL     1      -1.916  16.379  20.008  0.00  0.00    +0.000 N 
ATOM     23  C   UNL     1      -2.791  15.795  20.886  0.00  0.00    +0.000 A 
ATOM     24  C   UNL     1      -3.913  16.336  21.523  0.00  0.00    +0.000 A 
ATOM     25  C   UNL     1      -4.647  15.497  22.368  0.00  0.00    +0.000 A 
ATOM     26  C   UNL     1      -4.273  14.169  22.567  0.00  0.00    +0.000 A 
ATOM     27  C   UNL     1      -3.133  13.658  21.928  0.00  0.00    +0.000 A 
ATOM     28  C   UNL     1      -2.374  14.481  21.069  0.00  0.00    +0.000 A 
ATOM     29  H   UNL     1      -1.983  17.335  19.688  0.00  0.00    +0.000 HD
BRANCH  26  30
ATOM     30  O   UNL     1      -4.934  13.266  23.357  0.00  0.00    +0.000 OA
ATOM     31  C   UNL     1      -4.180  12.652  24.396  0.00  0.00    +0.000 C 
ENDBRANCH  26  30
ENDBRANCH  18  19
ENDBRANCH  12  18
TORSDOF 6
ENDMDL
MODEL 3
REMARK VINA RESULT:      -6.3      8.418     12.089
REMARK  Name = 
REMARK  10 active torsions:
REMARK  status: ('A' for Active; 'I' for Inactive)
REMARK    1  A    between atoms: C_1  and  C_2
REMARK    2  A    between atoms: C_2  and  O_3
REMARK    3  A    between atoms: O_3  and  C_4
REMARK    4  A    between atoms: C_9  and  O_10
REMARK    5  A    between atoms: O_10  and  C_11
REMARK    6  A    between atoms: C_17  and  C_18
REMARK    7  A    between atoms: C_18  and  C_19
REMARK    8  A    between atoms: C_20  and  C_21
REMARK    9  A    between atoms: C_26  and  O_27
REMARK   10  A    between atoms: O_27  and  C_28
REMARK                            x       y       z     vdW  Elec       q    Type
REMARK                         _______ _______ _______ _____ _____    ______ ____
ROOT
ATOM      1  C   UNL     1       6.770   5.314  15.754  0.00  0.00    +0.000 A 
ATOM      2  C   UNL     1       5.789   4.360  16.056  0.00  0.00    +0.000 A 
ATOM      3  C   UNL     1       5.173   4.320  17.311  0.00  0.00    +0.000 A 
ATOM      4  C   UNL     1       5.548   5.238  18.297  0.00  0.00    +0.000 A 
ATOM      5  C   UNL     1       6.462   6.242  17.982  0.00  0.00    +0.000 A 
ATOM      6  C   UNL     1       7.080   6.292  16.719  0.00  0.00    +0.000 A 
ATOM      7  C   UNL     1       4.940   5.085  19.664  0.00  0.00    +0.000 C 
ATOM      8  C   UNL     1       4.897   3.591  20.006  0.00  0.00    +0.000 C 
ATOM      9  N   UNL     1       4.302   2.747  18.967  0.00  0.00    +0.000 N 
ATOM     10  C   UNL     1       4.160   1.392  19.181  0.00  0.00    +0.000 C 
ATOM     11  O   UNL     1       3.768   0.574  18.360  0.00  0.00    +0.000 OA
ATOM     12  C   UNL     1       4.093   3.294  17.608  0.00  0.00    +0.000 C 
ENDROOT
BRANCH   6  13
ATOM     13  O   UNL     1       7.950   7.346  16.626  0.00  0.00    +0.000 OA
ATOM     14  C   UNL     1       7.951   8.325  17.652  0.00  0.00    +0.000 C 
ENDBRANCH   6  13
BRANCH   1  15
ATOM     15  O   UNL     1       7.423   5.325  14.547  0.00  0.00    +0.000 OA
BRANCH  15  17
ATOM     16  C   UNL     1       7.580   4.858  12.200  0.00  0.00    +0.000 C 
ATOM     17  C   UNL     1       6.846   4.553  13.490  0.00  0.00    +0.000 C 
ENDBRANCH  15  17
ENDBRANCH   1  15
BRANCH  12  18
ATOM     18  C   UNL     1       2.661   3.868  17.456  0.00  0.00    +0.000 C 
BRANCH  18  19
ATOM     19  C   UNL     1       2.092   4.503  18.699  0.00  0.00    +0.000 A 
ATOM     20  C   UNL     1       1.539   3.855  19.795  0.00  0.00    +0.000 A 
ATOM     21  C   UNL     1       1.378   2.416  20.140  0.00  0.00    +0.000 C 
ATOM     22  N   UNL     1       1.101   4.814  20.671  0.00  0.00    +0.000 N 
ATOM     23  C   UNL     1       1.397   6.068  20.204  0.00  0.00    +0.000 A 
ATOM     24  C   UNL     1       1.152   7.318  20.781  0.00  0.00    +0.000 A 
ATOM     25  C   UNL     1       1.583   8.451  20.083  0.00  0.00    +0.000 A 
ATOM     26  C   UNL     1       2.236   8.336  18.857  0.00  0.00    +0.000 A 
ATOM     27  C   UNL     1       2.455   7.070  18.294  0.00  0.00    +0.000 A 
ATOM     28  C   UNL     1       2.030   5.909  18.976  0.00  0.00    +0.000 A 
ATOM     29  H   UNL     1       0.641   4.628  21.552  0.00  0.00    +0.000 HD
BRANCH  26  30
ATOM     30  O   UNL     1       2.712   9.380  18.107  0.00  0.00    +0.000 OA
ATOM     31  C   UNL     1       1.879  10.529  18.010  0.00  0.00    +0.000 C 
ENDBRANCH  26  30
ENDBRANCH  18  19
ENDBRANCH  12  18
TORSDOF 6
ENDMDL
MODEL 4
REMARK VINA RESULT:      -6.3      3.598      7.015
REMARK  Name = 
REMARK  10 active torsions:
REMARK  status: ('A' for Active; 'I' for Inactive)
REMARK    1  A    between atoms: C_1  and  C_2
REMARK    2  A    between atoms: C_2  and  O_3
REMARK    3  A    between atoms: O_3  and  C_4
REMARK    4  A    between atoms: C_9  and  O_10
REMARK    5  A    between atoms: O_10  and  C_11
REMARK    6  A    between atoms: C_17  and  C_18
REMARK    7  A    between atoms: C_18  and  C_19
REMARK    8  A    between atoms: C_20  and  C_21
REMARK    9  A    between atoms: C_26  and  O_27
REMARK   10  A    between atoms: O_27  and  C_28
REMARK                            x       y       z     vdW  Elec       q    Type
REMARK                         _______ _______ _______ _____ _____    ______ ____
ROOT
ATOM      1  C   UNL     1      -3.640  11.206  17.726  0.00  0.00    +0.000 A 
ATOM      2  C   UNL     1      -3.061  11.788  18.861  0.00  0.00    +0.000 A 
ATOM      3  C   UNL     1      -1.785  11.419  19.300  0.00  0.00    +0.000 A 
ATOM      4  C   UNL     1      -1.071  10.437  18.605  0.00  0.00    +0.000 A 
ATOM      5  C   UNL     1      -1.602   9.910  17.429  0.00  0.00    +0.000 A 
ATOM      6  C   UNL     1      -2.881  10.283  16.979  0.00  0.00    +0.000 A 
ATOM      7  C   UNL     1       0.247   9.994  19.178  0.00  0.00    +0.000 C 
ATOM      8  C   UNL     1       0.095   9.877  20.700  0.00  0.00    +0.000 C 
ATOM      9  N   UNL     1      -0.494  11.054  21.343  0.00  0.00    +0.000 N 
ATOM     10  C   UNL     1      -0.633  11.090  22.714  0.00  0.00    +0.000 C 
ATOM     11  O   UNL     1      -1.192  11.970  23.356  0.00  0.00    +0.000 OA
ATOM     12  C   UNL     1      -1.166  12.083  20.517  0.00  0.00    +0.000 C 
ENDROOT
BRANCH   6  13
ATOM     13  O   UNL     1      -3.213   9.639  15.816  0.00  0.00    +0.000 OA
ATOM     14  C   UNL     1      -2.978  10.295  14.581  0.00  0.00    +0.000 C 
ENDBRANCH   6  13
BRANCH   1  15
ATOM     15  O   UNL     1      -4.914  11.517  17.322  0.00  0.00    +0.000 OA
BRANCH  15  17
ATOM     16  C   UNL     1      -6.420  13.327  17.773  0.00  0.00    +0.000 C 
ATOM     17  C   UNL     1      -5.795  12.056  18.311  0.00  0.00    +0.000 C 
ENDBRANCH  15  17
ENDBRANCH   1  15
BRANCH  12  18
ATOM     18  C   UNL     1      -0.183  13.223  20.146  0.00  0.00    +0.000 C 
BRANCH  18  19
ATOM     19  C   UNL     1      -0.809  14.589  20.017  0.00  0.00    +0.000 A 
ATOM     20  C   UNL     1      -2.028  15.005  20.532  0.00  0.00    +0.000 A 
ATOM     21  C   UNL     1      -3.047  14.331  21.382  0.00  0.00    +0.000 C 
ATOM     22  N   UNL     1      -2.230  16.301  20.135  0.00  0.00    +0.000 N 
ATOM     23  C   UNL     1      -1.155  16.761  19.418  0.00  0.00    +0.000 A 
ATOM     24  C   UNL     1      -0.934  18.017  18.846  0.00  0.00    +0.000 A 
ATOM     25  C   UNL     1       0.277  18.221  18.175  0.00  0.00    +0.000 A 
ATOM     26  C   UNL     1       1.229  17.207  18.084  0.00  0.00    +0.000 A 
ATOM     27  C   UNL     1       0.973  15.950  18.654  0.00  0.00    +0.000 A 
ATOM     28  C   UNL     1      -0.240  15.717  19.336  0.00  0.00    +0.000 A 
ATOM     29  H   UNL     1      -3.047  16.855  20.354  0.00  0.00    +0.000 HD
BRANCH  26  30
ATOM     30  O   UNL     1       2.448  17.312  17.467  0.00  0.00    +0.000 OA
ATOM     31  C   UNL     1       3.436  16.357  17.835  0.00  0.00    +0.000 C 
ENDBRANCH  26  30
ENDBRANCH  18  19
ENDBRANCH  12  18
TORSDOF 6
ENDMDL
MODEL 5
REMARK VINA RESULT:      -6.3      2.659      7.435
REMARK  Name = 
REMARK  10 active torsions:
REMARK  status: ('A' for Active; 'I' for Inactive)
REMARK    1  A    between atoms: C_1  and  C_2
REMARK    2  A    between atoms: C_2  and  O_3
REMARK    3  A    between atoms: O_3  and  C_4
REMARK    4  A    between atoms: C_9  and  O_10
REMARK    5  A    between atoms: O_10  and  C_11
REMARK    6  A    between atoms: C_17  and  C_18
REMARK    7  A    between atoms: C_18  and  C_19
REMARK    8  A    between atoms: C_20  and  C_21
REMARK    9  A    between atoms: C_26  and  O_27
REMARK   10  A    between atoms: O_27  and  C_28
REMARK                            x       y       z     vdW  Elec       q    Type
REMARK                         _______ _______ _______ _____ _____    ______ ____
ROOT
ATOM      1  C   UNL     1      -3.900  11.671  18.377  0.00  0.00    +0.000 A 
ATOM      2  C   UNL     1      -3.130  11.846  19.534  0.00  0.00    +0.000 A 
ATOM      3  C   UNL     1      -1.781  11.479  19.576  0.00  0.00    +0.000 A 
ATOM      4  C   UNL     1      -1.183  10.911  18.446  0.00  0.00    +0.000 A 
ATOM      5  C   UNL     1      -1.915  10.808  17.264  0.00  0.00    +0.000 A 
ATOM      6  C   UNL     1      -3.270  11.182  17.215  0.00  0.00    +0.000 A 
ATOM      7  C   UNL     1       0.236  10.430  18.573  0.00  0.00    +0.000 C 
ATOM      8  C   UNL     1       0.390   9.738  19.932  0.00  0.00    +0.000 C 
ATOM      9  N   UNL     1      -0.103  10.518  21.070  0.00  0.00    +0.000 N 
ATOM     10  C   UNL     1       0.028  10.023  22.351  0.00  0.00    +0.000 C 
ATOM     11  O   UNL     1      -0.424  10.533  23.367  0.00  0.00    +0.000 OA
ATOM     12  C   UNL     1      -0.959  11.702  20.833  0.00  0.00    +0.000 C 
ENDROOT
BRANCH   6  13
ATOM     13  O   UNL     1      -3.801  10.988  15.967  0.00  0.00    +0.000 OA
ATOM     14  C   UNL     1      -3.026  10.310  14.992  0.00  0.00    +0.000 C 
ENDBRANCH   6  13
BRANCH   1  15
ATOM     15  O   UNL     1      -5.239  11.972  18.344  0.00  0.00    +0.000 OA
BRANCH  15  17
ATOM     16  C   UNL     1      -6.912  11.169  19.861  0.00  0.00    +0.000 C 
ATOM     17  C   UNL     1      -6.151  10.897  18.579  0.00  0.00    +0.000 C 
ENDBRANCH  15  17
ENDBRANCH   1  15
BRANCH  12  18
ATOM     18  C   UNL     1      -0.109  12.997  20.773  0.00  0.00    +0.000 C 
BRANCH  18  19
ATOM     19  C   UNL     1      -0.338  13.964  21.907  0.00  0.00    +0.000 A 
ATOM     20  C   UNL     1       0.452  15.051  22.256  0.00  0.00    +0.000 A 
ATOM     21  C   UNL     1       1.675  15.644  21.651  0.00  0.00    +0.000 C 
ATOM     22  N   UNL     1      -0.094  15.622  23.376  0.00  0.00    +0.000 N 
ATOM     23  C   UNL     1      -1.245  14.973  23.739  0.00  0.00    +0.000 A 
ATOM     24  C   UNL     1      -2.123  15.232  24.796  0.00  0.00    +0.000 A 
ATOM     25  C   UNL     1      -3.247  14.409  24.924  0.00  0.00    +0.000 A 
ATOM     26  C   UNL     1      -3.484  13.369  24.026  0.00  0.00    +0.000 A 
ATOM     27  C   UNL     1      -2.577  13.122  22.984  0.00  0.00    +0.000 A 
ATOM     28  C   UNL     1      -1.435  13.936  22.832  0.00  0.00    +0.000 A 
ATOM     29  H   UNL     1       0.283  16.425  23.860  0.00  0.00    +0.000 HD
BRANCH  26  30
ATOM     30  O   UNL     1      -4.561  12.523  24.055  0.00  0.00    +0.000 OA
ATOM     31  C   UNL     1      -5.672  12.873  23.239  0.00  0.00    +0.000 C 
ENDBRANCH  26  30
ENDBRANCH  18  19
ENDBRANCH  12  18
TORSDOF 6
ENDMDL
MODEL 6
REMARK VINA RESULT:      -6.2      9.710     13.593
REMARK  Name = 
REMARK  10 active torsions:
REMARK  status: ('A' for Active; 'I' for Inactive)
REMARK    1  A    between atoms: C_1  and  C_2
REMARK    2  A    between atoms: C_2  and  O_3
REMARK    3  A    between atoms: O_3  and  C_4
REMARK    4  A    between atoms: C_9  and  O_10
REMARK    5  A    between atoms: O_10  and  C_11
REMARK    6  A    between atoms: C_17  and  C_18
REMARK    7  A    between atoms: C_18  and  C_19
REMARK    8  A    between atoms: C_20  and  C_21
REMARK    9  A    between atoms: C_26  and  O_27
REMARK   10  A    between atoms: O_27  and  C_28
REMARK                            x       y       z     vdW  Elec       q    Type
REMARK                         _______ _______ _______ _____ _____    ______ ____
ROOT
ATOM      1  C   UNL     1       6.230  15.537  18.994  0.00  0.00    +0.000 A 
ATOM      2  C   UNL     1       7.359  14.724  18.834  0.00  0.00    +0.000 A 
ATOM      3  C   UNL     1       8.650  15.261  18.826  0.00  0.00    +0.000 A 
ATOM      4  C   UNL     1       8.826  16.642  18.965  0.00  0.00    +0.000 A 
ATOM      5  C   UNL     1       7.718  17.451  19.207  0.00  0.00    +0.000 A 
ATOM      6  C   UNL     1       6.417  16.915  19.223  0.00  0.00    +0.000 A 
ATOM      7  C   UNL     1      10.223  17.185  18.837  0.00  0.00    +0.000 C 
ATOM      8  C   UNL     1      10.922  16.450  17.687  0.00  0.00    +0.000 C 
ATOM      9  N   UNL     1      10.830  14.989  17.755  0.00  0.00    +0.000 N 
ATOM     10  C   UNL     1      11.464  14.216  16.805  0.00  0.00    +0.000 C 
ATOM     11  O   UNL     1      11.385  13.000  16.700  0.00  0.00    +0.000 OA
ATOM     12  C   UNL     1       9.861  14.357  18.678  0.00  0.00    +0.000 C 
ENDROOT
BRANCH   6  13
ATOM     13  O   UNL     1       5.477  17.882  19.464  0.00  0.00    +0.000 OA
ATOM     14  C   UNL     1       5.203  18.251  20.806  0.00  0.00    +0.000 C 
ENDBRANCH   6  13
BRANCH   1  15
ATOM     15  O   UNL     1       4.956  15.028  18.945  0.00  0.00    +0.000 OA
BRANCH  15  17
ATOM     16  C   UNL     1       2.858  15.803  18.083  0.00  0.00    +0.000 C 
ATOM     17  C   UNL     1       4.221  15.238  17.737  0.00  0.00    +0.000 C 
ENDBRANCH  15  17
ENDBRANCH   1  15
BRANCH  12  18
ATOM     18  C   UNL     1      10.529  14.019  20.036  0.00  0.00    +0.000 C 
BRANCH  18  19
ATOM     19  C   UNL     1       9.831  12.955  20.844  0.00  0.00    +0.000 A 
ATOM     20  C   UNL     1       9.715  11.607  20.536  0.00  0.00    +0.000 A 
ATOM     21  C   UNL     1      10.249  10.779  19.420  0.00  0.00    +0.000 C 
ATOM     22  N   UNL     1       8.958  11.017  21.514  0.00  0.00    +0.000 N 
ATOM     23  C   UNL     1       8.619  11.929  22.479  0.00  0.00    +0.000 A 
ATOM     24  C   UNL     1       7.879  11.755  23.653  0.00  0.00    +0.000 A 
ATOM     25  C   UNL     1       7.696  12.870  24.477  0.00  0.00    +0.000 A 
ATOM     26  C   UNL     1       8.236  14.111  24.140  0.00  0.00    +0.000 A 
ATOM     27  C   UNL     1       8.960  14.260  22.948  0.00  0.00    +0.000 A 
ATOM     28  C   UNL     1       9.160  13.152  22.097  0.00  0.00    +0.000 A 
ATOM     29  H   UNL     1       8.701  10.040  21.538  0.00  0.00    +0.000 HD
BRANCH  26  30
ATOM     30  O   UNL     1       8.129  15.255  24.887  0.00  0.00    +0.000 OA
ATOM     31  C   UNL     1       8.327  16.486  24.202  0.00  0.00    +0.000 C 
ENDBRANCH  26  30
ENDBRANCH  18  19
ENDBRANCH  12  18
TORSDOF 6
ENDMDL
MODEL 7
REMARK VINA RESULT:      -6.2      3.324      6.013
REMARK  Name = 
REMARK  10 active torsions:
REMARK  status: ('A' for Active; 'I' for Inactive)
REMARK    1  A    between atoms: C_1  and  C_2
REMARK    2  A    between atoms: C_2  and  O_3
REMARK    3  A    between atoms: O_3  and  C_4
REMARK    4  A    between atoms: C_9  and  O_10
REMARK    5  A    between atoms: O_10  and  C_11
REMARK    6  A    between atoms: C_17  and  C_18
REMARK    7  A    between atoms: C_18  and  C_19
REMARK    8  A    between atoms: C_20  and  C_21
REMARK    9  A    between atoms: C_26  and  O_27
REMARK   10  A    between atoms: O_27  and  C_28
REMARK                            x       y       z     vdW  Elec       q    Type
REMARK                         _______ _______ _______ _____ _____    ______ ____
ROOT
ATOM      1  C   UNL     1      -1.679  11.444  18.223  0.00  0.00    +0.000 A 
ATOM      2  C   UNL     1      -2.219  12.259  19.226  0.00  0.00    +0.000 A 
ATOM      3  C   UNL     1      -1.758  12.196  20.545  0.00  0.00    +0.000 A 
ATOM      4  C   UNL     1      -0.746  11.291  20.882  0.00  0.00    +0.000 A 
ATOM      5  C   UNL     1      -0.145  10.534  19.878  0.00  0.00    +0.000 A 
ATOM      6  C   UNL     1      -0.600  10.599  18.548  0.00  0.00    +0.000 A 
ATOM      7  C   UNL     1      -0.361  11.179  22.332  0.00  0.00    +0.000 C 
ATOM      8  C   UNL     1      -1.642  11.222  23.174  0.00  0.00    +0.000 C 
ATOM      9  N   UNL     1      -2.541  12.335  22.856  0.00  0.00    +0.000 N 
ATOM     10  C   UNL     1      -3.700  12.510  23.582  0.00  0.00    +0.000 C 
ATOM     11  O   UNL     1      -4.571  13.338  23.353  0.00  0.00    +0.000 OA
ATOM     12  C   UNL     1      -2.339  13.109  21.611  0.00  0.00    +0.000 C 
ENDROOT
BRANCH   6  13
ATOM     13  O   UNL     1       0.118   9.767  17.729  0.00  0.00    +0.000 OA
ATOM     14  C   UNL     1       1.477   9.508  18.040  0.00  0.00    +0.000 C 
ENDBRANCH   6  13
BRANCH   1  15
ATOM     15  O   UNL     1      -2.165  11.456  16.939  0.00  0.00    +0.000 OA
BRANCH  15  17
ATOM     16  C   UNL     1      -3.040   9.814  15.428  0.00  0.00    +0.000 C 
ATOM     17  C   UNL     1      -3.307  10.639  16.671  0.00  0.00    +0.000 C 
ENDBRANCH  15  17
ENDBRANCH   1  15
BRANCH  12  18
ATOM     18  C   UNL     1      -1.464  14.361  21.872  0.00  0.00    +0.000 C 
BRANCH  18  19
ATOM     19  C   UNL     1      -1.584  15.451  20.839  0.00  0.00    +0.000 A 
ATOM     20  C   UNL     1      -2.710  16.204  20.539  0.00  0.00    +0.000 A 
ATOM     21  C   UNL     1      -4.078  16.249  21.125  0.00  0.00    +0.000 C 
ATOM     22  N   UNL     1      -2.391  17.042  19.502  0.00  0.00    +0.000 N 
ATOM     23  C   UNL     1      -1.075  16.896  19.150  0.00  0.00    +0.000 A 
ATOM     24  C   UNL     1      -0.333  17.560  18.167  0.00  0.00    +0.000 A 
ATOM     25  C   UNL     1       1.017  17.219  18.032  0.00  0.00    +0.000 A 
ATOM     26  C   UNL     1       1.602  16.254  18.851  0.00  0.00    +0.000 A 
ATOM     27  C   UNL     1       0.830  15.593  19.817  0.00  0.00    +0.000 A 
ATOM     28  C   UNL     1      -0.535  15.916  19.976  0.00  0.00    +0.000 A 
ATOM     29  H   UNL     1      -3.028  17.696  19.068  0.00  0.00    +0.000 HD
BRANCH  26  30
ATOM     30  O   UNL     1       2.915  15.865  18.810  0.00  0.00    +0.000 OA
ATOM     31  C   UNL     1       3.433  15.494  17.538  0.00  0.00    +0.000 C 
ENDBRANCH  26  30
ENDBRANCH  18  19
ENDBRANCH  12  18
TORSDOF 6
ENDMDL
MODEL 8
REMARK VINA RESULT:      -6.2      2.686      7.109
REMARK  Name = 
REMARK  10 active torsions:
REMARK  status: ('A' for Active; 'I' for Inactive)
REMARK    1  A    between atoms: C_1  and  C_2
REMARK    2  A    between atoms: C_2  and  O_3
REMARK    3  A    between atoms: O_3  and  C_4
REMARK    4  A    between atoms: C_9  and  O_10
REMARK    5  A    between atoms: O_10  and  C_11
REMARK    6  A    between atoms: C_17  and  C_18
REMARK    7  A    between atoms: C_18  and  C_19
REMARK    8  A    between atoms: C_20  and  C_21
REMARK    9  A    between atoms: C_26  and  O_27
REMARK   10  A    between atoms: O_27  and  C_28
REMARK                            x       y       z     vdW  Elec       q    Type
REMARK                         _______ _______ _______ _____ _____    ______ ____
ROOT
ATOM      1  C   UNL     1      -3.871  11.740  18.447  0.00  0.00    +0.000 A 
ATOM      2  C   UNL     1      -3.071  11.903  19.586  0.00  0.00    +0.000 A 
ATOM      3  C   UNL     1      -1.734  11.497  19.602  0.00  0.00    +0.000 A 
ATOM      4  C   UNL     1      -1.177  10.901  18.466  0.00  0.00    +0.000 A 
ATOM      5  C   UNL     1      -1.937  10.809  17.301  0.00  0.00    +0.000 A 
ATOM      6  C   UNL     1      -3.281  11.223  17.277  0.00  0.00    +0.000 A 
ATOM      7  C   UNL     1       0.230  10.380  18.567  0.00  0.00    +0.000 C 
ATOM      8  C   UNL     1       0.393   9.695  19.929  0.00  0.00    +0.000 C 
ATOM      9  N   UNL     1      -0.052  10.501  21.070  0.00  0.00    +0.000 N 
ATOM     10  C   UNL     1       0.092  10.014  22.352  0.00  0.00    +0.000 C 
ATOM     11  O   UNL     1      -0.323  10.546  23.372  0.00  0.00    +0.000 OA
ATOM     12  C   UNL     1      -0.877  11.707  20.839  0.00  0.00    +0.000 C 
ENDROOT
BRANCH   6  13
ATOM     13  O   UNL     1      -3.844  11.033  16.042  0.00  0.00    +0.000 OA
ATOM     14  C   UNL     1      -3.059  10.449  15.015  0.00  0.00    +0.000 C 
ENDBRANCH   6  13
BRANCH   1  15
ATOM     15  O   UNL     1      -5.201  12.081  18.441  0.00  0.00    +0.000 OA
BRANCH  15  17
ATOM     16  C   UNL     1      -7.242  11.281  19.411  0.00  0.00    +0.000 C 
ATOM     17  C   UNL     1      -5.909  11.952  19.676  0.00  0.00    +0.000 C 
ENDBRANCH  15  17
ENDBRANCH   1  15
BRANCH  12  18
ATOM     18  C   UNL     1       0.009  12.976  20.749  0.00  0.00    +0.000 C 
BRANCH  18  19
ATOM     19  C   UNL     1      -0.733  14.283  20.867  0.00  0.00    +0.000 A 
ATOM     20  C   UNL     1      -0.658  15.372  20.010  0.00  0.00    +0.000 A 
ATOM     21  C   UNL     1       0.073  15.601  18.734  0.00  0.00    +0.000 C 
ATOM     22  N   UNL     1      -1.455  16.363  20.520  0.00  0.00    +0.000 N 
ATOM     23  C   UNL     1      -2.089  15.936  21.659  0.00  0.00    +0.000 A 
ATOM     24  C   UNL     1      -2.997  16.609  22.482  0.00  0.00    +0.000 A 
ATOM     25  C   UNL     1      -3.509  15.918  23.585  0.00  0.00    +0.000 A 
ATOM     26  C   UNL     1      -3.127  14.604  23.852  0.00  0.00    +0.000 A 
ATOM     27  C   UNL     1      -2.201  13.959  23.018  0.00  0.00    +0.000 A 
ATOM     28  C   UNL     1      -1.669  14.632  21.898  0.00  0.00    +0.000 A 
ATOM     29  H   UNL     1      -1.580  17.277  20.108  0.00  0.00    +0.000 HD
BRANCH  26  30
ATOM     30  O   UNL     1      -3.584  13.838  24.893  0.00  0.00    +0.000 OA
ATOM     31  C   UNL     1      -4.165  12.584  24.557  0.00  0.00    +0.000 C 
ENDBRANCH  26  30
ENDBRANCH  18  19
ENDBRANCH  12  18
TORSDOF 6
ENDMDL
MODEL 9
REMARK VINA RESULT:      -6.2      3.406      7.252
REMARK  Name = 
REMARK  10 active torsions:
REMARK  status: ('A' for Active; 'I' for Inactive)
REMARK    1  A    between atoms: C_1  and  C_2
REMARK    2  A    between atoms: C_2  and  O_3
REMARK    3  A    between atoms: O_3  and  C_4
REMARK    4  A    between atoms: C_9  and  O_10
REMARK    5  A    between atoms: O_10  and  C_11
REMARK    6  A    between atoms: C_17  and  C_18
REMARK    7  A    between atoms: C_18  and  C_19
REMARK    8  A    between atoms: C_20  and  C_21
REMARK    9  A    between atoms: C_26  and  O_27
REMARK   10  A    between atoms: O_27  and  C_28
REMARK                            x       y       z     vdW  Elec       q    Type
REMARK                         _______ _______ _______ _____ _____    ______ ____
ROOT
ATOM      1  C   UNL     1      -3.194  11.685  18.616  0.00  0.00    +0.000 A 
ATOM      2  C   UNL     1      -2.335  11.733  19.722  0.00  0.00    +0.000 A 
ATOM      3  C   UNL     1      -1.072  11.133  19.691  0.00  0.00    +0.000 A 
ATOM      4  C   UNL     1      -0.656  10.454  18.542  0.00  0.00    +0.000 A 
ATOM      5  C   UNL     1      -1.467  10.469  17.408  0.00  0.00    +0.000 A 
ATOM      6  C   UNL     1      -2.735  11.077  17.430  0.00  0.00    +0.000 A 
ATOM      7  C   UNL     1       0.661   9.729  18.596  0.00  0.00    +0.000 C 
ATOM      8  C   UNL     1       0.775   9.038  19.959  0.00  0.00    +0.000 C 
ATOM      9  N   UNL     1       0.500   9.907  21.106  0.00  0.00    +0.000 N 
ATOM     10  C   UNL     1       0.621   9.413  22.387  0.00  0.00    +0.000 C 
ATOM     11  O   UNL     1       0.330  10.008  23.416  0.00  0.00    +0.000 OA
ATOM     12  C   UNL     1      -0.146  11.222  20.892  0.00  0.00    +0.000 C 
ENDROOT
BRANCH   6  13
ATOM     13  O   UNL     1      -3.368  10.965  16.221  0.00  0.00    +0.000 OA
ATOM     14  C   UNL     1      -2.769  10.176  15.206  0.00  0.00    +0.000 C 
ENDBRANCH   6  13
BRANCH   1  15
ATOM     15  O   UNL     1      -4.458  12.219  18.656  0.00  0.00    +0.000 OA
BRANCH  15  17
ATOM     16  C   UNL     1      -6.714  11.812  17.957  0.00  0.00    +0.000 C 
ATOM     17  C   UNL     1      -5.546  11.300  18.776  0.00  0.00    +0.000 C 
ENDBRANCH  15  17
ENDBRANCH   1  15
BRANCH  12  18
ATOM     18  C   UNL     1       0.914  12.344  20.752  0.00  0.00    +0.000 C 
BRANCH  18  19
ATOM     19  C   UNL     1       0.395  13.743  20.962  0.00  0.00    +0.000 A 
ATOM     20  C   UNL     1      -0.498  14.171  21.935  0.00  0.00    +0.000 A 
ATOM     21  C   UNL     1      -1.161  13.473  23.071  0.00  0.00    +0.000 C 
ATOM     22  N   UNL     1      -0.736  15.504  21.729  0.00  0.00    +0.000 N 
ATOM     23  C   UNL     1       0.014  15.973  20.682  0.00  0.00    +0.000 A 
ATOM     24  C   UNL     1       0.095  17.263  20.148  0.00  0.00    +0.000 A 
ATOM     25  C   UNL     1       0.968  17.468  19.073  0.00  0.00    +0.000 A 
ATOM     26  C   UNL     1       1.730  16.421  18.556  0.00  0.00    +0.000 A 
ATOM     27  C   UNL     1       1.616  15.134  19.102  0.00  0.00    +0.000 A 
ATOM     28  C   UNL     1       0.744  14.899  20.186  0.00  0.00    +0.000 A 
ATOM     29  H   UNL     1      -1.360  16.075  22.283  0.00  0.00    +0.000 HD
BRANCH  26  30
ATOM     30  O   UNL     1       2.623  16.523  17.522  0.00  0.00    +0.000 OA
ATOM     31  C   UNL     1       3.708  15.603  17.521  0.00  0.00    +0.000 C 
ENDBRANCH  26  30
ENDBRANCH  18  19
ENDBRANCH  12  18
TORSDOF 6
ENDMDL
