MODEL 1
REMARK VINA RESULT:      -7.7      0.000      0.000
REMARK  Name = 
REMARK  5 active torsions:
REMARK  status: ('A' for Active; 'I' for Inactive)
REMARK    1  A    between atoms: C_2  and  O_3
REMARK    2  A    between atoms: C_2  and  C_4
REMARK    3  A    between atoms: C_4  and  C_5
REMARK    4  A    between atoms: C_5  and  C_6
REMARK    5  A    between atoms: C_10  and  C_12
REMARK                            x       y       z     vdW  Elec       q    Type
REMARK                         _______ _______ _______ _____ _____    ______ ____
ROOT
ATOM      1  C   UNL     1       6.707   5.274  15.156  0.00  0.00    +0.000 C 
ATOM      2  C   UNL     1       7.330   5.129  16.564  0.00  0.00    +0.000 C 
ATOM      3  C   UNL     1       6.447   4.368  17.563  0.00  0.00    +0.000 C 
ATOM      4  N   UNL     1       5.057   4.842  17.536  0.00  0.00    +0.000 N 
ATOM      5  C   UNL     1       4.432   5.232  18.711  0.00  0.00    +0.000 C 
ATOM      6  O   UNL     1       5.049   5.268  19.783  0.00  0.00    +0.000 OA
ATOM      7  C   UNL     1       4.451   4.826  16.210  0.00  0.00    +0.000 C 
ATOM      8  C   UNL     1       5.252   5.759  15.306  0.00  0.00    +0.000 C 
ENDROOT
BRANCH   5   9
ATOM      9  C   UNL     1       2.935   5.611  18.675  0.00  0.00    +0.000 C 
ATOM     10  C   UNL     1       2.345   5.985  20.042  0.00  0.00    +0.000 C 
ATOM     11  C   UNL     1       2.184   4.788  20.972  0.00  0.00    +0.000 C 
ATOM     12  C   UNL     1       1.403   3.654  20.333  0.00  0.00    +0.000 C 
ATOM     13  F   UNL     1       0.090   4.004  20.297  0.00  0.00    +0.000 F 
ATOM     14  F   UNL     1       1.482   2.561  21.136  0.00  0.00    +0.000 F 
ATOM     15  C   UNL     1       1.851   3.287  18.933  0.00  0.00    +0.000 C 
ATOM     16  C   UNL     1       2.068   4.507  18.035  0.00  0.00    +0.000 C 
ENDBRANCH   5   9
BRANCH   1  17
ATOM     17  C   UNL     1       6.832   3.974  14.330  0.00  0.00    +0.000 C 
BRANCH  17  18
ATOM     18  C   UNL     1       6.668   4.203  12.820  0.00  0.00    +0.000 C 
BRANCH  18  20
ATOM     19  O   UNL     1       4.559   3.432  11.910  0.00  0.00    +0.000 OA
ATOM     20  C   UNL     1       5.724   3.205  12.195  0.00  0.00    +0.000 C 
BRANCH  20  21
ATOM     21  O   UNL     1       6.323   2.028  11.903  0.00  0.00    +0.000 OA
ATOM     22  H   UNL     1       6.355   1.814  10.951  0.00  0.00    +0.000 HD
ENDBRANCH  20  21
ENDBRANCH  18  20
ENDBRANCH  17  18
ENDBRANCH   1  17
TORSDOF 5
ENDMDL
MODEL 2
REMARK VINA RESULT:      -7.6      2.720      3.576
REMARK  Name = 
REMARK  5 active torsions:
REMARK  status: ('A' for Active; 'I' for Inactive)
REMARK    1  A    between atoms: C_2  and  O_3
REMARK    2  A    between atoms: C_2  and  C_4
REMARK    3  A    between atoms: C_4  and  C_5
REMARK    4  A    between atoms: C_5  and  C_6
REMARK    5  A    between atoms: C_10  and  C_12
REMARK                            x       y       z     vdW  Elec       q    Type
REMARK                         _______ _______ _______ _____ _____    ______ ____
ROOT
ATOM      1  C   UNL     1       5.871   5.338  15.241  0.00  0.00    +0.000 C 
ATOM      2  C   UNL     1       5.006   6.509  15.760  0.00  0.00    +0.000 C 
ATOM      3  C   UNL     1       4.480   6.312  17.189  0.00  0.00    +0.000 C 
ATOM      4  N   UNL     1       3.908   4.974  17.382  0.00  0.00    +0.000 N 
ATOM      5  C   UNL     1       2.626   4.832  17.891  0.00  0.00    +0.000 C 
ATOM      6  O   UNL     1       1.913   5.818  18.113  0.00  0.00    +0.000 OA
ATOM      7  C   UNL     1       4.809   3.886  17.020  0.00  0.00    +0.000 C 
ATOM      8  C   UNL     1       5.141   4.014  15.536  0.00  0.00    +0.000 C 
ENDROOT
BRANCH   5   9
ATOM      9  C   UNL     1       2.093   3.416  18.198  0.00  0.00    +0.000 C 
ATOM     10  C   UNL     1       0.779   3.393  18.992  0.00  0.00    +0.000 C 
ATOM     11  C   UNL     1       0.951   3.818  20.446  0.00  0.00    +0.000 C 
ATOM     12  C   UNL     1       2.033   3.027  21.160  0.00  0.00    +0.000 C 
ATOM     13  F   UNL     1       1.556   1.779  21.414  0.00  0.00    +0.000 F 
ATOM     14  F   UNL     1       2.266   3.597  22.370  0.00  0.00    +0.000 F 
ATOM     15  C   UNL     1       3.337   2.907  20.397  0.00  0.00    +0.000 C 
ATOM     16  C   UNL     1       3.136   2.543  18.924  0.00  0.00    +0.000 C 
ENDBRANCH   5   9
BRANCH   1  17
ATOM     17  C   UNL     1       7.307   5.380  15.812  0.00  0.00    +0.000 C 
BRANCH  17  18
ATOM     18  C   UNL     1       7.399   6.125  17.152  0.00  0.00    +0.000 C 
BRANCH  18  20
ATOM     19  O   UNL     1       7.653   5.458  19.466  0.00  0.00    +0.000 OA
ATOM     20  C   UNL     1       7.811   5.212  18.281  0.00  0.00    +0.000 C 
BRANCH  20  21
ATOM     21  O   UNL     1       8.315   4.035  17.847  0.00  0.00    +0.000 OA
ATOM     22  H   UNL     1       8.151   3.847  16.903  0.00  0.00    +0.000 HD
ENDBRANCH  20  21
ENDBRANCH  18  20
ENDBRANCH  17  18
ENDBRANCH   1  17
TORSDOF 5
ENDMDL
MODEL 3
REMARK VINA RESULT:      -7.5      3.254      5.244
REMARK  Name = 
REMARK  5 active torsions:
REMARK  status: ('A' for Active; 'I' for Inactive)
REMARK    1  A    between atoms: C_2  and  O_3
REMARK    2  A    between atoms: C_2  and  C_4
REMARK    3  A    between atoms: C_4  and  C_5
REMARK    4  A    between atoms: C_5  and  C_6
REMARK    5  A    between atoms: C_10  and  C_12
REMARK                            x       y       z     vdW  Elec       q    Type
REMARK                         _______ _______ _______ _____ _____    ______ ____
ROOT
ATOM      1  C   UNL     1       7.745   6.711  17.593  0.00  0.00    +0.000 C 
ATOM      2  C   UNL     1       6.447   7.046  16.824  0.00  0.00    +0.000 C 
ATOM      3  C   UNL     1       5.170   6.918  17.665  0.00  0.00    +0.000 C 
ATOM      4  N   UNL     1       5.141   5.664  18.430  0.00  0.00    +0.000 N 
ATOM      5  C   UNL     1       4.047   4.818  18.337  0.00  0.00    +0.000 C 
ATOM      6  O   UNL     1       3.118   5.056  17.556  0.00  0.00    +0.000 OA
ATOM      7  C   UNL     1       6.320   5.451  19.262  0.00  0.00    +0.000 C 
ATOM      8  C   UNL     1       7.543   5.385  18.351  0.00  0.00    +0.000 C 
ENDROOT
BRANCH   5   9
ATOM      9  C   UNL     1       3.987   3.567  19.241  0.00  0.00    +0.000 C 
ATOM     10  C   UNL     1       3.746   2.253  18.486  0.00  0.00    +0.000 C 
ATOM     11  C   UNL     1       2.326   2.126  17.944  0.00  0.00    +0.000 C 
ATOM     12  C   UNL     1       1.272   2.341  19.015  0.00  0.00    +0.000 C 
ATOM     13  F   UNL     1       1.238   1.239  19.811  0.00  0.00    +0.000 F 
ATOM     14  F   UNL     1       0.053   2.418  18.422  0.00  0.00    +0.000 F 
ATOM     15  C   UNL     1       1.491   3.564  19.883  0.00  0.00    +0.000 C 
ATOM     16  C   UNL     1       2.938   3.706  20.362  0.00  0.00    +0.000 C 
ENDBRANCH   5   9
BRANCH   1  17
ATOM     17  C   UNL     1       8.192   7.872  18.511  0.00  0.00    +0.000 C 
BRANCH  17  18
ATOM     18  C   UNL     1       8.103   9.245  17.830  0.00  0.00    +0.000 C 
BRANCH  18  20
ATOM     19  O   UNL     1       9.504  10.113  19.605  0.00  0.00    +0.000 OA
ATOM     20  C   UNL     1       8.941  10.283  18.536  0.00  0.00    +0.000 C 
BRANCH  20  21
ATOM     21  O   UNL     1       9.074  11.424  17.822  0.00  0.00    +0.000 OA
ATOM     22  H   UNL     1       8.233  11.799  17.496  0.00  0.00    +0.000 HD
ENDBRANCH  20  21
ENDBRANCH  18  20
ENDBRANCH  17  18
ENDBRANCH   1  17
TORSDOF 5
ENDMDL
MODEL 4
REMARK VINA RESULT:      -7.5      1.109      1.675
REMARK  Name = 
REMARK  5 active torsions:
REMARK  status: ('A' for Active; 'I' for Inactive)
REMARK    1  A    between atoms: C_2  and  O_3
REMARK    2  A    between atoms: C_2  and  C_4
REMARK    3  A    between atoms: C_4  and  C_5
REMARK    4  A    between atoms: C_5  and  C_6
REMARK    5  A    between atoms: C_10  and  C_12
REMARK                            x       y       z     vdW  Elec       q    Type
REMARK                         _______ _______ _______ _____ _____    ______ ____
ROOT
ATOM      1  C   UNL     1       6.301   5.419  15.140  0.00  0.00    +0.000 C 
ATOM      2  C   UNL     1       6.938   5.812  16.492  0.00  0.00    +0.000 C 
ATOM      3  C   UNL     1       6.906   4.696  17.546  0.00  0.00    +0.000 C 
ATOM      4  N   UNL     1       5.583   4.063  17.634  0.00  0.00    +0.000 N 
ATOM      5  C   UNL     1       4.942   3.958  18.859  0.00  0.00    +0.000 C 
ATOM      6  O   UNL     1       5.426   4.462  19.880  0.00  0.00    +0.000 OA
ATOM      7  C   UNL     1       5.076   3.570  16.358  0.00  0.00    +0.000 C 
ATOM      8  C   UNL     1       4.936   4.757  15.408  0.00  0.00    +0.000 C 
ENDROOT
BRANCH   5   9
ATOM      9  C   UNL     1       3.609   3.183  18.944  0.00  0.00    +0.000 C 
ATOM     10  C   UNL     1       2.450   3.834  18.176  0.00  0.00    +0.000 C 
ATOM     11  C   UNL     1       1.936   5.109  18.837  0.00  0.00    +0.000 C 
ATOM     12  C   UNL     1       1.576   4.904  20.297  0.00  0.00    +0.000 C 
ATOM     13  F   UNL     1       0.407   4.211  20.359  0.00  0.00    +0.000 F 
ATOM     14  F   UNL     1       1.328   6.114  20.862  0.00  0.00    +0.000 F 
ATOM     15  C   UNL     1       2.623   4.171  21.111  0.00  0.00    +0.000 C 
ATOM     16  C   UNL     1       3.172   2.931  20.401  0.00  0.00    +0.000 C 
ENDBRANCH   5   9
BRANCH   1  17
ATOM     17  C   UNL     1       7.245   4.540  14.288  0.00  0.00    +0.000 C 
BRANCH  17  18
ATOM     18  C   UNL     1       6.962   4.638  12.782  0.00  0.00    +0.000 C 
BRANCH  18  20
ATOM     19  O   UNL     1       4.979   3.377  12.191  0.00  0.00    +0.000 OA
ATOM     20  C   UNL     1       6.196   3.442  12.270  0.00  0.00    +0.000 C 
BRANCH  20  21
ATOM     21  O   UNL     1       7.003   2.452  11.827  0.00  0.00    +0.000 OA
ATOM     22  H   UNL     1       7.910   2.476  12.189  0.00  0.00    +0.000 HD
ENDBRANCH  20  21
ENDBRANCH  18  20
ENDBRANCH  17  18
ENDBRANCH   1  17
TORSDOF 5
ENDMDL
MODEL 5
REMARK VINA RESULT:      -7.3      0.880      1.004
REMARK  Name = 
REMARK  5 active torsions:
REMARK  status: ('A' for Active; 'I' for Inactive)
REMARK    1  A    between atoms: C_2  and  O_3
REMARK    2  A    between atoms: C_2  and  C_4
REMARK    3  A    between atoms: C_4  and  C_5
REMARK    4  A    between atoms: C_5  and  C_6
REMARK    5  A    between atoms: C_10  and  C_12
REMARK                            x       y       z     vdW  Elec       q    Type
REMARK                         _______ _______ _______ _____ _____    ______ ____
ROOT
ATOM      1  C   UNL     1       6.651   5.747  15.446  0.00  0.00    +0.000 C 
ATOM      2  C   UNL     1       7.228   5.771  16.880  0.00  0.00    +0.000 C 
ATOM      3  C   UNL     1       6.568   4.769  17.837  0.00  0.00    +0.000 C 
ATOM      4  N   UNL     1       5.103   4.812  17.750  0.00  0.00    +0.000 N 
ATOM      5  C   UNL     1       4.342   4.983  18.896  0.00  0.00    +0.000 C 
ATOM      6  O   UNL     1       4.875   5.184  19.994  0.00  0.00    +0.000 OA
ATOM      7  C   UNL     1       4.585   4.637  16.397  0.00  0.00    +0.000 C 
ATOM      8  C   UNL     1       5.113   5.778  15.531  0.00  0.00    +0.000 C 
ENDROOT
BRANCH   5   9
ATOM      9  C   UNL     1       2.803   4.904  18.793  0.00  0.00    +0.000 C 
ATOM     10  C   UNL     1       2.061   5.393  20.046  0.00  0.00    +0.000 C 
ATOM     11  C   UNL     1       2.191   4.440  21.228  0.00  0.00    +0.000 C 
ATOM     12  C   UNL     1       1.792   3.017  20.878  0.00  0.00    +0.000 C 
ATOM     13  F   UNL     1       0.437   2.963  20.779  0.00  0.00    +0.000 F 
ATOM     14  F   UNL     1       2.130   2.200  21.909  0.00  0.00    +0.000 F 
ATOM     15  C   UNL     1       2.398   2.488  19.594  0.00  0.00    +0.000 C 
ATOM     16  C   UNL     1       2.313   3.486  18.437  0.00  0.00    +0.000 C 
ENDBRANCH   5   9
BRANCH   1  17
ATOM     17  C   UNL     1       7.188   4.553  14.624  0.00  0.00    +0.000 C 
BRANCH  17  18
ATOM     18  C   UNL     1       6.080   3.769  13.907  0.00  0.00    +0.000 C 
BRANCH  18  20
ATOM     19  O   UNL     1       7.280   4.163  11.839  0.00  0.00    +0.000 OA
ATOM     20  C   UNL     1       6.326   3.671  12.420  0.00  0.00    +0.000 C 
BRANCH  20  21
ATOM     21  O   UNL     1       5.409   2.906  11.786  0.00  0.00    +0.000 OA
ATOM     22  H   UNL     1       5.094   2.139  12.302  0.00  0.00    +0.000 HD
ENDBRANCH  20  21
ENDBRANCH  18  20
ENDBRANCH  17  18
ENDBRANCH   1  17
TORSDOF 5
ENDMDL
MODEL 6
REMARK VINA RESULT:      -7.3      0.910      1.079
REMARK  Name = 
REMARK  5 active torsions:
REMARK  status: ('A' for Active; 'I' for Inactive)
REMARK    1  A    between atoms: C_2  and  O_3
REMARK    2  A    between atoms: C_2  and  C_4
REMARK    3  A    between atoms: C_4  and  C_5
REMARK    4  A    between atoms: C_5  and  C_6
REMARK    5  A    between atoms: C_10  and  C_12
REMARK                            x       y       z     vdW  Elec       q    Type
REMARK                         _______ _______ _______ _____ _____    ______ ____
ROOT
ATOM      1  C   UNL     1       6.490   5.414  14.898  0.00  0.00    +0.000 C 
ATOM      2  C   UNL     1       7.087   5.615  16.310  0.00  0.00    +0.000 C 
ATOM      3  C   UNL     1       6.661   4.548  17.328  0.00  0.00    +0.000 C 
ATOM      4  N   UNL     1       5.215   4.298  17.287  0.00  0.00    +0.000 N 
ATOM      5  C   UNL     1       4.464   4.369  18.450  0.00  0.00    +0.000 C 
ATOM      6  O   UNL     1       4.974   4.719  19.521  0.00  0.00    +0.000 OA
ATOM      7  C   UNL     1       4.708   3.965  15.960  0.00  0.00    +0.000 C 
ATOM      8  C   UNL     1       4.979   5.147  15.034  0.00  0.00    +0.000 C 
ENDROOT
BRANCH   5   9
ATOM      9  C   UNL     1       2.968   3.985  18.402  0.00  0.00    +0.000 C 
ATOM     10  C   UNL     1       2.039   4.975  19.119  0.00  0.00    +0.000 C 
ATOM     11  C   UNL     1       2.168   4.925  20.637  0.00  0.00    +0.000 C 
ATOM     12  C   UNL     1       2.000   3.521  21.190  0.00  0.00    +0.000 C 
ATOM     13  F   UNL     1       0.682   3.191  21.132  0.00  0.00    +0.000 F 
ATOM     14  F   UNL     1       2.331   3.526  22.508  0.00  0.00    +0.000 F 
ATOM     15  C   UNL     1       2.804   2.457  20.471  0.00  0.00    +0.000 C 
ATOM     16  C   UNL     1       2.711   2.565  18.947  0.00  0.00    +0.000 C 
ENDBRANCH   5   9
BRANCH   1  17
ATOM     17  C   UNL     1       7.232   4.313  14.106  0.00  0.00    +0.000 C 
BRANCH  17  18
ATOM     18  C   UNL     1       6.942   4.359  12.599  0.00  0.00    +0.000 C 
BRANCH  18  20
ATOM     19  O   UNL     1       4.783   3.429  12.016  0.00  0.00    +0.000 OA
ATOM     20  C   UNL     1       5.983   3.273  12.173  0.00  0.00    +0.000 C 
BRANCH  20  21
ATOM     21  O   UNL     1       6.602   2.102  11.904  0.00  0.00    +0.000 OA
ATOM     22  H   UNL     1       6.629   1.866  10.956  0.00  0.00    +0.000 HD
ENDBRANCH  20  21
ENDBRANCH  18  20
ENDBRANCH  17  18
ENDBRANCH   1  17
TORSDOF 5
ENDMDL
MODEL 7
REMARK VINA RESULT:      -7.3      2.843      4.932
REMARK  Name = 
REMARK  5 active torsions:
REMARK  status: ('A' for Active; 'I' for Inactive)
REMARK    1  A    between atoms: C_2  and  O_3
REMARK    2  A    between atoms: C_2  and  C_4
REMARK    3  A    between atoms: C_4  and  C_5
REMARK    4  A    between atoms: C_5  and  C_6
REMARK    5  A    between atoms: C_10  and  C_12
REMARK                            x       y       z     vdW  Elec       q    Type
REMARK                         _______ _______ _______ _____ _____    ______ ____
ROOT
ATOM      1  C   UNL     1       7.392   6.327  17.081  0.00  0.00    +0.000 C 
ATOM      2  C   UNL     1       6.280   6.030  16.050  0.00  0.00    +0.000 C 
ATOM      3  C   UNL     1       4.878   5.896  16.662  0.00  0.00    +0.000 C 
ATOM      4  N   UNL     1       4.880   5.033  17.850  0.00  0.00    +0.000 N 
ATOM      5  C   UNL     1       4.000   3.965  17.935  0.00  0.00    +0.000 C 
ATOM      6  O   UNL     1       3.260   3.669  16.989  0.00  0.00    +0.000 OA
ATOM      7  C   UNL     1       5.844   5.431  18.870  0.00  0.00    +0.000 C 
ATOM      8  C   UNL     1       7.242   5.352  18.265  0.00  0.00    +0.000 C 
ENDROOT
BRANCH   5   9
ATOM      9  C   UNL     1       3.939   3.146  19.243  0.00  0.00    +0.000 C 
ATOM     10  C   UNL     1       3.045   1.899  19.166  0.00  0.00    +0.000 C 
ATOM     11  C   UNL     1       1.558   2.231  19.116  0.00  0.00    +0.000 C 
ATOM     12  C   UNL     1       1.126   3.143  20.250  0.00  0.00    +0.000 C 
ATOM     13  F   UNL     1       1.087   2.414  21.396  0.00  0.00    +0.000 F 
ATOM     14  F   UNL     1      -0.148   3.556  20.020  0.00  0.00    +0.000 F 
ATOM     15  C   UNL     1       2.016   4.350  20.467  0.00  0.00    +0.000 C 
ATOM     16  C   UNL     1       3.507   4.003  20.450  0.00  0.00    +0.000 C 
ENDBRANCH   5   9
BRANCH   1  17
ATOM     17  C   UNL     1       7.402   7.810  17.514  0.00  0.00    +0.000 C 
BRANCH  17  18
ATOM     18  C   UNL     1       8.479   8.124  18.563  0.00  0.00    +0.000 C 
BRANCH  18  20
ATOM     19  O   UNL     1       8.429  10.430  17.822  0.00  0.00    +0.000 OA
ATOM     20  C   UNL     1       8.770   9.603  18.652  0.00  0.00    +0.000 C 
BRANCH  20  21
ATOM     21  O   UNL     1       9.397   9.946  19.800  0.00  0.00    +0.000 OA
ATOM     22  H   UNL     1       9.474   9.222  20.452  0.00  0.00    +0.000 HD
ENDBRANCH  20  21
ENDBRANCH  18  20
ENDBRANCH  17  18
ENDBRANCH   1  17
TORSDOF 5
ENDMDL
MODEL 8
REMARK VINA RESULT:      -7.1      4.717      7.502
REMARK  Name = 
REMARK  5 active torsions:
REMARK  status: ('A' for Active; 'I' for Inactive)
REMARK    1  A    between atoms: C_2  and  O_3
REMARK    2  A    between atoms: C_2  and  C_4
REMARK    3  A    between atoms: C_4  and  C_5
REMARK    4  A    between atoms: C_5  and  C_6
REMARK    5  A    between atoms: C_10  and  C_12
REMARK                            x       y       z     vdW  Elec       q    Type
REMARK                         _______ _______ _______ _____ _____    ______ ____
ROOT
ATOM      1  C   UNL     1       0.372  10.114  19.228  0.00  0.00    +0.000 C 
ATOM      2  C   UNL     1       0.166   9.276  20.511  0.00  0.00    +0.000 C 
ATOM      3  C   UNL     1       1.387   8.436  20.913  0.00  0.00    +0.000 C 
ATOM      4  N   UNL     1       1.950   7.706  19.769  0.00  0.00    +0.000 N 
ATOM      5  C   UNL     1       2.151   6.337  19.849  0.00  0.00    +0.000 C 
ATOM      6  O   UNL     1       1.791   5.694  20.843  0.00  0.00    +0.000 OA
ATOM      7  C   UNL     1       2.271   8.553  18.626  0.00  0.00    +0.000 C 
ATOM      8  C   UNL     1       0.982   9.210  18.139  0.00  0.00    +0.000 C 
ENDROOT
BRANCH   5   9
ATOM      9  C   UNL     1       2.855   5.613  18.681  0.00  0.00    +0.000 C 
ATOM     10  C   UNL     1       1.902   4.872  17.732  0.00  0.00    +0.000 C 
ATOM     11  C   UNL     1       1.294   3.619  18.353  0.00  0.00    +0.000 C 
ATOM     12  C   UNL     1       2.344   2.678  18.915  0.00  0.00    +0.000 C 
ATOM     13  F   UNL     1       2.963   2.056  17.877  0.00  0.00    +0.000 F 
ATOM     14  F   UNL     1       1.723   1.702  19.626  0.00  0.00    +0.000 F 
ATOM     15  C   UNL     1       3.392   3.345  19.782  0.00  0.00    +0.000 C 
ATOM     16  C   UNL     1       3.943   4.635  19.169  0.00  0.00    +0.000 C 
ENDBRANCH   5   9
BRANCH   1  17
ATOM     17  C   UNL     1       1.205  11.388  19.495  0.00  0.00    +0.000 C 
BRANCH  17  18
ATOM     18  C   UNL     1       0.805  12.567  18.595  0.00  0.00    +0.000 C 
BRANCH  18  20
ATOM     19  O   UNL     1      -1.360  13.100  19.544  0.00  0.00    +0.000 OA
ATOM     20  C   UNL     1      -0.689  12.782  18.575  0.00  0.00    +0.000 C 
BRANCH  20  21
ATOM     21  O   UNL     1      -1.220  12.659  17.337  0.00  0.00    +0.000 OA
ATOM     22  H   UNL     1      -1.012  13.398  16.732  0.00  0.00    +0.000 HD
ENDBRANCH  20  21
ENDBRANCH  18  20
ENDBRANCH  17  18
ENDBRANCH   1  17
TORSDOF 5
ENDMDL
MODEL 9
REMARK VINA RESULT:      -7.1      3.009      3.938
REMARK  Name = 
REMARK  5 active torsions:
REMARK  status: ('A' for Active; 'I' for Inactive)
REMARK    1  A    between atoms: C_2  and  O_3
REMARK    2  A    between atoms: C_2  and  C_4
REMARK    3  A    between atoms: C_4  and  C_5
REMARK    4  A    between atoms: C_5  and  C_6
REMARK    5  A    between atoms: C_10  and  C_12
REMARK                            x       y       z     vdW  Elec       q    Type
REMARK                         _______ _______ _______ _____ _____    ______ ____
ROOT
ATOM      1  C   UNL     1       6.088   5.204  15.544  0.00  0.00    +0.000 C 
ATOM      2  C   UNL     1       5.037   6.307  15.807  0.00  0.00    +0.000 C 
ATOM      3  C   UNL     1       4.339   6.193  17.169  0.00  0.00    +0.000 C 
ATOM      4  N   UNL     1       3.893   4.821  17.443  0.00  0.00    +0.000 N 
ATOM      5  C   UNL     1       2.574   4.576  17.796  0.00  0.00    +0.000 C 
ATOM      6  O   UNL     1       1.735   5.485  17.807  0.00  0.00    +0.000 OA
ATOM      7  C   UNL     1       4.948   3.821  17.330  0.00  0.00    +0.000 C 
ATOM      8  C   UNL     1       5.470   3.837  15.895  0.00  0.00    +0.000 C 
ENDROOT
BRANCH   5   9
ATOM      9  C   UNL     1       2.159   3.143  18.195  0.00  0.00    +0.000 C 
ATOM     10  C   UNL     1       0.824   3.060  18.950  0.00  0.00    +0.000 C 
ATOM     11  C   UNL     1       0.906   3.605  20.372  0.00  0.00    +0.000 C 
ATOM     12  C   UNL     1       2.027   2.971  21.175  0.00  0.00    +0.000 C 
ATOM     13  F   UNL     1       1.654   1.707  21.511  0.00  0.00    +0.000 F 
ATOM     14  F   UNL     1       2.166   3.648  22.345  0.00  0.00    +0.000 F 
ATOM     15  C   UNL     1       3.363   2.914  20.462  0.00  0.00    +0.000 C 
ATOM     16  C   UNL     1       3.249   2.426  19.016  0.00  0.00    +0.000 C 
ENDBRANCH   5   9
BRANCH   1  17
ATOM     17  C   UNL     1       7.416   5.479  16.286  0.00  0.00    +0.000 C 
BRANCH  17  18
ATOM     18  C   UNL     1       7.209   6.014  17.710  0.00  0.00    +0.000 C 
BRANCH  18  20
ATOM     19  O   UNL     1       7.622   8.343  17.189  0.00  0.00    +0.000 OA
ATOM     20  C   UNL     1       7.833   7.375  17.901  0.00  0.00    +0.000 C 
BRANCH  20  21
ATOM     21  O   UNL     1       8.611   7.445  19.006  0.00  0.00    +0.000 OA
ATOM     22  H   UNL     1       9.008   6.594  19.277  0.00  0.00    +0.000 HD
ENDBRANCH  20  21
ENDBRANCH  18  20
ENDBRANCH  17  18
ENDBRANCH   1  17
TORSDOF 5
ENDMDL
