MODEL 1
REMARK VINA RESULT:      -7.6      0.000      0.000
REMARK  Name = 
REMARK  8 active torsions:
REMARK  status: ('A' for Active; 'I' for Inactive)
REMARK    1  A    between atoms: C_1  and  C_2
REMARK    2  A    between atoms: C_8  and  S_9
REMARK    3  A    between atoms: S_9  and  N_12
REMARK    4  A    between atoms: N_12  and  C_13
REMARK    5  A    between atoms: C_18  and  O_19
REMARK    6  A    between atoms: O_19  and  C_20
REMARK    7  A    between atoms: N_26  and  C_27
REMARK    8  A    between atoms: N_30  and  C_31
REMARK                            x       y       z     vdW  Elec       q    Type
REMARK                         _______ _______ _______ _____ _____    ______ ____
ROOT
ATOM      1  C   UNL     1      -0.448  10.986  19.952  0.00  0.00    +0.000 A 
ATOM      2  C   UNL     1      -0.897  10.699  18.653  0.00  0.00    +0.000 A 
ATOM      3  C   UNL     1      -2.167  11.128  18.309  0.00  0.00    +0.000 A 
ATOM      4  C   UNL     1      -2.949  11.891  19.177  0.00  0.00    +0.000 A 
ATOM      5  C   UNL     1      -2.487  12.270  20.414  0.00  0.00    +0.000 A 
ATOM      6  C   UNL     1      -1.257  11.744  20.839  0.00  0.00    +0.000 A 
ATOM      7  N   UNL     1      -4.195  12.093  18.579  0.00  0.00    +0.000 N 
ATOM      8  C   UNL     1      -5.341  12.723  19.169  0.00  0.00    +0.000 C 
ATOM      9  C   UNL     1      -4.210  11.454  17.319  0.00  0.00    +0.000 A 
ATOM     10  O   UNL     1      -5.149  11.395  16.542  0.00  0.00    +0.000 OA
ATOM     11  N   UNL     1      -2.928  10.881  17.159  0.00  0.00    +0.000 N 
ATOM     12  C   UNL     1      -2.501  10.122  16.019  0.00  0.00    +0.000 C 
ENDROOT
BRANCH   1  13
ATOM     13  N   UNL     1       0.803  10.438  20.378  0.00  0.00    +0.000 N 
ATOM     14  H   UNL     1       1.623  10.674  19.822  0.00  0.00    +0.000 HD
BRANCH  13  15
ATOM     15  S   UNL     1       0.871   8.876  21.020  0.00  0.00    +0.000 S 
ATOM     16  O   UNL     1      -0.463   8.310  21.021  0.00  0.00    +0.000 OA
ATOM     17  O   UNL     1       1.623   8.974  22.249  0.00  0.00    +0.000 OA
BRANCH  15  25
ATOM     18  C   UNL     1       1.667   5.724  21.058  0.00  0.00    +0.000 C 
ATOM     19  C   UNL     1       2.162   6.603  19.944  0.00  0.00    +0.000 A 
ATOM     20  C   UNL     1       2.967   6.009  18.952  0.00  0.00    +0.000 A 
ATOM     21  C   UNL     1       3.415   6.742  17.855  0.00  0.00    +0.000 A 
ATOM     22 CL   UNL     1       4.415   5.985  16.673  0.00  0.00    +0.000 Cl
ATOM     23  C   UNL     1       3.057   8.074  17.705  0.00  0.00    +0.000 A 
ATOM     24  C   UNL     1       2.272   8.690  18.681  0.00  0.00    +0.000 A 
ATOM     25  C   UNL     1       1.848   7.974  19.814  0.00  0.00    +0.000 A 
ENDBRANCH  15  25
ENDBRANCH  13  15
ENDBRANCH   1  13
BRANCH   6  26
ATOM     26  O   UNL     1      -0.815  11.918  22.142  0.00  0.00    +0.000 OA
BRANCH  26  27
ATOM     27  C   UNL     1      -1.651  12.600  23.008  0.00  0.00    +0.000 A 
ATOM     28  C   UNL     1      -2.860  12.075  23.481  0.00  0.00    +0.000 A 
ATOM     29  C   UNL     1      -3.688  12.844  24.304  0.00  0.00    +0.000 A 
ATOM     30  C   UNL     1      -3.283  14.112  24.698  0.00  0.00    +0.000 A 
ATOM     31  C   UNL     1      -2.055  14.620  24.272  0.00  0.00    +0.000 A 
ATOM     32  C   UNL     1      -1.240  13.869  23.425  0.00  0.00    +0.000 A 
ENDBRANCH  26  27
ENDBRANCH   6  26
TORSDOF 5
ENDMDL
MODEL 2
REMARK VINA RESULT:      -7.6      4.249      9.218
REMARK  Name = 
REMARK  8 active torsions:
REMARK  status: ('A' for Active; 'I' for Inactive)
REMARK    1  A    between atoms: C_1  and  C_2
REMARK    2  A    between atoms: C_8  and  S_9
REMARK    3  A    between atoms: S_9  and  N_12
REMARK    4  A    between atoms: N_12  and  C_13
REMARK    5  A    between atoms: C_18  and  O_19
REMARK    6  A    between atoms: O_19  and  C_20
REMARK    7  A    between atoms: N_26  and  C_27
REMARK    8  A    between atoms: N_30  and  C_31
REMARK                            x       y       z     vdW  Elec       q    Type
REMARK                         _______ _______ _______ _____ _____    ______ ____
ROOT
ATOM      1  C   UNL     1       3.201   6.966  18.281  0.00  0.00    +0.000 A 
ATOM      2  C   UNL     1       4.477   7.361  17.848  0.00  0.00    +0.000 A 
ATOM      3  C   UNL     1       5.237   6.425  17.170  0.00  0.00    +0.000 A 
ATOM      4  C   UNL     1       4.737   5.163  16.843  0.00  0.00    +0.000 A 
ATOM      5  C   UNL     1       3.454   4.794  17.167  0.00  0.00    +0.000 A 
ATOM      6  C   UNL     1       2.706   5.673  17.966  0.00  0.00    +0.000 A 
ATOM      7  N   UNL     1       5.762   4.430  16.240  0.00  0.00    +0.000 N 
ATOM      8  C   UNL     1       5.719   3.049  15.854  0.00  0.00    +0.000 C 
ATOM      9  C   UNL     1       6.926   5.229  16.180  0.00  0.00    +0.000 A 
ATOM     10  O   UNL     1       8.017   4.895  15.750  0.00  0.00    +0.000 OA
ATOM     11  N   UNL     1       6.569   6.477  16.740  0.00  0.00    +0.000 N 
ATOM     12  C   UNL     1       7.456   7.595  16.891  0.00  0.00    +0.000 C 
ENDROOT
BRANCH   1  13
ATOM     13  N   UNL     1       2.449   7.866  19.101  0.00  0.00    +0.000 N 
ATOM     14  H   UNL     1       1.987   7.469  19.918  0.00  0.00    +0.000 HD
BRANCH  13  15
ATOM     15  S   UNL     1       1.572   9.125  18.395  0.00  0.00    +0.000 S 
ATOM     16  O   UNL     1       0.646   8.569  17.429  0.00  0.00    +0.000 OA
ATOM     17  O   UNL     1       2.540  10.118  17.991  0.00  0.00    +0.000 OA
BRANCH  15  25
ATOM     18  C   UNL     1      -0.555  11.584  18.339  0.00  0.00    +0.000 C 
ATOM     19  C   UNL     1      -0.269  10.877  19.635  0.00  0.00    +0.000 A 
ATOM     20  C   UNL     1      -0.945  11.325  20.786  0.00  0.00    +0.000 A 
ATOM     21  C   UNL     1      -0.781  10.683  22.011  0.00  0.00    +0.000 A 
ATOM     22 CL   UNL     1      -1.610  11.273  23.402  0.00  0.00    +0.000 Cl
ATOM     23  C   UNL     1       0.041   9.570  22.119  0.00  0.00    +0.000 A 
ATOM     24  C   UNL     1       0.733   9.115  20.996  0.00  0.00    +0.000 A 
ATOM     25  C   UNL     1       0.610   9.778  19.762  0.00  0.00    +0.000 A 
ENDBRANCH  15  25
ENDBRANCH  13  15
ENDBRANCH   1  13
BRANCH   6  26
ATOM     26  O   UNL     1       1.483   5.293  18.497  0.00  0.00    +0.000 OA
BRANCH  26  27
ATOM     27  C   UNL     1       1.501   4.379  19.536  0.00  0.00    +0.000 A 
ATOM     28  C   UNL     1       2.012   4.671  20.807  0.00  0.00    +0.000 A 
ATOM     29  C   UNL     1       2.058   3.682  21.792  0.00  0.00    +0.000 A 
ATOM     30  C   UNL     1       1.544   2.420  21.528  0.00  0.00    +0.000 A 
ATOM     31  C   UNL     1       0.985   2.138  20.280  0.00  0.00    +0.000 A 
ATOM     32  C   UNL     1       0.966   3.113  19.283  0.00  0.00    +0.000 A 
ENDBRANCH  26  27
ENDBRANCH   6  26
TORSDOF 5
ENDMDL
MODEL 3
REMARK VINA RESULT:      -7.4      3.223      7.105
REMARK  Name = 
REMARK  8 active torsions:
REMARK  status: ('A' for Active; 'I' for Inactive)
REMARK    1  A    between atoms: C_1  and  C_2
REMARK    2  A    between atoms: C_8  and  S_9
REMARK    3  A    between atoms: S_9  and  N_12
REMARK    4  A    between atoms: N_12  and  C_13
REMARK    5  A    between atoms: C_18  and  O_19
REMARK    6  A    between atoms: O_19  and  C_20
REMARK    7  A    between atoms: N_26  and  C_27
REMARK    8  A    between atoms: N_30  and  C_31
REMARK                            x       y       z     vdW  Elec       q    Type
REMARK                         _______ _______ _______ _____ _____    ______ ____
ROOT
ATOM      1  C   UNL     1      -0.346  11.291  19.826  0.00  0.00    +0.000 A 
ATOM      2  C   UNL     1      -1.690  11.692  19.895  0.00  0.00    +0.000 A 
ATOM      3  C   UNL     1      -2.508  11.363  18.829  0.00  0.00    +0.000 A 
ATOM      4  C   UNL     1      -2.054  10.589  17.760  0.00  0.00    +0.000 A 
ATOM      5  C   UNL     1      -0.771  10.099  17.723  0.00  0.00    +0.000 A 
ATOM      6  C   UNL     1       0.116  10.522  18.725  0.00  0.00    +0.000 A 
ATOM      7  N   UNL     1      -3.080  10.502  16.816  0.00  0.00    +0.000 N 
ATOM      8  C   UNL     1      -3.004   9.901  15.516  0.00  0.00    +0.000 C 
ATOM      9  C   UNL     1      -4.199  11.226  17.285  0.00  0.00    +0.000 A 
ATOM     10  O   UNL     1      -5.257  11.393  16.700  0.00  0.00    +0.000 OA
ATOM     11  N   UNL     1      -3.831  11.732  18.552  0.00  0.00    +0.000 N 
ATOM     12  C   UNL     1      -4.668  12.542  19.390  0.00  0.00    +0.000 C 
ENDROOT
BRANCH   1  13
ATOM     13  N   UNL     1       0.551  11.734  20.848  0.00  0.00    +0.000 N 
ATOM     14  H   UNL     1       0.391  11.378  21.789  0.00  0.00    +0.000 HD
BRANCH  13  15
ATOM     15  S   UNL     1       1.135  13.320  20.835  0.00  0.00    +0.000 S 
ATOM     16  O   UNL     1       0.785  13.940  19.573  0.00  0.00    +0.000 OA
ATOM     17  O   UNL     1       2.515  13.248  21.255  0.00  0.00    +0.000 OA
BRANCH  15  25
ATOM     18  C   UNL     1       1.295  16.424  21.791  0.00  0.00    +0.000 C 
ATOM     19  C   UNL     1       0.351  15.480  22.482  0.00  0.00    +0.000 A 
ATOM     20  C   UNL     1      -0.432  15.994  23.535  0.00  0.00    +0.000 A 
ATOM     21  C   UNL     1      -1.373  15.199  24.184  0.00  0.00    +0.000 A 
ATOM     22 CL   UNL     1      -2.297  15.858  25.481  0.00  0.00    +0.000 Cl
ATOM     23  C   UNL     1      -1.576  13.884  23.792  0.00  0.00    +0.000 A 
ATOM     24  C   UNL     1      -0.804  13.346  22.761  0.00  0.00    +0.000 A 
ATOM     25  C   UNL     1       0.180  14.124  22.124  0.00  0.00    +0.000 A 
ENDBRANCH  15  25
ENDBRANCH  13  15
ENDBRANCH   1  13
BRANCH   6  26
ATOM     26  O   UNL     1       1.471  10.234  18.651  0.00  0.00    +0.000 OA
BRANCH  26  27
ATOM     27  C   UNL     1       1.852   8.922  18.870  0.00  0.00    +0.000 A 
ATOM     28  C   UNL     1       1.580   8.232  20.058  0.00  0.00    +0.000 A 
ATOM     29  C   UNL     1       2.050   6.928  20.238  0.00  0.00    +0.000 A 
ATOM     30  C   UNL     1       2.740   6.295  19.213  0.00  0.00    +0.000 A 
ATOM     31  C   UNL     1       2.968   6.960  18.007  0.00  0.00    +0.000 A 
ATOM     32  C   UNL     1       2.529   8.272  17.835  0.00  0.00    +0.000 A 
ENDBRANCH  26  27
ENDBRANCH   6  26
TORSDOF 5
ENDMDL
MODEL 4
REMARK VINA RESULT:      -7.4      0.814      1.268
REMARK  Name = 
REMARK  8 active torsions:
REMARK  status: ('A' for Active; 'I' for Inactive)
REMARK    1  A    between atoms: C_1  and  C_2
REMARK    2  A    between atoms: C_8  and  S_9
REMARK    3  A    between atoms: S_9  and  N_12
REMARK    4  A    between atoms: N_12  and  C_13
REMARK    5  A    between atoms: C_18  and  O_19
REMARK    6  A    between atoms: O_19  and  C_20
REMARK    7  A    between atoms: N_26  and  C_27
REMARK    8  A    between atoms: N_30  and  C_31
REMARK                            x       y       z     vdW  Elec       q    Type
REMARK                         _______ _______ _______ _____ _____    ______ ____
ROOT
ATOM      1  C   UNL     1      -0.421  10.943  19.887  0.00  0.00    +0.000 A 
ATOM      2  C   UNL     1      -0.920  10.633  18.611  0.00  0.00    +0.000 A 
ATOM      3  C   UNL     1      -2.196  11.071  18.304  0.00  0.00    +0.000 A 
ATOM      4  C   UNL     1      -2.937  11.864  19.181  0.00  0.00    +0.000 A 
ATOM      5  C   UNL     1      -2.426  12.265  20.392  0.00  0.00    +0.000 A 
ATOM      6  C   UNL     1      -1.188  11.732  20.784  0.00  0.00    +0.000 A 
ATOM      7  N   UNL     1      -4.201  12.069  18.623  0.00  0.00    +0.000 N 
ATOM      8  C   UNL     1      -5.317  12.728  19.239  0.00  0.00    +0.000 C 
ATOM      9  C   UNL     1      -4.270  11.402  17.380  0.00  0.00    +0.000 A 
ATOM     10  O   UNL     1      -5.237  11.339  16.638  0.00  0.00    +0.000 OA
ATOM     11  N   UNL     1      -3.001  10.809  17.187  0.00  0.00    +0.000 N 
ATOM     12  C   UNL     1      -2.626  10.018  16.050  0.00  0.00    +0.000 C 
ENDROOT
BRANCH   1  13
ATOM     13  N   UNL     1       0.837  10.388  20.280  0.00  0.00    +0.000 N 
ATOM     14  H   UNL     1       1.640  10.600  19.689  0.00  0.00    +0.000 HD
BRANCH  13  15
ATOM     15  S   UNL     1       0.908   8.841  20.957  0.00  0.00    +0.000 S 
ATOM     16  O   UNL     1      -0.425   8.274  20.974  0.00  0.00    +0.000 OA
ATOM     17  O   UNL     1       1.664   8.967  22.181  0.00  0.00    +0.000 OA
BRANCH  15  25
ATOM     18  C   UNL     1       1.684   5.685  21.048  0.00  0.00    +0.000 C 
ATOM     19  C   UNL     1       2.188   6.542  19.921  0.00  0.00    +0.000 A 
ATOM     20  C   UNL     1       2.991   5.927  18.941  0.00  0.00    +0.000 A 
ATOM     21  C   UNL     1       3.446   6.639  17.834  0.00  0.00    +0.000 A 
ATOM     22 CL   UNL     1       4.444   5.857  16.666  0.00  0.00    +0.000 Cl
ATOM     23  C   UNL     1       3.097   7.971  17.661  0.00  0.00    +0.000 A 
ATOM     24  C   UNL     1       2.314   8.608  18.624  0.00  0.00    +0.000 A 
ATOM     25  C   UNL     1       1.883   7.913  19.768  0.00  0.00    +0.000 A 
ENDBRANCH  15  25
ENDBRANCH  13  15
ENDBRANCH   1  13
BRANCH   6  26
ATOM     26  O   UNL     1      -0.698  11.929  22.066  0.00  0.00    +0.000 OA
BRANCH  26  27
ATOM     27  C   UNL     1      -0.570  13.236  22.502  0.00  0.00    +0.000 A 
ATOM     28  C   UNL     1      -1.345  13.780  23.533  0.00  0.00    +0.000 A 
ATOM     29  C   UNL     1      -1.210  15.127  23.881  0.00  0.00    +0.000 A 
ATOM     30  C   UNL     1      -0.263  15.913  23.238  0.00  0.00    +0.000 A 
ATOM     31  C   UNL     1       0.548  15.363  22.246  0.00  0.00    +0.000 A 
ATOM     32  C   UNL     1       0.394  14.028  21.873  0.00  0.00    +0.000 A 
ENDBRANCH  26  27
ENDBRANCH   6  26
TORSDOF 5
ENDMDL
MODEL 5
REMARK VINA RESULT:      -7.3      3.444      4.435
REMARK  Name = 
REMARK  8 active torsions:
REMARK  status: ('A' for Active; 'I' for Inactive)
REMARK    1  A    between atoms: C_1  and  C_2
REMARK    2  A    between atoms: C_8  and  S_9
REMARK    3  A    between atoms: S_9  and  N_12
REMARK    4  A    between atoms: N_12  and  C_13
REMARK    5  A    between atoms: C_18  and  O_19
REMARK    6  A    between atoms: O_19  and  C_20
REMARK    7  A    between atoms: N_26  and  C_27
REMARK    8  A    between atoms: N_30  and  C_31
REMARK                            x       y       z     vdW  Elec       q    Type
REMARK                         _______ _______ _______ _____ _____    ______ ____
ROOT
ATOM      1  C   UNL     1       0.718  12.345  18.686  0.00  0.00    +0.000 A 
ATOM      2  C   UNL     1       2.004  12.881  18.513  0.00  0.00    +0.000 A 
ATOM      3  C   UNL     1       2.138  14.255  18.602  0.00  0.00    +0.000 A 
ATOM      4  C   UNL     1       1.065  15.083  18.937  0.00  0.00    +0.000 A 
ATOM      5  C   UNL     1      -0.179  14.568  19.212  0.00  0.00    +0.000 A 
ATOM      6  C   UNL     1      -0.375  13.194  19.005  0.00  0.00    +0.000 A 
ATOM      7  N   UNL     1       1.497  16.409  18.864  0.00  0.00    +0.000 N 
ATOM      8  C   UNL     1       0.690  17.586  19.016  0.00  0.00    +0.000 C 
ATOM      9  C   UNL     1       2.856  16.430  18.480  0.00  0.00    +0.000 A 
ATOM     10  O   UNL     1       3.543  17.420  18.285  0.00  0.00    +0.000 OA
ATOM     11  N   UNL     1       3.244  15.078  18.348  0.00  0.00    +0.000 N 
ATOM     12  C   UNL     1       4.550  14.629  17.959  0.00  0.00    +0.000 C 
ENDROOT
BRANCH   1  13
ATOM     13  N   UNL     1       0.527  10.945  18.465  0.00  0.00    +0.000 N 
ATOM     14  H   UNL     1      -0.157  10.678  17.758  0.00  0.00    +0.000 HD
BRANCH  13  15
ATOM     15  S   UNL     1       0.585   9.865  19.763  0.00  0.00    +0.000 S 
ATOM     16  O   UNL     1      -0.729   9.285  19.952  0.00  0.00    +0.000 OA
ATOM     17  O   UNL     1       1.236  10.566  20.846  0.00  0.00    +0.000 OA
BRANCH  15  25
ATOM     18  C   UNL     1       1.322   7.061  21.236  0.00  0.00    +0.000 C 
ATOM     19  C   UNL     1       1.953   7.395  19.914  0.00  0.00    +0.000 A 
ATOM     20  C   UNL     1       2.855   6.462  19.366  0.00  0.00    +0.000 A 
ATOM     21  C   UNL     1       3.435   6.669  18.117  0.00  0.00    +0.000 A 
ATOM     22 CL   UNL     1       4.549   5.514  17.490  0.00  0.00    +0.000 Cl
ATOM     23  C   UNL     1       3.117   7.797  17.372  0.00  0.00    +0.000 A 
ATOM     24  C   UNL     1       2.237   8.744  17.897  0.00  0.00    +0.000 A 
ATOM     25  C   UNL     1       1.677   8.568  19.175  0.00  0.00    +0.000 A 
ENDBRANCH  15  25
ENDBRANCH  13  15
ENDBRANCH   1  13
BRANCH   6  26
ATOM     26  O   UNL     1      -1.642  12.633  19.070  0.00  0.00    +0.000 OA
BRANCH  26  27
ATOM     27  C   UNL     1      -2.275  12.640  20.301  0.00  0.00    +0.000 A 
ATOM     28  C   UNL     1      -1.615  12.364  21.504  0.00  0.00    +0.000 A 
ATOM     29  C   UNL     1      -2.327  12.324  22.706  0.00  0.00    +0.000 A 
ATOM     30  C   UNL     1      -3.685  12.614  22.712  0.00  0.00    +0.000 A 
ATOM     31  C   UNL     1      -4.338  12.941  21.522  0.00  0.00    +0.000 A 
ATOM     32  C   UNL     1      -3.637  12.950  20.317  0.00  0.00    +0.000 A 
ENDBRANCH  26  27
ENDBRANCH   6  26
TORSDOF 5
ENDMDL
MODEL 6
REMARK VINA RESULT:      -7.2      2.960      5.143
REMARK  Name = 
REMARK  8 active torsions:
REMARK  status: ('A' for Active; 'I' for Inactive)
REMARK    1  A    between atoms: C_1  and  C_2
REMARK    2  A    between atoms: C_8  and  S_9
REMARK    3  A    between atoms: S_9  and  N_12
REMARK    4  A    between atoms: N_12  and  C_13
REMARK    5  A    between atoms: C_18  and  O_19
REMARK    6  A    between atoms: O_19  and  C_20
REMARK    7  A    between atoms: N_26  and  C_27
REMARK    8  A    between atoms: N_30  and  C_31
REMARK                            x       y       z     vdW  Elec       q    Type
REMARK                         _______ _______ _______ _____ _____    ______ ____
ROOT
ATOM      1  C   UNL     1       0.618  11.361  19.135  0.00  0.00    +0.000 A 
ATOM      2  C   UNL     1       1.769  12.153  18.992  0.00  0.00    +0.000 A 
ATOM      3  C   UNL     1       1.591  13.521  18.889  0.00  0.00    +0.000 A 
ATOM      4  C   UNL     1       0.333  14.114  19.008  0.00  0.00    +0.000 A 
ATOM      5  C   UNL     1      -0.793  13.366  19.253  0.00  0.00    +0.000 A 
ATOM      6  C   UNL     1      -0.662  11.968  19.235  0.00  0.00    +0.000 A 
ATOM      7  N   UNL     1       0.472  15.485  18.778  0.00  0.00    +0.000 N 
ATOM      8  C   UNL     1      -0.582  16.454  18.687  0.00  0.00    +0.000 C 
ATOM      9  C   UNL     1       1.829  15.771  18.508  0.00  0.00    +0.000 A 
ATOM     10  O   UNL     1       2.303  16.860  18.228  0.00  0.00    +0.000 OA
ATOM     11  N   UNL     1       2.513  14.538  18.609  0.00  0.00    +0.000 N 
ATOM     12  C   UNL     1       3.921  14.358  18.400  0.00  0.00    +0.000 C 
ENDROOT
BRANCH   1  13
ATOM     13  N   UNL     1       0.761   9.938  19.108  0.00  0.00    +0.000 N 
ATOM     14  H   UNL     1       0.238   9.435  18.392  0.00  0.00    +0.000 HD
BRANCH  13  15
ATOM     15  S   UNL     1       0.903   9.071  20.551  0.00  0.00    +0.000 S 
ATOM     16  O   UNL     1      -0.424   8.767  21.048  0.00  0.00    +0.000 OA
ATOM     17  O   UNL     1       1.841   9.799  21.372  0.00  0.00    +0.000 OA
BRANCH  15  25
ATOM     18  C   UNL     1       2.669   8.514  17.879  0.00  0.00    +0.000 C 
ATOM     19  C   UNL     1       2.387   7.387  18.832  0.00  0.00    +0.000 A 
ATOM     20  C   UNL     1       2.907   6.117  18.515  0.00  0.00    +0.000 A 
ATOM     21  C   UNL     1       2.741   5.036  19.377  0.00  0.00    +0.000 A 
ATOM     22 CL   UNL     1       3.374   3.492  18.944  0.00  0.00    +0.000 Cl
ATOM     23  C   UNL     1       2.074   5.194  20.584  0.00  0.00    +0.000 A 
ATOM     24  C   UNL     1       1.537   6.438  20.916  0.00  0.00    +0.000 A 
ATOM     25  C   UNL     1       1.661   7.528  20.036  0.00  0.00    +0.000 A 
ENDBRANCH  15  25
ENDBRANCH  13  15
ENDBRANCH   1  13
BRANCH   6  26
ATOM     26  O   UNL     1      -1.776  11.144  19.276  0.00  0.00    +0.000 OA
BRANCH  26  27
ATOM     27  C   UNL     1      -2.474  10.963  18.095  0.00  0.00    +0.000 A 
ATOM     28  C   UNL     1      -1.978  10.220  17.017  0.00  0.00    +0.000 A 
ATOM     29  C   UNL     1      -2.708  10.130  15.828  0.00  0.00    +0.000 A 
ATOM     30  C   UNL     1      -3.955  10.734  15.737  0.00  0.00    +0.000 A 
ATOM     31  C   UNL     1      -4.477  11.431  16.827  0.00  0.00    +0.000 A 
ATOM     32  C   UNL     1      -3.739  11.551  18.004  0.00  0.00    +0.000 A 
ENDBRANCH  26  27
ENDBRANCH   6  26
TORSDOF 5
ENDMDL
MODEL 7
REMARK VINA RESULT:      -7.2      3.420      6.825
REMARK  Name = 
REMARK  8 active torsions:
REMARK  status: ('A' for Active; 'I' for Inactive)
REMARK    1  A    between atoms: C_1  and  C_2
REMARK    2  A    between atoms: C_8  and  S_9
REMARK    3  A    between atoms: S_9  and  N_12
REMARK    4  A    between atoms: N_12  and  C_13
REMARK    5  A    between atoms: C_18  and  O_19
REMARK    6  A    between atoms: O_19  and  C_20
REMARK    7  A    between atoms: N_26  and  C_27
REMARK    8  A    between atoms: N_30  and  C_31
REMARK                            x       y       z     vdW  Elec       q    Type
REMARK                         _______ _______ _______ _____ _____    ______ ____
ROOT
ATOM      1  C   UNL     1      -0.207  11.379  19.839  0.00  0.00    +0.000 A 
ATOM      2  C   UNL     1      -1.527  11.837  19.971  0.00  0.00    +0.000 A 
ATOM      3  C   UNL     1      -2.426  11.484  18.979  0.00  0.00    +0.000 A 
ATOM      4  C   UNL     1      -2.072  10.636  17.929  0.00  0.00    +0.000 A 
ATOM      5  C   UNL     1      -0.813  10.094  17.838  0.00  0.00    +0.000 A 
ATOM      6  C   UNL     1       0.153  10.534  18.756  0.00  0.00    +0.000 A 
ATOM      7  N   UNL     1      -3.160  10.541  17.059  0.00  0.00    +0.000 N 
ATOM      8  C   UNL     1      -3.193   9.868  15.792  0.00  0.00    +0.000 C 
ATOM      9  C   UNL     1      -4.218  11.333  17.556  0.00  0.00    +0.000 A 
ATOM     10  O   UNL     1      -5.306  11.511  17.031  0.00  0.00    +0.000 OA
ATOM     11  N   UNL     1      -3.749  11.892  18.767  0.00  0.00    +0.000 N 
ATOM     12  C   UNL     1      -4.499  12.779  19.610  0.00  0.00    +0.000 C 
ENDROOT
BRANCH   1  13
ATOM     13  N   UNL     1       0.772  11.840  20.775  0.00  0.00    +0.000 N 
ATOM     14  H   UNL     1       0.524  11.794  21.762  0.00  0.00    +0.000 HD
BRANCH  13  15
ATOM     15  S   UNL     1       1.743  13.171  20.401  0.00  0.00    +0.000 S 
ATOM     16  O   UNL     1       2.397  12.933  19.130  0.00  0.00    +0.000 OA
ATOM     17  O   UNL     1       2.524  13.449  21.583  0.00  0.00    +0.000 OA
BRANCH  15  25
ATOM     18  C   UNL     1      -0.317  14.412  22.589  0.00  0.00    +0.000 C 
ATOM     19  C   UNL     1      -0.318  14.941  21.183  0.00  0.00    +0.000 A 
ATOM     20  C   UNL     1      -1.232  15.967  20.872  0.00  0.00    +0.000 A 
ATOM     21  C   UNL     1      -1.254  16.552  19.608  0.00  0.00    +0.000 A 
ATOM     22 CL   UNL     1      -2.401  17.790  19.259  0.00  0.00    +0.000 Cl
ATOM     23  C   UNL     1      -0.355  16.149  18.630  0.00  0.00    +0.000 A 
ATOM     24  C   UNL     1       0.552  15.126  18.908  0.00  0.00    +0.000 A 
ATOM     25  C   UNL     1       0.556  14.497  20.166  0.00  0.00    +0.000 A 
ENDBRANCH  15  25
ENDBRANCH  13  15
ENDBRANCH   1  13
BRANCH   6  26
ATOM     26  O   UNL     1       1.489  10.187  18.612  0.00  0.00    +0.000 OA
BRANCH  26  27
ATOM     27  C   UNL     1       1.834   8.874  18.878  0.00  0.00    +0.000 A 
ATOM     28  C   UNL     1       1.582   8.248  20.105  0.00  0.00    +0.000 A 
ATOM     29  C   UNL     1       2.015   6.939  20.330  0.00  0.00    +0.000 A 
ATOM     30  C   UNL     1       2.648   6.237  19.312  0.00  0.00    +0.000 A 
ATOM     31  C   UNL     1       2.855   6.838  18.070  0.00  0.00    +0.000 A 
ATOM     32  C   UNL     1       2.453   8.156  17.852  0.00  0.00    +0.000 A 
ENDBRANCH  26  27
ENDBRANCH   6  26
TORSDOF 5
ENDMDL
MODEL 8
REMARK VINA RESULT:      -7.2      5.474      8.776
REMARK  Name = 
REMARK  8 active torsions:
REMARK  status: ('A' for Active; 'I' for Inactive)
REMARK    1  A    between atoms: C_1  and  C_2
REMARK    2  A    between atoms: C_8  and  S_9
REMARK    3  A    between atoms: S_9  and  N_12
REMARK    4  A    between atoms: N_12  and  C_13
REMARK    5  A    between atoms: C_18  and  O_19
REMARK    6  A    between atoms: O_19  and  C_20
REMARK    7  A    between atoms: N_26  and  C_27
REMARK    8  A    between atoms: N_30  and  C_31
REMARK                            x       y       z     vdW  Elec       q    Type
REMARK                         _______ _______ _______ _____ _____    ______ ____
ROOT
ATOM      1  C   UNL     1       3.112   4.773  17.864  0.00  0.00    +0.000 A 
ATOM      2  C   UNL     1       3.839   4.288  16.765  0.00  0.00    +0.000 A 
ATOM      3  C   UNL     1       5.076   4.857  16.519  0.00  0.00    +0.000 A 
ATOM      4  C   UNL     1       5.631   5.815  17.369  0.00  0.00    +0.000 A 
ATOM      5  C   UNL     1       4.981   6.228  18.506  0.00  0.00    +0.000 A 
ATOM      6  C   UNL     1       3.673   5.763  18.713  0.00  0.00    +0.000 A 
ATOM      7  N   UNL     1       6.835   6.250  16.809  0.00  0.00    +0.000 N 
ATOM      8  C   UNL     1       7.674   7.310  17.291  0.00  0.00    +0.000 C 
ATOM      9  C   UNL     1       7.052   5.566  15.593  0.00  0.00    +0.000 A 
ATOM     10  O   UNL     1       7.985   5.724  14.823  0.00  0.00    +0.000 OA
ATOM     11  N   UNL     1       5.958   4.684  15.443  0.00  0.00    +0.000 N 
ATOM     12  C   UNL     1       5.761   3.795  14.334  0.00  0.00    +0.000 C 
ENDROOT
BRANCH   1  13
ATOM     13  N   UNL     1       1.777   4.299  18.061  0.00  0.00    +0.000 N 
ATOM     14  H   UNL     1       1.161   4.878  18.630  0.00  0.00    +0.000 HD
BRANCH  13  15
ATOM     15  S   UNL     1       1.483   2.646  18.248  0.00  0.00    +0.000 S 
ATOM     16  O   UNL     1       1.744   1.977  16.989  0.00  0.00    +0.000 OA
ATOM     17  O   UNL     1       0.189   2.532  18.881  0.00  0.00    +0.000 OA
BRANCH  15  25
ATOM     18  C   UNL     1       1.651   3.311  21.427  0.00  0.00    +0.000 C 
ATOM     19  C   UNL     1       2.739   2.502  20.777  0.00  0.00    +0.000 A 
ATOM     20  C   UNL     1       3.802   2.065  21.591  0.00  0.00    +0.000 A 
ATOM     21  C   UNL     1       4.816   1.259  21.078  0.00  0.00    +0.000 A 
ATOM     22 CL   UNL     1       6.111   0.762  22.100  0.00  0.00    +0.000 Cl
ATOM     23  C   UNL     1       4.788   0.851  19.752  0.00  0.00    +0.000 A 
ATOM     24  C   UNL     1       3.753   1.281  18.921  0.00  0.00    +0.000 A 
ATOM     25  C   UNL     1       2.745   2.129  19.415  0.00  0.00    +0.000 A 
ENDBRANCH  15  25
ENDBRANCH  13  15
ENDBRANCH   1  13
BRANCH   6  26
ATOM     26  O   UNL     1       2.880   6.281  19.726  0.00  0.00    +0.000 OA
BRANCH  26  27
ATOM     27  C   UNL     1       2.214   7.466  19.466  0.00  0.00    +0.000 A 
ATOM     28  C   UNL     1       2.183   8.066  18.201  0.00  0.00    +0.000 A 
ATOM     29  C   UNL     1       1.545   9.297  18.020  0.00  0.00    +0.000 A 
ATOM     30  C   UNL     1       0.893   9.898  19.088  0.00  0.00    +0.000 A 
ATOM     31  C   UNL     1       0.877   9.279  20.339  0.00  0.00    +0.000 A 
ATOM     32  C   UNL     1       1.539   8.068  20.531  0.00  0.00    +0.000 A 
ENDBRANCH  26  27
ENDBRANCH   6  26
TORSDOF 5
ENDMDL
MODEL 9
REMARK VINA RESULT:      -7.1      3.412      4.140
REMARK  Name = 
REMARK  8 active torsions:
REMARK  status: ('A' for Active; 'I' for Inactive)
REMARK    1  A    between atoms: C_1  and  C_2
REMARK    2  A    between atoms: C_8  and  S_9
REMARK    3  A    between atoms: S_9  and  N_12
REMARK    4  A    between atoms: N_12  and  C_13
REMARK    5  A    between atoms: C_18  and  O_19
REMARK    6  A    between atoms: O_19  and  C_20
REMARK    7  A    between atoms: N_26  and  C_27
REMARK    8  A    between atoms: N_30  and  C_31
REMARK                            x       y       z     vdW  Elec       q    Type
REMARK                         _______ _______ _______ _____ _____    ______ ____
ROOT
ATOM      1  C   UNL     1       0.315  12.619  18.843  0.00  0.00    +0.000 A 
ATOM      2  C   UNL     1       1.468  13.369  18.563  0.00  0.00    +0.000 A 
ATOM      3  C   UNL     1       1.380  14.744  18.693  0.00  0.00    +0.000 A 
ATOM      4  C   UNL     1       0.226  15.369  19.167  0.00  0.00    +0.000 A 
ATOM      5  C   UNL     1      -0.879  14.645  19.545  0.00  0.00    +0.000 A 
ATOM      6  C   UNL     1      -0.864  13.262  19.304  0.00  0.00    +0.000 A 
ATOM      7  N   UNL     1       0.421  16.751  19.105  0.00  0.00    +0.000 N 
ATOM      8  C   UNL     1      -0.550  17.770  19.385  0.00  0.00    +0.000 C 
ATOM      9  C   UNL     1       1.709  17.012  18.588  0.00  0.00    +0.000 A 
ATOM     10  O   UNL     1       2.197  18.108  18.365  0.00  0.00    +0.000 OA
ATOM     11  N   UNL     1       2.300  15.748  18.363  0.00  0.00    +0.000 N 
ATOM     12  C   UNL     1       3.614  15.537  17.827  0.00  0.00    +0.000 C 
ENDROOT
BRANCH   1  13
ATOM     13  N   UNL     1       0.337  11.212  18.586  0.00  0.00    +0.000 N 
ATOM     14  H   UNL     1      -0.261  10.870  17.834  0.00  0.00    +0.000 HD
BRANCH  13  15
ATOM     15  S   UNL     1       0.476  10.118  19.866  0.00  0.00    +0.000 S 
ATOM     16  O   UNL     1      -0.820   9.520  20.116  0.00  0.00    +0.000 OA
ATOM     17  O   UNL     1       1.175  10.813  20.921  0.00  0.00    +0.000 OA
BRANCH  15  25
ATOM     18  C   UNL     1       1.311   7.300  21.258  0.00  0.00    +0.000 C 
ATOM     19  C   UNL     1       1.872   7.659  19.911  0.00  0.00    +0.000 A 
ATOM     20  C   UNL     1       2.754   6.743  19.305  0.00  0.00    +0.000 A 
ATOM     21  C   UNL     1       3.269   6.974  18.032  0.00  0.00    +0.000 A 
ATOM     22 CL   UNL     1       4.361   5.839  17.333  0.00  0.00    +0.000 Cl
ATOM     23  C   UNL     1       2.904   8.109  17.321  0.00  0.00    +0.000 A 
ATOM     24  C   UNL     1       2.043   9.039  17.903  0.00  0.00    +0.000 A 
ATOM     25  C   UNL     1       1.549   8.839  19.205  0.00  0.00    +0.000 A 
ENDBRANCH  15  25
ENDBRANCH  13  15
ENDBRANCH   1  13
BRANCH   6  26
ATOM     26  O   UNL     1      -2.005  12.493  19.473  0.00  0.00    +0.000 OA
BRANCH  26  27
ATOM     27  C   UNL     1      -2.635  12.556  20.704  0.00  0.00    +0.000 A 
ATOM     28  C   UNL     1      -3.982  12.905  20.859  0.00  0.00    +0.000 A 
ATOM     29  C   UNL     1      -4.540  13.012  22.136  0.00  0.00    +0.000 A 
ATOM     30  C   UNL     1      -3.768  12.717  23.252  0.00  0.00    +0.000 A 
ATOM     31  C   UNL     1      -2.439  12.319  23.101  0.00  0.00    +0.000 A 
ATOM     32  C   UNL     1      -1.870  12.242  21.830  0.00  0.00    +0.000 A 
ENDBRANCH  26  27
ENDBRANCH   6  26
TORSDOF 5
ENDMDL
