MODEL 1
REMARK VINA RESULT:      -6.3      0.000      0.000
REMARK  Name = 
REMARK  6 active torsions:
REMARK  status: ('A' for Active; 'I' for Inactive)
REMARK    1  A    between atoms: C_1  and  C_2
REMARK    2  A    between atoms: C_2  and  O_3
REMARK    3  A    between atoms: O_3  and  C_4
REMARK    4  A    between atoms: C_4  and  C_6
REMARK    5  A    between atoms: N_8  and  O_9
REMARK    6  A    between atoms: N_8  and  C_10
REMARK                            x       y       z     vdW  Elec       q    Type
REMARK                         _______ _______ _______ _____ _____    ______ ____
ROOT
ATOM      1  C   UNL     1       3.304   3.155  17.727  0.00  0.00    +0.000 C 
ATOM      2  O   UNL     1       2.425   3.572  16.982  0.00  0.00    +0.000 OA
ATOM      3  N   UNL     1       4.613   3.647  17.800  0.00  0.00    +0.000 N 
ENDROOT
BRANCH   3   4
ATOM      4  C   UNL     1       5.041   4.952  17.251  0.00  0.00    +0.000 C 
ATOM      5  C   UNL     1       5.285   5.008  15.733  0.00  0.00    +0.000 C 
ATOM      6  C   UNL     1       6.514   4.202  15.322  0.00  0.00    +0.000 C 
ATOM      7  N   UNL     1       7.716   4.647  16.032  0.00  0.00    +0.000 NA
ATOM      8  C   UNL     1       7.531   4.580  17.483  0.00  0.00    +0.000 C 
ATOM      9  C   UNL     1       6.338   5.419  17.940  0.00  0.00    +0.000 C 
ATOM     10  H   UNL     1       7.927   5.610  15.763  0.00  0.00    +0.000 HD
ENDBRANCH   3   4
BRANCH   1  11
ATOM     11  C   UNL     1       3.040   1.865  18.546  0.00  0.00    +0.000 C 
ATOM     12  O   UNL     1       3.810   0.907  18.544  0.00  0.00    +0.000 OA
BRANCH  11  13
ATOM     13  O   UNL     1       1.814   1.895  19.106  0.00  0.00    +0.000 OA
BRANCH  13  15
ATOM     14  C   UNL     1       0.928   3.756  20.338  0.00  0.00    +0.000 C 
ATOM     15  C   UNL     1       1.764   2.489  20.410  0.00  0.00    +0.000 C 
ENDBRANCH  13  15
ENDBRANCH  11  13
ENDBRANCH   1  11
BRANCH   3  16
ATOM     16  O   UNL     1       5.209   3.482  19.086  0.00  0.00    +0.000 OA
ATOM     17  H   UNL     1       5.755   2.671  18.981  0.00  0.00    +0.000 HD
ENDBRANCH   3  16
TORSDOF 5
ENDMDL
MODEL 2
REMARK VINA RESULT:      -6.3      3.314      5.687
REMARK  Name = 
REMARK  6 active torsions:
REMARK  status: ('A' for Active; 'I' for Inactive)
REMARK    1  A    between atoms: C_1  and  C_2
REMARK    2  A    between atoms: C_2  and  O_3
REMARK    3  A    between atoms: O_3  and  C_4
REMARK    4  A    between atoms: C_4  and  C_6
REMARK    5  A    between atoms: N_8  and  O_9
REMARK    6  A    between atoms: N_8  and  C_10
REMARK                            x       y       z     vdW  Elec       q    Type
REMARK                         _______ _______ _______ _____ _____    ______ ____
ROOT
ATOM      1  C   UNL     1       6.979   4.963  15.969  0.00  0.00    +0.000 C 
ATOM      2  O   UNL     1       7.826   4.464  16.700  0.00  0.00    +0.000 OA
ATOM      3  N   UNL     1       5.775   5.539  16.391  0.00  0.00    +0.000 N 
ENDROOT
BRANCH   3   4
ATOM      4  C   UNL     1       5.492   5.946  17.785  0.00  0.00    +0.000 C 
ATOM      5  C   UNL     1       5.709   4.875  18.867  0.00  0.00    +0.000 C 
ATOM      6  C   UNL     1       4.681   3.751  18.771  0.00  0.00    +0.000 C 
ATOM      7  N   UNL     1       3.310   4.262  18.850  0.00  0.00    +0.000 NA
ATOM      8  C   UNL     1       3.058   5.266  17.815  0.00  0.00    +0.000 C 
ATOM      9  C   UNL     1       4.036   6.436  17.911  0.00  0.00    +0.000 C 
ATOM     10  H   UNL     1       3.162   4.681  19.770  0.00  0.00    +0.000 HD
ENDBRANCH   3   4
BRANCH   1  11
ATOM     11  C   UNL     1       7.131   4.807  14.433  0.00  0.00    +0.000 C 
ATOM     12  O   UNL     1       7.888   5.508  13.766  0.00  0.00    +0.000 OA
BRANCH  11  13
ATOM     13  O   UNL     1       6.226   3.934  13.949  0.00  0.00    +0.000 OA
BRANCH  13  15
ATOM     14  C   UNL     1       5.048   3.258  11.969  0.00  0.00    +0.000 C 
ATOM     15  C   UNL     1       6.404   3.586  12.570  0.00  0.00    +0.000 C 
ENDBRANCH  13  15
ENDBRANCH  11  13
ENDBRANCH   1  11
BRANCH   3  16
ATOM     16  O   UNL     1       5.301   6.564  15.518  0.00  0.00    +0.000 OA
ATOM     17  H   UNL     1       6.091   6.783  14.975  0.00  0.00    +0.000 HD
ENDBRANCH   3  16
TORSDOF 5
ENDMDL
MODEL 3
REMARK VINA RESULT:      -6.1      2.406      5.176
REMARK  Name = 
REMARK  6 active torsions:
REMARK  status: ('A' for Active; 'I' for Inactive)
REMARK    1  A    between atoms: C_1  and  C_2
REMARK    2  A    between atoms: C_2  and  O_3
REMARK    3  A    between atoms: O_3  and  C_4
REMARK    4  A    between atoms: C_4  and  C_6
REMARK    5  A    between atoms: N_8  and  O_9
REMARK    6  A    between atoms: N_8  and  C_10
REMARK                            x       y       z     vdW  Elec       q    Type
REMARK                         _______ _______ _______ _____ _____    ______ ____
ROOT
ATOM      1  C   UNL     1       5.824   4.299  16.628  0.00  0.00    +0.000 C 
ATOM      2  O   UNL     1       5.345   4.229  15.502  0.00  0.00    +0.000 OA
ATOM      3  N   UNL     1       5.130   4.070  17.823  0.00  0.00    +0.000 N 
ENDROOT
BRANCH   3   4
ATOM      4  C   UNL     1       3.824   3.382  17.908  0.00  0.00    +0.000 C 
ATOM      5  C   UNL     1       2.619   4.128  17.311  0.00  0.00    +0.000 C 
ATOM      6  C   UNL     1       2.251   5.364  18.126  0.00  0.00    +0.000 C 
ATOM      7  N   UNL     1       1.978   5.028  19.526  0.00  0.00    +0.000 NA
ATOM      8  C   UNL     1       3.117   4.340  20.138  0.00  0.00    +0.000 C 
ATOM      9  C   UNL     1       3.484   3.066  19.378  0.00  0.00    +0.000 C 
ATOM     10  H   UNL     1       1.156   4.423  19.571  0.00  0.00    +0.000 HD
ENDBRANCH   3   4
BRANCH   1  11
ATOM     11  C   UNL     1       7.263   4.851  16.797  0.00  0.00    +0.000 C 
ATOM     12  O   UNL     1       8.210   4.146  17.136  0.00  0.00    +0.000 OA
BRANCH  11  13
ATOM     13  O   UNL     1       7.277   6.194  16.677  0.00  0.00    +0.000 OA
BRANCH  13  15
ATOM     14  C   UNL     1       7.854   8.342  17.579  0.00  0.00    +0.000 C 
ATOM     15  C   UNL     1       7.482   6.906  17.904  0.00  0.00    +0.000 C 
ENDBRANCH  13  15
ENDBRANCH  11  13
ENDBRANCH   1  11
BRANCH   3  16
ATOM     16  O   UNL     1       5.964   3.587  18.877  0.00  0.00    +0.000 OA
ATOM     17  H   UNL     1       5.745   4.180  19.630  0.00  0.00    +0.000 HD
ENDBRANCH   3  16
TORSDOF 5
ENDMDL
MODEL 4
REMARK VINA RESULT:      -6.1      1.307      1.378
REMARK  Name = 
REMARK  6 active torsions:
REMARK  status: ('A' for Active; 'I' for Inactive)
REMARK    1  A    between atoms: C_1  and  C_2
REMARK    2  A    between atoms: C_2  and  O_3
REMARK    3  A    between atoms: O_3  and  C_4
REMARK    4  A    between atoms: C_4  and  C_6
REMARK    5  A    between atoms: N_8  and  O_9
REMARK    6  A    between atoms: N_8  and  C_10
REMARK                            x       y       z     vdW  Elec       q    Type
REMARK                         _______ _______ _______ _____ _____    ______ ____
ROOT
ATOM      1  C   UNL     1       3.929   3.348  18.320  0.00  0.00    +0.000 C 
ATOM      2  O   UNL     1       3.291   2.798  17.430  0.00  0.00    +0.000 OA
ATOM      3  N   UNL     1       4.754   4.468  18.158  0.00  0.00    +0.000 N 
ENDROOT
BRANCH   3   4
ATOM      4  C   UNL     1       4.719   5.363  16.981  0.00  0.00    +0.000 C 
ATOM      5  C   UNL     1       5.268   4.784  15.666  0.00  0.00    +0.000 C 
ATOM      6  C   UNL     1       6.779   4.579  15.719  0.00  0.00    +0.000 C 
ATOM      7  N   UNL     1       7.484   5.822  16.044  0.00  0.00    +0.000 NA
ATOM      8  C   UNL     1       7.007   6.388  17.307  0.00  0.00    +0.000 C 
ATOM      9  C   UNL     1       5.503   6.658  17.274  0.00  0.00    +0.000 C 
ATOM     10  H   UNL     1       7.333   6.498  15.293  0.00  0.00    +0.000 HD
ENDBRANCH   3   4
BRANCH   1  11
ATOM     11  C   UNL     1       3.995   2.679  19.717  0.00  0.00    +0.000 C 
ATOM     12  O   UNL     1       5.051   2.316  20.231  0.00  0.00    +0.000 OA
BRANCH  11  13
ATOM     13  O   UNL     1       2.757   2.424  20.185  0.00  0.00    +0.000 OA
BRANCH  13  15
ATOM     14  C   UNL     1       1.135   4.155  20.553  0.00  0.00    +0.000 C 
ATOM     15  C   UNL     1       2.279   3.360  21.160  0.00  0.00    +0.000 C 
ENDBRANCH  13  15
ENDBRANCH  11  13
ENDBRANCH   1  11
BRANCH   3  16
ATOM     16  O   UNL     1       4.853   5.272  19.333  0.00  0.00    +0.000 OA
ATOM     17  H   UNL     1       4.868   6.190  18.980  0.00  0.00    +0.000 HD
ENDBRANCH   3  16
TORSDOF 5
ENDMDL
MODEL 5
REMARK VINA RESULT:      -6.1      1.182      1.374
REMARK  Name = 
REMARK  6 active torsions:
REMARK  status: ('A' for Active; 'I' for Inactive)
REMARK    1  A    between atoms: C_1  and  C_2
REMARK    2  A    between atoms: C_2  and  O_3
REMARK    3  A    between atoms: O_3  and  C_4
REMARK    4  A    between atoms: C_4  and  C_6
REMARK    5  A    between atoms: N_8  and  O_9
REMARK    6  A    between atoms: N_8  and  C_10
REMARK                            x       y       z     vdW  Elec       q    Type
REMARK                         _______ _______ _______ _____ _____    ______ ____
ROOT
ATOM      1  C   UNL     1       3.281   4.097  18.236  0.00  0.00    +0.000 C 
ATOM      2  O   UNL     1       2.530   5.035  17.996  0.00  0.00    +0.000 OA
ATOM      3  N   UNL     1       4.680   4.164  18.275  0.00  0.00    +0.000 N 
ENDROOT
BRANCH   3   4
ATOM      4  C   UNL     1       5.449   5.422  18.376  0.00  0.00    +0.000 C 
ATOM      5  C   UNL     1       5.210   6.460  17.266  0.00  0.00    +0.000 C 
ATOM      6  C   UNL     1       5.758   5.994  15.920  0.00  0.00    +0.000 C 
ATOM      7  N   UNL     1       7.186   5.675  15.998  0.00  0.00    +0.000 NA
ATOM      8  C   UNL     1       7.450   4.667  17.026  0.00  0.00    +0.000 C 
ATOM      9  C   UNL     1       6.961   5.121  18.402  0.00  0.00    +0.000 C 
ATOM     10  H   UNL     1       7.707   6.526  16.218  0.00  0.00    +0.000 HD
ENDBRANCH   3   4
BRANCH   1  11
ATOM     11  C   UNL     1       2.688   2.668  18.337  0.00  0.00    +0.000 C 
ATOM     12  O   UNL     1       2.155   2.101  17.386  0.00  0.00    +0.000 OA
BRANCH  11  13
ATOM     13  O   UNL     1       2.703   2.233  19.613  0.00  0.00    +0.000 OA
BRANCH  13  15
ATOM     14  C   UNL     1       2.058   3.240  21.694  0.00  0.00    +0.000 C 
ATOM     15  C   UNL     1       1.568   2.622  20.395  0.00  0.00    +0.000 C 
ENDBRANCH  13  15
ENDBRANCH  11  13
ENDBRANCH   1  11
BRANCH   3  16
ATOM     16  O   UNL     1       5.267   3.205  19.155  0.00  0.00    +0.000 OA
ATOM     17  H   UNL     1       4.489   2.773  19.573  0.00  0.00    +0.000 HD
ENDBRANCH   3  16
TORSDOF 5
ENDMDL
MODEL 6
REMARK VINA RESULT:      -6.1      2.545      5.413
REMARK  Name = 
REMARK  6 active torsions:
REMARK  status: ('A' for Active; 'I' for Inactive)
REMARK    1  A    between atoms: C_1  and  C_2
REMARK    2  A    between atoms: C_2  and  O_3
REMARK    3  A    between atoms: O_3  and  C_4
REMARK    4  A    between atoms: C_4  and  C_6
REMARK    5  A    between atoms: N_8  and  O_9
REMARK    6  A    between atoms: N_8  and  C_10
REMARK                            x       y       z     vdW  Elec       q    Type
REMARK                         _______ _______ _______ _____ _____    ______ ____
ROOT
ATOM      1  C   UNL     1       6.282   4.988  18.162  0.00  0.00    +0.000 C 
ATOM      2  O   UNL     1       6.868   4.741  19.209  0.00  0.00    +0.000 OA
ATOM      3  N   UNL     1       4.952   4.656  17.874  0.00  0.00    +0.000 N 
ENDROOT
BRANCH   3   4
ATOM      4  C   UNL     1       3.953   4.271  18.893  0.00  0.00    +0.000 C 
ATOM      5  C   UNL     1       4.095   2.861  19.491  0.00  0.00    +0.000 C 
ATOM      6  C   UNL     1       3.774   1.773  18.470  0.00  0.00    +0.000 C 
ATOM      7  N   UNL     1       2.432   1.936  17.907  0.00  0.00    +0.000 NA
ATOM      8  C   UNL     1       2.267   3.260  17.302  0.00  0.00    +0.000 C 
ATOM      9  C   UNL     1       2.530   4.379  18.310  0.00  0.00    +0.000 C 
ATOM     10  H   UNL     1       1.740   1.818  18.650  0.00  0.00    +0.000 HD
ENDBRANCH   3   4
BRANCH   1  11
ATOM     11  C   UNL     1       7.092   5.558  16.968  0.00  0.00    +0.000 C 
ATOM     12  O   UNL     1       7.279   6.761  16.806  0.00  0.00    +0.000 OA
BRANCH  11  13
ATOM     13  O   UNL     1       7.404   4.581  16.093  0.00  0.00    +0.000 OA
BRANCH  13  15
ATOM     14  C   UNL     1       6.001   3.919  14.261  0.00  0.00    +0.000 C 
ATOM     15  C   UNL     1       7.086   4.875  14.726  0.00  0.00    +0.000 C 
ENDBRANCH  13  15
ENDBRANCH  11  13
ENDBRANCH   1  11
BRANCH   3  16
ATOM     16  O   UNL     1       4.333   5.552  16.951  0.00  0.00    +0.000 OA
ATOM     17  H   UNL     1       4.357   5.057  16.102  0.00  0.00    +0.000 HD
ENDBRANCH   3  16
TORSDOF 5
ENDMDL
MODEL 7
REMARK VINA RESULT:      -6.0      2.347      5.632
REMARK  Name = 
REMARK  6 active torsions:
REMARK  status: ('A' for Active; 'I' for Inactive)
REMARK    1  A    between atoms: C_1  and  C_2
REMARK    2  A    between atoms: C_2  and  O_3
REMARK    3  A    between atoms: O_3  and  C_4
REMARK    4  A    between atoms: C_4  and  C_6
REMARK    5  A    between atoms: N_8  and  O_9
REMARK    6  A    between atoms: N_8  and  C_10
REMARK                            x       y       z     vdW  Elec       q    Type
REMARK                         _______ _______ _______ _____ _____    ______ ____
ROOT
ATOM      1  C   UNL     1       4.643   5.101  18.400  0.00  0.00    +0.000 C 
ATOM      2  O   UNL     1       4.005   5.883  17.704  0.00  0.00    +0.000 OA
ATOM      3  N   UNL     1       4.128   3.956  19.019  0.00  0.00    +0.000 N 
ENDROOT
BRANCH   3   4
ATOM      4  C   UNL     1       2.842   3.323  18.659  0.00  0.00    +0.000 C 
ATOM      5  C   UNL     1       1.590   4.212  18.762  0.00  0.00    +0.000 C 
ATOM      6  C   UNL     1       1.251   4.554  20.210  0.00  0.00    +0.000 C 
ATOM      7  N   UNL     1       1.067   3.348  21.022  0.00  0.00    +0.000 NA
ATOM      8  C   UNL     1       2.252   2.489  20.972  0.00  0.00    +0.000 C 
ATOM      9  C   UNL     1       2.594   2.081  19.539  0.00  0.00    +0.000 C 
ATOM     10  H   UNL     1       0.259   2.829  20.674  0.00  0.00    +0.000 HD
ENDBRANCH   3   4
BRANCH   1  11
ATOM     11  C   UNL     1       6.097   5.467  18.796  0.00  0.00    +0.000 C 
ATOM     12  O   UNL     1       6.581   5.178  19.887  0.00  0.00    +0.000 OA
BRANCH  11  13
ATOM     13  O   UNL     1       6.665   6.254  17.860  0.00  0.00    +0.000 OA
BRANCH  13  15
ATOM     14  C   UNL     1       7.885   8.314  17.691  0.00  0.00    +0.000 C 
ATOM     15  C   UNL     1       7.867   6.913  18.278  0.00  0.00    +0.000 C 
ENDBRANCH  13  15
ENDBRANCH  11  13
ENDBRANCH   1  11
BRANCH   3  16
ATOM     16  O   UNL     1       5.101   2.927  19.202  0.00  0.00    +0.000 OA
ATOM     17  H   UNL     1       4.944   2.327  18.439  0.00  0.00    +0.000 HD
ENDBRANCH   3  16
TORSDOF 5
ENDMDL
MODEL 8
REMARK VINA RESULT:      -5.9      2.556      5.497
REMARK  Name = 
REMARK  6 active torsions:
REMARK  status: ('A' for Active; 'I' for Inactive)
REMARK    1  A    between atoms: C_1  and  C_2
REMARK    2  A    between atoms: C_2  and  O_3
REMARK    3  A    between atoms: O_3  and  C_4
REMARK    4  A    between atoms: C_4  and  C_6
REMARK    5  A    between atoms: N_8  and  O_9
REMARK    6  A    between atoms: N_8  and  C_10
REMARK                            x       y       z     vdW  Elec       q    Type
REMARK                         _______ _______ _______ _____ _____    ______ ____
ROOT
ATOM      1  C   UNL     1       6.211   4.856  17.964  0.00  0.00    +0.000 C 
ATOM      2  O   UNL     1       6.851   4.446  18.926  0.00  0.00    +0.000 OA
ATOM      3  N   UNL     1       4.834   4.689  17.771  0.00  0.00    +0.000 N 
ENDROOT
BRANCH   3   4
ATOM      4  C   UNL     1       3.886   4.305  18.839  0.00  0.00    +0.000 C 
ATOM      5  C   UNL     1       4.050   2.891  19.422  0.00  0.00    +0.000 C 
ATOM      6  C   UNL     1       3.670   1.810  18.415  0.00  0.00    +0.000 C 
ATOM      7  N   UNL     1       2.301   1.984  17.923  0.00  0.00    +0.000 NA
ATOM      8  C   UNL     1       2.114   3.312  17.333  0.00  0.00    +0.000 C 
ATOM      9  C   UNL     1       2.435   4.424  18.331  0.00  0.00    +0.000 C 
ATOM     10  H   UNL     1       1.648   1.866  18.700  0.00  0.00    +0.000 HD
ENDBRANCH   3   4
BRANCH   1  11
ATOM     11  C   UNL     1       6.976   5.458  16.758  0.00  0.00    +0.000 C 
ATOM     12  O   UNL     1       7.591   4.768  15.949  0.00  0.00    +0.000 OA
BRANCH  11  13
ATOM     13  O   UNL     1       6.993   6.805  16.826  0.00  0.00    +0.000 OA
BRANCH  13  15
ATOM     14  C   UNL     1       7.914   8.845  17.693  0.00  0.00    +0.000 C 
ATOM     15  C   UNL     1       7.797   7.343  17.884  0.00  0.00    +0.000 C 
ENDBRANCH  13  15
ENDBRANCH  11  13
ENDBRANCH   1  11
BRANCH   3  16
ATOM     16  O   UNL     1       4.241   5.731  16.996  0.00  0.00    +0.000 OA
ATOM     17  H   UNL     1       3.438   5.306  16.620  0.00  0.00    +0.000 HD
ENDBRANCH   3  16
TORSDOF 5
ENDMDL
MODEL 9
REMARK VINA RESULT:      -5.9      2.000      5.455
REMARK  Name = 
REMARK  6 active torsions:
REMARK  status: ('A' for Active; 'I' for Inactive)
REMARK    1  A    between atoms: C_1  and  C_2
REMARK    2  A    between atoms: C_2  and  O_3
REMARK    3  A    between atoms: O_3  and  C_4
REMARK    4  A    between atoms: C_4  and  C_6
REMARK    5  A    between atoms: N_8  and  O_9
REMARK    6  A    between atoms: N_8  and  C_10
REMARK                            x       y       z     vdW  Elec       q    Type
REMARK                         _______ _______ _______ _____ _____    ______ ____
ROOT
ATOM      1  C   UNL     1       4.789   5.048  18.370  0.00  0.00    +0.000 C 
ATOM      2  O   UNL     1       4.215   5.877  17.674  0.00  0.00    +0.000 OA
ATOM      3  N   UNL     1       4.185   3.949  18.993  0.00  0.00    +0.000 N 
ENDROOT
BRANCH   3   4
ATOM      4  C   UNL     1       2.849   3.423  18.638  0.00  0.00    +0.000 C 
ATOM      5  C   UNL     1       1.665   4.388  18.817  0.00  0.00    +0.000 C 
ATOM      6  C   UNL     1       1.383   4.681  20.287  0.00  0.00    +0.000 C 
ATOM      7  N   UNL     1       1.137   3.452  21.047  0.00  0.00    +0.000 NA
ATOM      8  C   UNL     1       2.258   2.519  20.924  0.00  0.00    +0.000 C 
ATOM      9  C   UNL     1       2.538   2.159  19.465  0.00  0.00    +0.000 C 
ATOM     10  H   UNL     1       0.287   3.006  20.696  0.00  0.00    +0.000 HD
ENDBRANCH   3   4
BRANCH   1  11
ATOM     11  C   UNL     1       6.269   5.295  18.760  0.00  0.00    +0.000 C 
ATOM     12  O   UNL     1       6.654   5.315  19.927  0.00  0.00    +0.000 OA
BRANCH  11  13
ATOM     13  O   UNL     1       7.001   5.627  17.678  0.00  0.00    +0.000 OA
BRANCH  13  15
ATOM     14  C   UNL     1       6.959   4.835  15.412  0.00  0.00    +0.000 C 
ATOM     15  C   UNL     1       7.371   4.524  16.841  0.00  0.00    +0.000 C 
ENDBRANCH  13  15
ENDBRANCH  11  13
ENDBRANCH   1  11
BRANCH   3  16
ATOM     16  O   UNL     1       5.071   2.845  19.176  0.00  0.00    +0.000 OA
ATOM     17  H   UNL     1       5.230   2.839  20.146  0.00  0.00    +0.000 HD
ENDBRANCH   3  16
TORSDOF 5
ENDMDL
