MODEL 1
REMARK VINA RESULT:      -5.9      0.000      0.000
REMARK  Name = 
REMARK  4 active torsions:
REMARK  status: ('A' for Active; 'I' for Inactive)
REMARK    1  A    between atoms: C_1  and  C_2
REMARK    2  A    between atoms: C_2  and  C_3
REMARK    3  A    between atoms: C_3  and  N_4
REMARK    4  A    between atoms: C_7  and  C_8
REMARK                            x       y       z     vdW  Elec       q    Type
REMARK                         _______ _______ _______ _____ _____    ______ ____
ROOT
ATOM      1  N   UNL     1       6.971   4.684  14.533  0.00  0.00    +0.000 N 
ATOM      2  C   UNL     1       6.801   5.108  15.840  0.00  0.00    +0.000 A 
ATOM      3  N   UNL     1       7.366   6.287  16.137  0.00  0.00    +0.000 NA
ATOM      4  C   UNL     1       7.274   6.740  17.404  0.00  0.00    +0.000 A 
ATOM      5  C   UNL     1       7.927   8.051  17.719  0.00  0.00    +0.000 C 
ATOM      6  C   UNL     1       6.617   6.034  18.382  0.00  0.00    +0.000 A 
ATOM      7  C   UNL     1       6.063   4.852  17.965  0.00  0.00    +0.000 A 
ATOM      8 CL   UNL     1       5.193   3.862  19.067  0.00  0.00    +0.000 Cl
ATOM      9  N   UNL     1       6.129   4.364  16.718  0.00  0.00    +0.000 NA
ATOM     10  H   UNL     1       7.225   5.508  13.998  0.00  0.00    +0.000 HD
ENDROOT
BRANCH   1  11
ATOM     11  C   UNL     1       5.896   3.877  13.985  0.00  0.00    +0.000 C 
BRANCH  11  13
ATOM     12  C   UNL     1       5.008   3.162  11.731  0.00  0.00    +0.000 C 
ATOM     13  C   UNL     1       6.246   3.503  12.544  0.00  0.00    +0.000 C 
ENDBRANCH  11  13
ENDBRANCH   1  11
TORSDOF 2
ENDMDL
MODEL 2
REMARK VINA RESULT:      -5.6      3.038      5.341
REMARK  Name = 
REMARK  4 active torsions:
REMARK  status: ('A' for Active; 'I' for Inactive)
REMARK    1  A    between atoms: C_1  and  C_2
REMARK    2  A    between atoms: C_2  and  C_3
REMARK    3  A    between atoms: C_3  and  N_4
REMARK    4  A    between atoms: C_7  and  C_8
REMARK                            x       y       z     vdW  Elec       q    Type
REMARK                         _______ _______ _______ _____ _____    ______ ____
ROOT
ATOM      1  N   UNL     1       3.687   3.270  18.725  0.00  0.00    +0.000 N 
ATOM      2  C   UNL     1       4.814   3.833  18.149  0.00  0.00    +0.000 A 
ATOM      3  N   UNL     1       4.903   3.696  16.818  0.00  0.00    +0.000 NA
ATOM      4  C   UNL     1       5.997   4.186  16.198  0.00  0.00    +0.000 A 
ATOM      5  C   UNL     1       6.086   4.007  14.713  0.00  0.00    +0.000 C 
ATOM      6  C   UNL     1       7.001   4.818  16.886  0.00  0.00    +0.000 A 
ATOM      7  C   UNL     1       6.798   4.918  18.238  0.00  0.00    +0.000 A 
ATOM      8 CL   UNL     1       7.958   5.698  19.238  0.00  0.00    +0.000 Cl
ATOM      9  N   UNL     1       5.730   4.447  18.897  0.00  0.00    +0.000 NA
ATOM     10  H   UNL     1       3.016   3.144  17.975  0.00  0.00    +0.000 HD
ENDROOT
BRANCH   1  11
ATOM     11  C   UNL     1       3.189   3.932  19.918  0.00  0.00    +0.000 C 
BRANCH  11  13
ATOM     12  C   UNL     1       1.639   2.783  21.548  0.00  0.00    +0.000 C 
ATOM     13  C   UNL     1       1.763   3.452  20.188  0.00  0.00    +0.000 C 
ENDBRANCH  11  13
ENDBRANCH   1  11
TORSDOF 2
ENDMDL
MODEL 3
REMARK VINA RESULT:      -5.6      1.093      1.093
REMARK  Name = 
REMARK  4 active torsions:
REMARK  status: ('A' for Active; 'I' for Inactive)
REMARK    1  A    between atoms: C_1  and  C_2
REMARK    2  A    between atoms: C_2  and  C_3
REMARK    3  A    between atoms: C_3  and  N_4
REMARK    4  A    between atoms: C_7  and  C_8
REMARK                            x       y       z     vdW  Elec       q    Type
REMARK                         _______ _______ _______ _____ _____    ______ ____
ROOT
ATOM      1  N   UNL     1       6.829   4.387  14.235  0.00  0.00    +0.000 N 
ATOM      2  C   UNL     1       6.359   4.967  15.401  0.00  0.00    +0.000 A 
ATOM      3  N   UNL     1       7.135   5.934  15.911  0.00  0.00    +0.000 NA
ATOM      4  C   UNL     1       6.756   6.514  17.069  0.00  0.00    +0.000 A 
ATOM      5  C   UNL     1       7.647   7.581  17.630  0.00  0.00    +0.000 C 
ATOM      6  C   UNL     1       5.607   6.147  17.724  0.00  0.00    +0.000 A 
ATOM      7  C   UNL     1       4.882   5.162  17.106  0.00  0.00    +0.000 A 
ATOM      8 CL   UNL     1       3.410   4.603  17.793  0.00  0.00    +0.000 Cl
ATOM      9  N   UNL     1       5.219   4.558  15.957  0.00  0.00    +0.000 NA
ATOM     10  H   UNL     1       7.507   5.034  13.848  0.00  0.00    +0.000 HD
ENDROOT
BRANCH   1  11
ATOM     11  C   UNL     1       5.815   3.905  13.315  0.00  0.00    +0.000 C 
BRANCH  11  13
ATOM     12  C   UNL     1       5.675   2.156  11.498  0.00  0.00    +0.000 C 
ATOM     13  C   UNL     1       6.506   3.274  12.106  0.00  0.00    +0.000 C 
ENDBRANCH  11  13
ENDBRANCH   1  11
TORSDOF 2
ENDMDL
MODEL 4
REMARK VINA RESULT:      -5.6      3.104      4.485
REMARK  Name = 
REMARK  4 active torsions:
REMARK  status: ('A' for Active; 'I' for Inactive)
REMARK    1  A    between atoms: C_1  and  C_2
REMARK    2  A    between atoms: C_2  and  C_3
REMARK    3  A    between atoms: C_3  and  N_4
REMARK    4  A    between atoms: C_7  and  C_8
REMARK                            x       y       z     vdW  Elec       q    Type
REMARK                         _______ _______ _______ _____ _____    ______ ____
ROOT
ATOM      1  N   UNL     1       5.363   3.507  16.443  0.00  0.00    +0.000 N 
ATOM      2  C   UNL     1       4.246   3.960  17.124  0.00  0.00    +0.000 A 
ATOM      3  N   UNL     1       3.429   3.001  17.583  0.00  0.00    +0.000 NA
ATOM      4  C   UNL     1       2.300   3.375  18.221  0.00  0.00    +0.000 A 
ATOM      5  C   UNL     1       1.391   2.288  18.710  0.00  0.00    +0.000 C 
ATOM      6  C   UNL     1       1.977   4.695  18.414  0.00  0.00    +0.000 A 
ATOM      7  C   UNL     1       2.890   5.589  17.920  0.00  0.00    +0.000 A 
ATOM      8 CL   UNL     1       2.638   7.280  18.098  0.00  0.00    +0.000 Cl
ATOM      9  N   UNL     1       4.023   5.265  17.281  0.00  0.00    +0.000 NA
ATOM     10  H   UNL     1       5.482   2.535  16.707  0.00  0.00    +0.000 HD
ENDROOT
BRANCH   1  11
ATOM     11  C   UNL     1       6.546   4.342  16.542  0.00  0.00    +0.000 C 
BRANCH  11  13
ATOM     12  C   UNL     1       6.244   3.973  14.061  0.00  0.00    +0.000 C 
ATOM     13  C   UNL     1       6.965   4.771  15.135  0.00  0.00    +0.000 C 
ENDBRANCH  11  13
ENDBRANCH   1  11
TORSDOF 2
ENDMDL
MODEL 5
REMARK VINA RESULT:      -5.6      3.179      4.713
REMARK  Name = 
REMARK  4 active torsions:
REMARK  status: ('A' for Active; 'I' for Inactive)
REMARK    1  A    between atoms: C_1  and  C_2
REMARK    2  A    between atoms: C_2  and  C_3
REMARK    3  A    between atoms: C_3  and  N_4
REMARK    4  A    between atoms: C_7  and  C_8
REMARK                            x       y       z     vdW  Elec       q    Type
REMARK                         _______ _______ _______ _____ _____    ______ ____
ROOT
ATOM      1  N   UNL     1       3.867   3.236  19.165  0.00  0.00    +0.000 N 
ATOM      2  C   UNL     1       4.851   3.804  18.372  0.00  0.00    +0.000 A 
ATOM      3  N   UNL     1       5.826   4.437  19.038  0.00  0.00    +0.000 NA
ATOM      4  C   UNL     1       6.796   5.048  18.325  0.00  0.00    +0.000 A 
ATOM      5  C   UNL     1       7.867   5.765  19.088  0.00  0.00    +0.000 C 
ATOM      6  C   UNL     1       6.809   5.030  16.952  0.00  0.00    +0.000 A 
ATOM      7  C   UNL     1       5.774   4.340  16.376  0.00  0.00    +0.000 A 
ATOM      8 CL   UNL     1       5.660   4.211  14.666  0.00  0.00    +0.000 Cl
ATOM      9  N   UNL     1       4.791   3.719  17.044  0.00  0.00    +0.000 NA
ATOM     10  H   UNL     1       4.262   3.157  20.096  0.00  0.00    +0.000 HD
ENDROOT
BRANCH   1  11
ATOM     11  C   UNL     1       3.241   2.038  18.636  0.00  0.00    +0.000 C 
BRANCH  11  13
ATOM     12  C   UNL     1       1.159   2.954  19.734  0.00  0.00    +0.000 C 
ATOM     13  C   UNL     1       1.739   2.288  18.497  0.00  0.00    +0.000 C 
ENDBRANCH  11  13
ENDBRANCH   1  11
TORSDOF 2
ENDMDL
MODEL 6
REMARK VINA RESULT:      -5.5      2.942      4.995
REMARK  Name = 
REMARK  4 active torsions:
REMARK  status: ('A' for Active; 'I' for Inactive)
REMARK    1  A    between atoms: C_1  and  C_2
REMARK    2  A    between atoms: C_2  and  C_3
REMARK    3  A    between atoms: C_3  and  N_4
REMARK    4  A    between atoms: C_7  and  C_8
REMARK                            x       y       z     vdW  Elec       q    Type
REMARK                         _______ _______ _______ _____ _____    ______ ____
ROOT
ATOM      1  N   UNL     1       5.716   3.730  16.489  0.00  0.00    +0.000 N 
ATOM      2  C   UNL     1       4.561   4.040  17.188  0.00  0.00    +0.000 A 
ATOM      3  N   UNL     1       3.933   2.996  17.746  0.00  0.00    +0.000 NA
ATOM      4  C   UNL     1       2.779   3.223  18.408  0.00  0.00    +0.000 A 
ATOM      5  C   UNL     1       2.084   2.039  19.010  0.00  0.00    +0.000 C 
ATOM      6  C   UNL     1       2.245   4.481  18.528  0.00  0.00    +0.000 A 
ATOM      7  C   UNL     1       2.978   5.476  17.934  0.00  0.00    +0.000 A 
ATOM      8 CL   UNL     1       2.450   7.110  18.010  0.00  0.00    +0.000 Cl
ATOM      9  N   UNL     1       4.127   5.298  17.268  0.00  0.00    +0.000 NA
ATOM     10  H   UNL     1       6.006   2.813  16.812  0.00  0.00    +0.000 HD
ENDROOT
BRANCH   1  11
ATOM     11  C   UNL     1       6.743   4.755  16.479  0.00  0.00    +0.000 C 
BRANCH  11  13
ATOM     12  C   UNL     1       7.638   5.865  18.563  0.00  0.00    +0.000 C 
ATOM     13  C   UNL     1       7.611   4.595  17.728  0.00  0.00    +0.000 C 
ENDBRANCH  11  13
ENDBRANCH   1  11
TORSDOF 2
ENDMDL
MODEL 7
REMARK VINA RESULT:      -5.5      1.306      1.384
REMARK  Name = 
REMARK  4 active torsions:
REMARK  status: ('A' for Active; 'I' for Inactive)
REMARK    1  A    between atoms: C_1  and  C_2
REMARK    2  A    between atoms: C_2  and  C_3
REMARK    3  A    between atoms: C_3  and  N_4
REMARK    4  A    between atoms: C_7  and  C_8
REMARK                            x       y       z     vdW  Elec       q    Type
REMARK                         _______ _______ _______ _____ _____    ______ ____
ROOT
ATOM      1  N   UNL     1       6.788   4.194  14.894  0.00  0.00    +0.000 N 
ATOM      2  C   UNL     1       6.392   4.386  16.207  0.00  0.00    +0.000 A 
ATOM      3  N   UNL     1       7.292   4.995  16.991  0.00  0.00    +0.000 NA
ATOM      4  C   UNL     1       6.987   5.178  18.293  0.00  0.00    +0.000 A 
ATOM      5  C   UNL     1       8.014   5.845  19.156  0.00  0.00    +0.000 C 
ATOM      6  C   UNL     1       5.790   4.766  18.823  0.00  0.00    +0.000 A 
ATOM      7  C   UNL     1       4.938   4.171  17.929  0.00  0.00    +0.000 A 
ATOM      8 CL   UNL     1       3.393   3.616  18.435  0.00  0.00    +0.000 Cl
ATOM      9  N   UNL     1       5.199   3.969  16.629  0.00  0.00    +0.000 NA
ATOM     10  H   UNL     1       7.556   4.835  14.731  0.00  0.00    +0.000 HD
ENDROOT
BRANCH   1  11
ATOM     11  C   UNL     1       5.726   4.210  13.904  0.00  0.00    +0.000 C 
BRANCH  11  13
ATOM     12  C   UNL     1       5.056   3.088  11.743  0.00  0.00    +0.000 C 
ATOM     13  C   UNL     1       6.210   3.484  12.649  0.00  0.00    +0.000 C 
ENDBRANCH  11  13
ENDBRANCH   1  11
TORSDOF 2
ENDMDL
MODEL 8
REMARK VINA RESULT:      -5.5      3.573      5.239
REMARK  Name = 
REMARK  4 active torsions:
REMARK  status: ('A' for Active; 'I' for Inactive)
REMARK    1  A    between atoms: C_1  and  C_2
REMARK    2  A    between atoms: C_2  and  C_3
REMARK    3  A    between atoms: C_3  and  N_4
REMARK    4  A    between atoms: C_7  and  C_8
REMARK                            x       y       z     vdW  Elec       q    Type
REMARK                         _______ _______ _______ _____ _____    ______ ____
ROOT
ATOM      1  N   UNL     1       5.507   3.737  18.597  0.00  0.00    +0.000 N 
ATOM      2  C   UNL     1       4.372   4.210  19.234  0.00  0.00    +0.000 A 
ATOM      3  N   UNL     1       3.754   3.326  20.030  0.00  0.00    +0.000 NA
ATOM      4  C   UNL     1       2.618   3.709  20.650  0.00  0.00    +0.000 A 
ATOM      5  C   UNL     1       1.933   2.700  21.520  0.00  0.00    +0.000 C 
ATOM      6  C   UNL     1       2.093   4.967  20.493  0.00  0.00    +0.000 A 
ATOM      7  C   UNL     1       2.815   5.794  19.672  0.00  0.00    +0.000 A 
ATOM      8 CL   UNL     1       2.297   7.407  19.387  0.00  0.00    +0.000 Cl
ATOM      9  N   UNL     1       3.947   5.457  19.037  0.00  0.00    +0.000 NA
ATOM     10  H   UNL     1       5.801   2.914  19.112  0.00  0.00    +0.000 HD
ENDROOT
BRANCH   1  11
ATOM     11  C   UNL     1       6.539   4.722  18.330  0.00  0.00    +0.000 C 
BRANCH  11  13
ATOM     12  C   UNL     1       5.960   4.804  15.873  0.00  0.00    +0.000 C 
ATOM     13  C   UNL     1       7.046   4.529  16.900  0.00  0.00    +0.000 C 
ENDBRANCH  11  13
ENDBRANCH   1  11
TORSDOF 2
ENDMDL
MODEL 9
REMARK VINA RESULT:      -5.4      2.858      4.560
REMARK  Name = 
REMARK  4 active torsions:
REMARK  status: ('A' for Active; 'I' for Inactive)
REMARK    1  A    between atoms: C_1  and  C_2
REMARK    2  A    between atoms: C_2  and  C_3
REMARK    3  A    between atoms: C_3  and  N_4
REMARK    4  A    between atoms: C_7  and  C_8
REMARK                            x       y       z     vdW  Elec       q    Type
REMARK                         _______ _______ _______ _____ _____    ______ ____
ROOT
ATOM      1  N   UNL     1       5.217   3.222  18.886  0.00  0.00    +0.000 N 
ATOM      2  C   UNL     1       5.130   4.266  17.979  0.00  0.00    +0.000 A 
ATOM      3  N   UNL     1       5.895   4.137  16.886  0.00  0.00    +0.000 NA
ATOM      4  C   UNL     1       5.889   5.137  15.980  0.00  0.00    +0.000 A 
ATOM      5  C   UNL     1       6.764   4.982  14.774  0.00  0.00    +0.000 C 
ATOM      6  C   UNL     1       5.123   6.264  16.147  0.00  0.00    +0.000 A 
ATOM      7  C   UNL     1       4.368   6.283  17.291  0.00  0.00    +0.000 A 
ATOM      8 CL   UNL     1       3.342   7.618  17.635  0.00  0.00    +0.000 Cl
ATOM      9  N   UNL     1       4.342   5.314  18.216  0.00  0.00    +0.000 NA
ATOM     10  H   UNL     1       5.609   2.436  18.379  0.00  0.00    +0.000 HD
ENDROOT
BRANCH   1  11
ATOM     11  C   UNL     1       4.015   2.948  19.652  0.00  0.00    +0.000 C 
BRANCH  11  13
ATOM     12  C   UNL     1       1.795   2.535  18.521  0.00  0.00    +0.000 C 
ATOM     13  C   UNL     1       3.153   1.952  18.876  0.00  0.00    +0.000 C 
ENDBRANCH  11  13
ENDBRANCH   1  11
TORSDOF 2
ENDMDL
