MODEL 1
REMARK VINA RESULT:      -8.6      0.000      0.000
REMARK  Name = 
REMARK  7 active torsions:
REMARK  status: ('A' for Active; 'I' for Inactive)
REMARK    1  A    between atoms: C_1  and  C_2
REMARK    2  A    between atoms: C_2  and  C_5
REMARK    3  A    between atoms: C_5  and  N_6
REMARK    4  A    between atoms: C_5  and  N_16
REMARK    5  A    between atoms: C_7  and  C_9
REMARK    6  A    between atoms: N_18  and  C_19
REMARK    7  A    between atoms: N_25  and  C_26
REMARK                            x       y       z     vdW  Elec       q    Type
REMARK                         _______ _______ _______ _____ _____    ______ ____
ROOT
ATOM      1  C   UNL     1       3.112   4.144  18.452  0.00  0.00    +0.000 C 
ENDROOT
BRANCH   1   2
ATOM      2  N   UNL     1       4.550   4.252  18.613  0.00  0.00    +0.000 N 
ATOM      3  C   UNL     1       5.435   4.330  17.571  0.00  0.00    +0.000 C 
ATOM      4  N   UNL     1       4.973   4.410  16.358  0.00  0.00    +0.000 NA
ATOM      5  N   UNL     1       6.739   4.222  17.979  0.00  0.00    +0.000 N 
ATOM      6  H   UNL     1       4.891   3.840  19.472  0.00  0.00    +0.000 HD
ATOM      7  H   UNL     1       7.418   4.190  17.237  0.00  0.00    +0.000 HD
BRANCH   4   8
ATOM      8  C   UNL     1       5.734   4.545  15.186  0.00  0.00    +0.000 A 
ATOM      9  C   UNL     1       5.547   3.781  14.033  0.00  0.00    +0.000 A 
ATOM     10  C   UNL     1       6.433   3.894  12.959  0.00  0.00    +0.000 A 
ATOM     11  C   UNL     1       7.516   4.748  13.078  0.00  0.00    +0.000 A 
ATOM     12  N   UNL     1       7.752   5.496  14.174  0.00  0.00    +0.000 NA
ATOM     13  C   UNL     1       6.866   5.366  15.196  0.00  0.00    +0.000 A 
ENDBRANCH   4   8
BRANCH   5  14
ATOM     14  C   UNL     1       7.160   5.031  19.114  0.00  0.00    +0.000 C 
ATOM     15  N   UNL     1       7.539   5.669  19.998  0.00  0.00    +0.000 NA
ENDBRANCH   5  14
ENDBRANCH   1   2
BRANCH   1  17
ATOM     16  C   UNL     1       3.288   1.548  18.563  0.00  0.00    +0.000 C 
ATOM     17  C   UNL     1       2.555   2.798  19.043  0.00  0.00    +0.000 C 
ATOM     18 CL   UNL     1       0.801   2.615  18.637  0.00  0.00    +0.000 Cl
ATOM     19 CL   UNL     1       2.654   2.850  20.863  0.00  0.00    +0.000 Cl
ENDBRANCH   1  17
BRANCH   1  20
ATOM     20  N   UNL     1       2.608   5.305  19.170  0.00  0.00    +0.000 N 
ATOM     21  C   UNL     1       2.660   6.573  18.637  0.00  0.00    +0.000 C 
ATOM     22  O   UNL     1       3.170   6.841  17.557  0.00  0.00    +0.000 OA
ATOM     23  H   UNL     1       2.333   5.179  20.134  0.00  0.00    +0.000 HD
BRANCH  21  24
ATOM     24  C   UNL     1       2.033   7.652  19.448  0.00  0.00    +0.000 A 
ATOM     25  C   UNL     1       1.688   8.856  18.820  0.00  0.00    +0.000 A 
ATOM     26  C   UNL     1       1.005   9.849  19.529  0.00  0.00    +0.000 A 
ATOM     27  C   UNL     1       0.659   9.632  20.862  0.00  0.00    +0.000 A 
ATOM     28 BR   UNL     1      -0.326  10.942  21.804  0.00  0.00    +0.000 Br
ATOM     29  C   UNL     1       1.009   8.442  21.500  0.00  0.00    +0.000 A 
ATOM     30  C   UNL     1       1.696   7.449  20.794  0.00  0.00    +0.000 A 
ENDBRANCH  21  24
ENDBRANCH   1  20
TORSDOF 6
ENDMDL
MODEL 2
REMARK VINA RESULT:      -8.5      1.107      1.221
REMARK  Name = 
REMARK  7 active torsions:
REMARK  status: ('A' for Active; 'I' for Inactive)
REMARK    1  A    between atoms: C_1  and  C_2
REMARK    2  A    between atoms: C_2  and  C_5
REMARK    3  A    between atoms: C_5  and  N_6
REMARK    4  A    between atoms: C_5  and  N_16
REMARK    5  A    between atoms: C_7  and  C_9
REMARK    6  A    between atoms: N_18  and  C_19
REMARK    7  A    between atoms: N_25  and  C_26
REMARK                            x       y       z     vdW  Elec       q    Type
REMARK                         _______ _______ _______ _____ _____    ______ ____
ROOT
ATOM      1  C   UNL     1       2.810   3.920  18.150  0.00  0.00    +0.000 C 
ENDROOT
BRANCH   1   2
ATOM      2  N   UNL     1       4.238   4.055  18.371  0.00  0.00    +0.000 N 
ATOM      3  C   UNL     1       5.162   4.172  17.368  0.00  0.00    +0.000 C 
ATOM      4  N   UNL     1       4.749   4.263  16.139  0.00  0.00    +0.000 NA
ATOM      5  N   UNL     1       6.450   4.085  17.828  0.00  0.00    +0.000 N 
ATOM      6  H   UNL     1       4.552   3.636  19.237  0.00  0.00    +0.000 HD
ATOM      7  H   UNL     1       7.159   4.081  17.114  0.00  0.00    +0.000 HD
BRANCH   4   8
ATOM      8  C   UNL     1       5.553   4.436  15.002  0.00  0.00    +0.000 A 
ATOM      9  C   UNL     1       5.454   3.666  13.842  0.00  0.00    +0.000 A 
ATOM     10  C   UNL     1       6.381   3.822  12.809  0.00  0.00    +0.000 A 
ATOM     11  C   UNL     1       7.415   4.726  12.975  0.00  0.00    +0.000 A 
ATOM     12  N   UNL     1       7.566   5.483  14.080  0.00  0.00    +0.000 NA
ATOM     13  C   UNL     1       6.643   5.309  15.062  0.00  0.00    +0.000 A 
ENDBRANCH   4   8
BRANCH   5  14
ATOM     14  C   UNL     1       6.806   4.883  18.993  0.00  0.00    +0.000 C 
ATOM     15  N   UNL     1       7.076   5.556  19.891  0.00  0.00    +0.000 NA
ENDBRANCH   5  14
ENDBRANCH   1   2
BRANCH   1  17
ATOM     16  C   UNL     1       1.596   1.664  18.623  0.00  0.00    +0.000 C 
ATOM     17  C   UNL     1       2.141   2.965  19.206  0.00  0.00    +0.000 C 
ATOM     18 CL   UNL     1       0.785   3.818  20.049  0.00  0.00    +0.000 Cl
ATOM     19 CL   UNL     1       3.358   2.543  20.496  0.00  0.00    +0.000 Cl
ENDBRANCH   1  17
BRANCH   1  20
ATOM     20  N   UNL     1       2.322   5.286  18.263  0.00  0.00    +0.000 N 
ATOM     21  C   UNL     1       2.766   6.141  19.245  0.00  0.00    +0.000 C 
ATOM     22  O   UNL     1       3.555   5.823  20.125  0.00  0.00    +0.000 OA
ATOM     23  H   UNL     1       1.544   5.557  17.677  0.00  0.00    +0.000 HD
BRANCH  21  24
ATOM     24  C   UNL     1       2.240   7.533  19.188  0.00  0.00    +0.000 A 
ATOM     25  C   UNL     1       2.260   8.213  17.963  0.00  0.00    +0.000 A 
ATOM     26  C   UNL     1       1.681   9.481  17.854  0.00  0.00    +0.000 A 
ATOM     27  C   UNL     1       1.076  10.062  18.967  0.00  0.00    +0.000 A 
ATOM     28 BR   UNL     1       0.230  11.746  18.806  0.00  0.00    +0.000 Br
ATOM     29  C   UNL     1       1.063   9.399  20.194  0.00  0.00    +0.000 A 
ATOM     30  C   UNL     1       1.645   8.133  20.307  0.00  0.00    +0.000 A 
ENDBRANCH  21  24
ENDBRANCH   1  20
TORSDOF 6
ENDMDL
MODEL 3
REMARK VINA RESULT:      -8.4      0.586      1.066
REMARK  Name = 
REMARK  7 active torsions:
REMARK  status: ('A' for Active; 'I' for Inactive)
REMARK    1  A    between atoms: C_1  and  C_2
REMARK    2  A    between atoms: C_2  and  C_5
REMARK    3  A    between atoms: C_5  and  N_6
REMARK    4  A    between atoms: C_5  and  N_16
REMARK    5  A    between atoms: C_7  and  C_9
REMARK    6  A    between atoms: N_18  and  C_19
REMARK    7  A    between atoms: N_25  and  C_26
REMARK                            x       y       z     vdW  Elec       q    Type
REMARK                         _______ _______ _______ _____ _____    ______ ____
ROOT
ATOM      1  C   UNL     1       3.014   4.343  18.465  0.00  0.00    +0.000 C 
ENDROOT
BRANCH   1   2
ATOM      2  N   UNL     1       4.454   4.400  18.635  0.00  0.00    +0.000 N 
ATOM      3  C   UNL     1       5.348   4.431  17.599  0.00  0.00    +0.000 C 
ATOM      4  N   UNL     1       4.899   4.509  16.382  0.00  0.00    +0.000 NA
ATOM      5  N   UNL     1       6.644   4.282  18.019  0.00  0.00    +0.000 N 
ATOM      6  H   UNL     1       4.773   3.989  19.502  0.00  0.00    +0.000 HD
ATOM      7  H   UNL     1       7.327   4.214  17.283  0.00  0.00    +0.000 HD
BRANCH   4   8
ATOM      8  C   UNL     1       5.672   4.599  15.213  0.00  0.00    +0.000 A 
ATOM      9  C   UNL     1       5.486   3.803  14.082  0.00  0.00    +0.000 A 
ATOM     10  C   UNL     1       6.384   3.872  13.014  0.00  0.00    +0.000 A 
ATOM     11  C   UNL     1       7.476   4.715  13.118  0.00  0.00    +0.000 A 
ATOM     12  N   UNL     1       7.711   5.493  14.193  0.00  0.00    +0.000 NA
ATOM     13  C   UNL     1       6.814   5.405  15.210  0.00  0.00    +0.000 A 
ENDBRANCH   4   8
BRANCH   5  14
ATOM     14  C   UNL     1       7.086   5.092  19.145  0.00  0.00    +0.000 C 
ATOM     15  N   UNL     1       7.402   5.713  20.065  0.00  0.00    +0.000 NA
ENDBRANCH   5  14
ENDBRANCH   1   2
BRANCH   1  17
ATOM     16  C   UNL     1       0.966   3.146  19.543  0.00  0.00    +0.000 C 
ATOM     17  C   UNL     1       2.406   3.016  19.053  0.00  0.00    +0.000 C 
ATOM     18 CL   UNL     1       3.420   2.419  20.428  0.00  0.00    +0.000 Cl
ATOM     19 CL   UNL     1       2.456   1.713  17.779  0.00  0.00    +0.000 Cl
ENDBRANCH   1  17
BRANCH   1  20
ATOM     20  N   UNL     1       2.545   5.520  19.179  0.00  0.00    +0.000 N 
ATOM     21  C   UNL     1       2.572   6.775  18.615  0.00  0.00    +0.000 C 
ATOM     22  O   UNL     1       3.030   7.018  17.506  0.00  0.00    +0.000 OA
ATOM     23  H   UNL     1       2.317   5.417  20.158  0.00  0.00    +0.000 HD
BRANCH  21  24
ATOM     24  C   UNL     1       1.985   7.874  19.431  0.00  0.00    +0.000 A 
ATOM     25  C   UNL     1       1.623   9.069  18.794  0.00  0.00    +0.000 A 
ATOM     26  C   UNL     1       0.976  10.079  19.511  0.00  0.00    +0.000 A 
ATOM     27  C   UNL     1       0.683   9.889  20.861  0.00  0.00    +0.000 A 
ATOM     28 BR   UNL     1      -0.255  11.224  21.817  0.00  0.00    +0.000 Br
ATOM     29  C   UNL     1       1.051   8.709  21.507  0.00  0.00    +0.000 A 
ATOM     30  C   UNL     1       1.703   7.699  20.793  0.00  0.00    +0.000 A 
ENDBRANCH  21  24
ENDBRANCH   1  20
TORSDOF 6
ENDMDL
MODEL 4
REMARK VINA RESULT:      -8.4      0.719      1.357
REMARK  Name = 
REMARK  7 active torsions:
REMARK  status: ('A' for Active; 'I' for Inactive)
REMARK    1  A    between atoms: C_1  and  C_2
REMARK    2  A    between atoms: C_2  and  C_5
REMARK    3  A    between atoms: C_5  and  N_6
REMARK    4  A    between atoms: C_5  and  N_16
REMARK    5  A    between atoms: C_7  and  C_9
REMARK    6  A    between atoms: N_18  and  C_19
REMARK    7  A    between atoms: N_25  and  C_26
REMARK                            x       y       z     vdW  Elec       q    Type
REMARK                         _______ _______ _______ _____ _____    ______ ____
ROOT
ATOM      1  C   UNL     1       3.146   4.004  18.358  0.00  0.00    +0.000 C 
ENDROOT
BRANCH   1   2
ATOM      2  N   UNL     1       4.578   4.170  18.525  0.00  0.00    +0.000 N 
ATOM      3  C   UNL     1       5.464   4.277  17.488  0.00  0.00    +0.000 C 
ATOM      4  N   UNL     1       5.007   4.330  16.272  0.00  0.00    +0.000 NA
ATOM      5  N   UNL     1       6.769   4.223  17.904  0.00  0.00    +0.000 N 
ATOM      6  H   UNL     1       4.929   3.778  19.389  0.00  0.00    +0.000 HD
ATOM      7  H   UNL     1       7.453   4.213  17.166  0.00  0.00    +0.000 HD
BRANCH   4   8
ATOM      8  C   UNL     1       5.768   4.488  15.103  0.00  0.00    +0.000 A 
ATOM      9  C   UNL     1       5.597   3.732  13.943  0.00  0.00    +0.000 A 
ATOM     10  C   UNL     1       6.484   3.868  12.873  0.00  0.00    +0.000 A 
ATOM     11  C   UNL     1       7.552   4.739  13.002  0.00  0.00    +0.000 A 
ATOM     12  N   UNL     1       7.773   5.481  14.105  0.00  0.00    +0.000 NA
ATOM     13  C   UNL     1       6.887   5.327  15.124  0.00  0.00    +0.000 A 
ENDBRANCH   4   8
BRANCH   5  14
ATOM     14  C   UNL     1       7.150   5.056  19.036  0.00  0.00    +0.000 C 
ATOM     15  N   UNL     1       7.410   5.706  19.954  0.00  0.00    +0.000 NA
ENDBRANCH   5  14
ENDBRANCH   1   2
BRANCH   1  17
ATOM     16  C   UNL     1       2.698   2.748  20.596  0.00  0.00    +0.000 C 
ATOM     17  C   UNL     1       2.618   2.706  19.071  0.00  0.00    +0.000 C 
ATOM     18 CL   UNL     1       3.538   1.258  18.497  0.00  0.00    +0.000 Cl
ATOM     19 CL   UNL     1       0.879   2.424  18.603  0.00  0.00    +0.000 Cl
ENDBRANCH   1  17
BRANCH   1  20
ATOM     20  N   UNL     1       2.597   5.214  18.951  0.00  0.00    +0.000 N 
ATOM     21  C   UNL     1       2.744   6.448  18.360  0.00  0.00    +0.000 C 
ATOM     22  O   UNL     1       3.379   6.645  17.333  0.00  0.00    +0.000 OA
ATOM     23  H   UNL     1       2.213   5.148  19.883  0.00  0.00    +0.000 HD
BRANCH  21  24
ATOM     24  C   UNL     1       2.060   7.585  19.037  0.00  0.00    +0.000 A 
ATOM     25  C   UNL     1       1.791   7.491  20.409  0.00  0.00    +0.000 A 
ATOM     26  C   UNL     1       1.244   8.580  21.094  0.00  0.00    +0.000 A 
ATOM     27  C   UNL     1       0.977   9.764  20.409  0.00  0.00    +0.000 A 
ATOM     28 BR   UNL     1       0.304  11.262  21.345  0.00  0.00    +0.000 Br
ATOM     29  C   UNL     1       1.229   9.863  19.040  0.00  0.00    +0.000 A 
ATOM     30  C   UNL     1       1.772   8.773  18.352  0.00  0.00    +0.000 A 
ENDBRANCH  21  24
ENDBRANCH   1  20
TORSDOF 6
ENDMDL
MODEL 5
REMARK VINA RESULT:      -8.3      1.177      1.561
REMARK  Name = 
REMARK  7 active torsions:
REMARK  status: ('A' for Active; 'I' for Inactive)
REMARK    1  A    between atoms: C_1  and  C_2
REMARK    2  A    between atoms: C_2  and  C_5
REMARK    3  A    between atoms: C_5  and  N_6
REMARK    4  A    between atoms: C_5  and  N_16
REMARK    5  A    between atoms: C_7  and  C_9
REMARK    6  A    between atoms: N_18  and  C_19
REMARK    7  A    between atoms: N_25  and  C_26
REMARK                            x       y       z     vdW  Elec       q    Type
REMARK                         _______ _______ _______ _____ _____    ______ ____
ROOT
ATOM      1  C   UNL     1       3.452   3.762  17.867  0.00  0.00    +0.000 C 
ENDROOT
BRANCH   1   2
ATOM      2  N   UNL     1       4.862   4.082  17.994  0.00  0.00    +0.000 N 
ATOM      3  C   UNL     1       5.710   4.246  16.932  0.00  0.00    +0.000 C 
ATOM      4  N   UNL     1       5.224   4.209  15.727  0.00  0.00    +0.000 NA
ATOM      5  N   UNL     1       7.022   4.343  17.318  0.00  0.00    +0.000 N 
ATOM      6  H   UNL     1       5.271   3.759  18.861  0.00  0.00    +0.000 HD
ATOM      7  H   UNL     1       7.687   4.380  16.564  0.00  0.00    +0.000 HD
BRANCH   4   8
ATOM      8  C   UNL     1       5.940   4.406  14.535  0.00  0.00    +0.000 A 
ATOM      9  C   UNL     1       5.757   3.654  13.374  0.00  0.00    +0.000 A 
ATOM     10  C   UNL     1       6.602   3.832  12.276  0.00  0.00    +0.000 A 
ATOM     11  C   UNL     1       7.642   4.740  12.379  0.00  0.00    +0.000 A 
ATOM     12  N   UNL     1       7.872   5.480  13.481  0.00  0.00    +0.000 NA
ATOM     13  C   UNL     1       7.026   5.285  14.528  0.00  0.00    +0.000 A 
ENDBRANCH   4   8
BRANCH   5  14
ATOM     14  C   UNL     1       7.337   5.250  18.412  0.00  0.00    +0.000 C 
ATOM     15  N   UNL     1       7.603   5.931  19.306  0.00  0.00    +0.000 NA
ENDBRANCH   5  14
ENDBRANCH   1   2
BRANCH   1  17
ATOM     16  C   UNL     1       2.555   1.381  18.428  0.00  0.00    +0.000 C 
ATOM     17  C   UNL     1       2.980   2.744  18.969  0.00  0.00    +0.000 C 
ATOM     18 CL   UNL     1       1.596   3.435  19.908  0.00  0.00    +0.000 Cl
ATOM     19 CL   UNL     1       4.329   2.482  20.167  0.00  0.00    +0.000 Cl
ENDBRANCH   1  17
BRANCH   1  20
ATOM     20  N   UNL     1       2.801   5.056  18.005  0.00  0.00    +0.000 N 
ATOM     21  C   UNL     1       3.202   5.979  18.943  0.00  0.00    +0.000 C 
ATOM     22  O   UNL     1       4.089   5.782  19.763  0.00  0.00    +0.000 OA
ATOM     23  H   UNL     1       1.953   5.214  17.479  0.00  0.00    +0.000 HD
BRANCH  21  24
ATOM     24  C   UNL     1       2.498   7.291  18.915  0.00  0.00    +0.000 A 
ATOM     25  C   UNL     1       1.849   7.734  20.075  0.00  0.00    +0.000 A 
ATOM     26  C   UNL     1       1.268   9.005  20.114  0.00  0.00    +0.000 A 
ATOM     27  C   UNL     1       1.345   9.834  18.996  0.00  0.00    +0.000 A 
ATOM     28 BR   UNL     1       0.622  11.580  19.067  0.00  0.00    +0.000 Br
ATOM     29  C   UNL     1       1.977   9.397  17.832  0.00  0.00    +0.000 A 
ATOM     30  C   UNL     1       2.555   8.124  17.790  0.00  0.00    +0.000 A 
ENDBRANCH  21  24
ENDBRANCH   1  20
TORSDOF 6
ENDMDL
MODEL 6
REMARK VINA RESULT:      -8.2      1.160      1.516
REMARK  Name = 
REMARK  7 active torsions:
REMARK  status: ('A' for Active; 'I' for Inactive)
REMARK    1  A    between atoms: C_1  and  C_2
REMARK    2  A    between atoms: C_2  and  C_5
REMARK    3  A    between atoms: C_5  and  N_6
REMARK    4  A    between atoms: C_5  and  N_16
REMARK    5  A    between atoms: C_7  and  C_9
REMARK    6  A    between atoms: N_18  and  C_19
REMARK    7  A    between atoms: N_25  and  C_26
REMARK                            x       y       z     vdW  Elec       q    Type
REMARK                         _______ _______ _______ _____ _____    ______ ____
ROOT
ATOM      1  C   UNL     1       3.447   4.166  17.972  0.00  0.00    +0.000 C 
ENDROOT
BRANCH   1   2
ATOM      2  N   UNL     1       4.882   4.343  18.091  0.00  0.00    +0.000 N 
ATOM      3  C   UNL     1       5.749   4.314  17.032  0.00  0.00    +0.000 C 
ATOM      4  N   UNL     1       5.270   4.218  15.828  0.00  0.00    +0.000 NA
ATOM      5  N   UNL     1       7.062   4.306  17.428  0.00  0.00    +0.000 N 
ATOM      6  H   UNL     1       5.248   4.060  18.990  0.00  0.00    +0.000 HD
ATOM      7  H   UNL     1       7.731   4.200  16.685  0.00  0.00    +0.000 HD
BRANCH   4   8
ATOM      8  C   UNL     1       6.010   4.224  14.635  0.00  0.00    +0.000 A 
ATOM      9  C   UNL     1       7.094   5.065  14.385  0.00  0.00    +0.000 A 
ATOM     10  C   UNL     1       7.690   5.094  13.122  0.00  0.00    +0.000 A 
ATOM     11  C   UNL     1       7.160   4.300  12.119  0.00  0.00    +0.000 A 
ATOM     12  N   UNL     1       6.106   3.482  12.303  0.00  0.00    +0.000 NA
ATOM     13  C   UNL     1       5.555   3.475  13.545  0.00  0.00    +0.000 A 
ENDBRANCH   4   8
BRANCH   5  14
ATOM     14  C   UNL     1       7.467   5.272  18.440  0.00  0.00    +0.000 C 
ATOM     15  N   UNL     1       7.749   6.066  19.229  0.00  0.00    +0.000 NA
ENDBRANCH   5  14
ENDBRANCH   1   2
BRANCH   1  17
ATOM     16  C   UNL     1       3.231   2.842  20.205  0.00  0.00    +0.000 C 
ATOM     17  C   UNL     1       2.953   2.864  18.704  0.00  0.00    +0.000 C 
ATOM     18 CL   UNL     1       3.722   1.402  17.966  0.00  0.00    +0.000 Cl
ATOM     19 CL   UNL     1       1.157   2.676  18.456  0.00  0.00    +0.000 Cl
ENDBRANCH   1  17
BRANCH   1  20
ATOM     20  N   UNL     1       2.908   5.372  18.581  0.00  0.00    +0.000 N 
ATOM     21  C   UNL     1       3.062   6.612  18.006  0.00  0.00    +0.000 C 
ATOM     22  O   UNL     1       3.696   6.817  16.980  0.00  0.00    +0.000 OA
ATOM     23  H   UNL     1       2.526   5.297  19.514  0.00  0.00    +0.000 HD
BRANCH  21  24
ATOM     24  C   UNL     1       2.389   7.745  18.699  0.00  0.00    +0.000 A 
ATOM     25  C   UNL     1       2.091   8.903  17.969  0.00  0.00    +0.000 A 
ATOM     26  C   UNL     1       1.367   9.942  18.562  0.00  0.00    +0.000 A 
ATOM     27  C   UNL     1       0.936   9.817  19.881  0.00  0.00    +0.000 A 
ATOM     28 BR   UNL     1      -0.103  11.190  20.665  0.00  0.00    +0.000 Br
ATOM     29  C   UNL     1       1.239   8.675  20.622  0.00  0.00    +0.000 A 
ATOM     30  C   UNL     1       1.966   7.636  20.031  0.00  0.00    +0.000 A 
ENDBRANCH  21  24
ENDBRANCH   1  20
TORSDOF 6
ENDMDL
MODEL 7
REMARK VINA RESULT:      -8.1      1.064      1.303
REMARK  Name = 
REMARK  7 active torsions:
REMARK  status: ('A' for Active; 'I' for Inactive)
REMARK    1  A    between atoms: C_1  and  C_2
REMARK    2  A    between atoms: C_2  and  C_5
REMARK    3  A    between atoms: C_5  and  N_6
REMARK    4  A    between atoms: C_5  and  N_16
REMARK    5  A    between atoms: C_7  and  C_9
REMARK    6  A    between atoms: N_18  and  C_19
REMARK    7  A    between atoms: N_25  and  C_26
REMARK                            x       y       z     vdW  Elec       q    Type
REMARK                         _______ _______ _______ _____ _____    ______ ____
ROOT
ATOM      1  C   UNL     1       3.546   4.232  18.013  0.00  0.00    +0.000 C 
ENDROOT
BRANCH   1   2
ATOM      2  N   UNL     1       4.979   4.426  18.125  0.00  0.00    +0.000 N 
ATOM      3  C   UNL     1       5.844   4.392  17.064  0.00  0.00    +0.000 C 
ATOM      4  N   UNL     1       5.361   4.274  15.863  0.00  0.00    +0.000 NA
ATOM      5  N   UNL     1       7.157   4.403  17.456  0.00  0.00    +0.000 N 
ATOM      6  H   UNL     1       5.352   4.159  19.027  0.00  0.00    +0.000 HD
ATOM      7  H   UNL     1       7.826   4.294  16.712  0.00  0.00    +0.000 HD
BRANCH   4   8
ATOM      8  C   UNL     1       6.097   4.272  14.667  0.00  0.00    +0.000 A 
ATOM      9  C   UNL     1       7.182   5.110  14.409  0.00  0.00    +0.000 A 
ATOM     10  C   UNL     1       7.775   5.130  13.144  0.00  0.00    +0.000 A 
ATOM     11  C   UNL     1       7.240   4.332  12.147  0.00  0.00    +0.000 A 
ATOM     12  N   UNL     1       6.184   3.517  12.339  0.00  0.00    +0.000 NA
ATOM     13  C   UNL     1       5.637   3.519  13.583  0.00  0.00    +0.000 A 
ENDBRANCH   4   8
BRANCH   5  14
ATOM     14  C   UNL     1       7.556   5.386  18.453  0.00  0.00    +0.000 C 
ATOM     15  N   UNL     1       7.824   6.179  19.248  0.00  0.00    +0.000 NA
ENDBRANCH   5  14
ENDBRANCH   1   2
BRANCH   1  17
ATOM     16  C   UNL     1       2.768   1.754  17.812  0.00  0.00    +0.000 C 
ATOM     17  C   UNL     1       3.071   2.923  18.745  0.00  0.00    +0.000 C 
ATOM     18 CL   UNL     1       1.590   3.259  19.729  0.00  0.00    +0.000 Cl
ATOM     19 CL   UNL     1       4.356   2.391  19.923  0.00  0.00    +0.000 Cl
ENDBRANCH   1  17
BRANCH   1  20
ATOM     20  N   UNL     1       2.996   5.431  18.628  0.00  0.00    +0.000 N 
ATOM     21  C   UNL     1       3.067   6.662  18.018  0.00  0.00    +0.000 C 
ATOM     22  O   UNL     1       3.631   6.867  16.951  0.00  0.00    +0.000 OA
ATOM     23  H   UNL     1       2.673   5.363  19.582  0.00  0.00    +0.000 HD
BRANCH  21  24
ATOM     24  C   UNL     1       2.391   7.784  18.726  0.00  0.00    +0.000 A 
ATOM     25  C   UNL     1       2.094   8.952  18.011  0.00  0.00    +0.000 A 
ATOM     26  C   UNL     1       1.369   9.982  18.617  0.00  0.00    +0.000 A 
ATOM     27  C   UNL     1       0.934   9.839  19.934  0.00  0.00    +0.000 A 
ATOM     28 BR   UNL     1      -0.108  11.199  20.734  0.00  0.00    +0.000 Br
ATOM     29  C   UNL     1       1.236   8.686  20.658  0.00  0.00    +0.000 A 
ATOM     30  C   UNL     1       1.965   7.656  20.055  0.00  0.00    +0.000 A 
ENDBRANCH  21  24
ENDBRANCH   1  20
TORSDOF 6
ENDMDL
MODEL 8
REMARK VINA RESULT:      -8.1      1.139      1.776
REMARK  Name = 
REMARK  7 active torsions:
REMARK  status: ('A' for Active; 'I' for Inactive)
REMARK    1  A    between atoms: C_1  and  C_2
REMARK    2  A    between atoms: C_2  and  C_5
REMARK    3  A    between atoms: C_5  and  N_6
REMARK    4  A    between atoms: C_5  and  N_16
REMARK    5  A    between atoms: C_7  and  C_9
REMARK    6  A    between atoms: N_18  and  C_19
REMARK    7  A    between atoms: N_25  and  C_26
REMARK                            x       y       z     vdW  Elec       q    Type
REMARK                         _______ _______ _______ _____ _____    ______ ____
ROOT
ATOM      1  C   UNL     1       2.894   3.934  18.021  0.00  0.00    +0.000 C 
ENDROOT
BRANCH   1   2
ATOM      2  N   UNL     1       4.317   4.108  18.241  0.00  0.00    +0.000 N 
ATOM      3  C   UNL     1       5.240   4.228  17.237  0.00  0.00    +0.000 C 
ATOM      4  N   UNL     1       4.826   4.287  16.006  0.00  0.00    +0.000 NA
ATOM      5  N   UNL     1       6.529   4.181  17.700  0.00  0.00    +0.000 N 
ATOM      6  H   UNL     1       4.640   3.712  19.114  0.00  0.00    +0.000 HD
ATOM      7  H   UNL     1       7.239   4.181  16.987  0.00  0.00    +0.000 HD
BRANCH   4   8
ATOM      8  C   UNL     1       5.628   4.459  14.866  0.00  0.00    +0.000 A 
ATOM      9  C   UNL     1       5.520   3.693  13.705  0.00  0.00    +0.000 A 
ATOM     10  C   UNL     1       6.444   3.847  12.669  0.00  0.00    +0.000 A 
ATOM     11  C   UNL     1       7.485   4.744  12.835  0.00  0.00    +0.000 A 
ATOM     12  N   UNL     1       7.644   5.497  13.941  0.00  0.00    +0.000 NA
ATOM     13  C   UNL     1       6.723   5.325  14.926  0.00  0.00    +0.000 A 
ENDBRANCH   4   8
BRANCH   5  14
ATOM     14  C   UNL     1       6.864   5.008  18.850  0.00  0.00    +0.000 C 
ATOM     15  N   UNL     1       7.095   5.639  19.789  0.00  0.00    +0.000 NA
ENDBRANCH   5  14
ENDBRANCH   1   2
BRANCH   1  17
ATOM     16  C   UNL     1       0.984   3.555  19.752  0.00  0.00    +0.000 C 
ATOM     17  C   UNL     1       2.244   2.991  19.100  0.00  0.00    +0.000 C 
ATOM     18 CL   UNL     1       3.438   2.619  20.407  0.00  0.00    +0.000 Cl
ATOM     19 CL   UNL     1       1.818   1.395  18.329  0.00  0.00    +0.000 Cl
ENDBRANCH   1  17
BRANCH   1  20
ATOM     20  N   UNL     1       2.374   5.290  18.099  0.00  0.00    +0.000 N 
ATOM     21  C   UNL     1       2.813   6.187  19.045  0.00  0.00    +0.000 C 
ATOM     22  O   UNL     1       3.624   5.917  19.921  0.00  0.00    +0.000 OA
ATOM     23  H   UNL     1       1.580   5.524  17.519  0.00  0.00    +0.000 HD
BRANCH  21  24
ATOM     24  C   UNL     1       2.253   7.564  18.954  0.00  0.00    +0.000 A 
ATOM     25  C   UNL     1       1.597   8.102  20.069  0.00  0.00    +0.000 A 
ATOM     26  C   UNL     1       1.152   9.427  20.052  0.00  0.00    +0.000 A 
ATOM     27  C   UNL     1       1.370  10.214  18.922  0.00  0.00    +0.000 A 
ATOM     28 BR   UNL     1       0.832  12.027  18.920  0.00  0.00    +0.000 Br
ATOM     29  C   UNL     1       2.009   9.684  17.801  0.00  0.00    +0.000 A 
ATOM     30  C   UNL     1       2.452   8.358  17.816  0.00  0.00    +0.000 A 
ENDBRANCH  21  24
ENDBRANCH   1  20
TORSDOF 6
ENDMDL
MODEL 9
REMARK VINA RESULT:      -8.0      1.527      2.131
REMARK  Name = 
REMARK  7 active torsions:
REMARK  status: ('A' for Active; 'I' for Inactive)
REMARK    1  A    between atoms: C_1  and  C_2
REMARK    2  A    between atoms: C_2  and  C_5
REMARK    3  A    between atoms: C_5  and  N_6
REMARK    4  A    between atoms: C_5  and  N_16
REMARK    5  A    between atoms: C_7  and  C_9
REMARK    6  A    between atoms: N_18  and  C_19
REMARK    7  A    between atoms: N_25  and  C_26
REMARK                            x       y       z     vdW  Elec       q    Type
REMARK                         _______ _______ _______ _____ _____    ______ ____
ROOT
ATOM      1  C   UNL     1       3.768   3.607  17.740  0.00  0.00    +0.000 C 
ENDROOT
BRANCH   1   2
ATOM      2  N   UNL     1       5.158   4.003  17.867  0.00  0.00    +0.000 N 
ATOM      3  C   UNL     1       6.017   4.143  16.809  0.00  0.00    +0.000 C 
ATOM      4  N   UNL     1       5.554   4.009  15.602  0.00  0.00    +0.000 NA
ATOM      5  N   UNL     1       7.315   4.329  17.207  0.00  0.00    +0.000 N 
ATOM      6  H   UNL     1       5.567   3.754  18.758  0.00  0.00    +0.000 HD
ATOM      7  H   UNL     1       7.991   4.351  16.462  0.00  0.00    +0.000 HD
BRANCH   4   8
ATOM      8  C   UNL     1       6.280   4.167  14.411  0.00  0.00    +0.000 A 
ATOM      9  C   UNL     1       7.249   5.150  14.203  0.00  0.00    +0.000 A 
ATOM     10  C   UNL     1       7.830   5.315  12.943  0.00  0.00    +0.000 A 
ATOM     11  C   UNL     1       7.397   4.512  11.903  0.00  0.00    +0.000 A 
ATOM     12  N   UNL     1       6.455   3.559  12.045  0.00  0.00    +0.000 NA
ATOM     13  C   UNL     1       5.917   3.422  13.285  0.00  0.00    +0.000 A 
ENDBRANCH   4   8
BRANCH   5  14
ATOM     14  C   UNL     1       7.567   5.315  18.248  0.00  0.00    +0.000 C 
ATOM     15  N   UNL     1       7.732   6.126  19.054  0.00  0.00    +0.000 NA
ENDBRANCH   5  14
ENDBRANCH   1   2
BRANCH   1  17
ATOM     16  C   UNL     1       1.900   2.593  19.245  0.00  0.00    +0.000 C 
ATOM     17  C   UNL     1       3.364   2.533  18.815  0.00  0.00    +0.000 C 
ATOM     18 CL   UNL     1       4.394   2.707  20.292  0.00  0.00    +0.000 Cl
ATOM     19 CL   UNL     1       3.693   0.866  18.157  0.00  0.00    +0.000 Cl
ENDBRANCH   1  17
BRANCH   1  20
ATOM     20  N   UNL     1       3.046   4.857  17.918  0.00  0.00    +0.000 N 
ATOM     21  C   UNL     1       3.419   5.788  18.860  0.00  0.00    +0.000 C 
ATOM     22  O   UNL     1       4.341   5.632  19.650  0.00  0.00    +0.000 OA
ATOM     23  H   UNL     1       2.175   4.972  17.420  0.00  0.00    +0.000 HD
BRANCH  21  24
ATOM     24  C   UNL     1       2.638   7.056  18.875  0.00  0.00    +0.000 A 
ATOM     25  C   UNL     1       1.982   7.431  20.055  0.00  0.00    +0.000 A 
ATOM     26  C   UNL     1       1.327   8.663  20.134  0.00  0.00    +0.000 A 
ATOM     27  C   UNL     1       1.336   9.522  19.036  0.00  0.00    +0.000 A 
ATOM     28 BR   UNL     1       0.512  11.219  19.161  0.00  0.00    +0.000 Br
ATOM     29  C   UNL     1       1.975   9.152  17.852  0.00  0.00    +0.000 A 
ATOM     30  C   UNL     1       2.627   7.918  17.770  0.00  0.00    +0.000 A 
ENDBRANCH  21  24
ENDBRANCH   1  20
TORSDOF 6
ENDMDL
