MODEL 1
REMARK VINA RESULT:      -7.1      0.000      0.000
REMARK  Name = 
REMARK  12 active torsions:
REMARK  status: ('A' for Active; 'I' for Inactive)
REMARK    1  A    between atoms: C_1  and  C_2
REMARK    2  A    between atoms: C_2  and  C_3
REMARK    3  A    between atoms: C_2  and  C_4
REMARK    4  A    between atoms: C_2  and  C_5
REMARK    5  A    between atoms: C_8  and  C_9
REMARK    6  A    between atoms: N_10  and  O_11
REMARK    7  A    between atoms: O_11  and  C_12
REMARK    8  A    between atoms: C_14  and  C_15
REMARK    9  A    between atoms: C_15  and  O_16
REMARK   10  A    between atoms: C_17  and  O_18
REMARK   11  A    between atoms: C_19  and  O_20
REMARK   12  A    between atoms: C_21  and  O_22
REMARK                            x       y       z     vdW  Elec       q    Type
REMARK                         _______ _______ _______ _____ _____    ______ ____
ROOT
ATOM      1  C   UNL     1       5.251   6.130  16.867  0.00  0.00    +0.000 C 
ATOM      2  O   UNL     1       5.064   5.670  15.514  0.00  0.00    +0.000 OA
ATOM      3  C   UNL     1       5.686   4.407  15.206  0.00  0.00    +0.000 C 
ATOM      4  C   UNL     1       7.197   4.465  15.471  0.00  0.00    +0.000 C 
ATOM      5  C   UNL     1       7.469   4.932  16.911  0.00  0.00    +0.000 C 
ATOM      6  C   UNL     1       6.754   6.264  17.188  0.00  0.00    +0.000 C 
ENDROOT
BRANCH   4   7
ATOM      7  O   UNL     1       7.842   5.353  14.550  0.00  0.00    +0.000 OA
ATOM      8  H   UNL     1       7.389   6.221  14.582  0.00  0.00    +0.000 HD
ENDBRANCH   4   7
BRANCH   5   9
ATOM      9  O   UNL     1       7.070   3.941  17.874  0.00  0.00    +0.000 OA
ATOM     10  H   UNL     1       6.223   3.544  17.584  0.00  0.00    +0.000 HD
ENDBRANCH   5   9
BRANCH   6  11
ATOM     11  O   UNL     1       6.979   6.670  18.545  0.00  0.00    +0.000 OA
ATOM     12  H   UNL     1       6.107   6.646  18.985  0.00  0.00    +0.000 HD
ENDBRANCH   6  11
BRANCH   1  13
ATOM     13  O   UNL     1       4.631   5.344  17.917  0.00  0.00    +0.000 OA
BRANCH  13  15
ATOM     14  C   UNL     1       2.996   6.822  18.049  0.00  0.00    +0.000 C 
ATOM     15  N   UNL     1       3.829   6.136  18.751  0.00  0.00    +0.000 NA
BRANCH  14  19
ATOM     16  C   UNL     1       0.778   9.938  19.979  0.00  0.00    +0.000 A 
ATOM     17  C   UNL     1       1.086  10.002  18.605  0.00  0.00    +0.000 A 
ATOM     18  C   UNL     1       1.781   8.968  17.967  0.00  0.00    +0.000 A 
ATOM     19  C   UNL     1       2.173   7.852  18.695  0.00  0.00    +0.000 A 
ATOM     20  C   UNL     1       1.875   7.757  20.055  0.00  0.00    +0.000 A 
ATOM     21  C   UNL     1       1.183   8.789  20.686  0.00  0.00    +0.000 A 
BRANCH  16  23
ATOM     22  C   UNL     1       0.801  12.351  20.892  0.00  0.00    +0.000 C 
ATOM     23  C   UNL     1      -0.005  11.046  20.710  0.00  0.00    +0.000 C 
ATOM     24  C   UNL     1      -0.423  10.563  22.116  0.00  0.00    +0.000 C 
ATOM     25  C   UNL     1      -1.272  11.399  19.904  0.00  0.00    +0.000 C 
ENDBRANCH  16  23
ENDBRANCH  14  19
ENDBRANCH  13  15
ENDBRANCH   1  13
BRANCH   3  26
ATOM     26  C   UNL     1       5.368   4.063  13.739  0.00  0.00    +0.000 C 
BRANCH  26  27
ATOM     27  O   UNL     1       6.356   3.203  13.170  0.00  0.00    +0.000 OA
ATOM     28  H   UNL     1       5.987   2.829  12.347  0.00  0.00    +0.000 HD
ENDBRANCH  26  27
ENDBRANCH   3  26
TORSDOF 9
ENDMDL
MODEL 2
REMARK VINA RESULT:      -7.0      5.243      7.131
REMARK  Name = 
REMARK  12 active torsions:
REMARK  status: ('A' for Active; 'I' for Inactive)
REMARK    1  A    between atoms: C_1  and  C_2
REMARK    2  A    between atoms: C_2  and  C_3
REMARK    3  A    between atoms: C_2  and  C_4
REMARK    4  A    between atoms: C_2  and  C_5
REMARK    5  A    between atoms: C_8  and  C_9
REMARK    6  A    between atoms: N_10  and  O_11
REMARK    7  A    between atoms: O_11  and  C_12
REMARK    8  A    between atoms: C_14  and  C_15
REMARK    9  A    between atoms: C_15  and  O_16
REMARK   10  A    between atoms: C_17  and  O_18
REMARK   11  A    between atoms: C_19  and  O_20
REMARK   12  A    between atoms: C_21  and  O_22
REMARK                            x       y       z     vdW  Elec       q    Type
REMARK                         _______ _______ _______ _____ _____    ______ ____
ROOT
ATOM      1  C   UNL     1       6.237   6.865  17.089  0.00  0.00    +0.000 C 
ATOM      2  O   UNL     1       5.041   6.706  17.878  0.00  0.00    +0.000 OA
ATOM      3  C   UNL     1       5.010   5.530  18.711  0.00  0.00    +0.000 C 
ATOM      4  C   UNL     1       5.178   4.261  17.864  0.00  0.00    +0.000 C 
ATOM      5  C   UNL     1       6.452   4.354  17.007  0.00  0.00    +0.000 C 
ATOM      6  C   UNL     1       6.442   5.643  16.169  0.00  0.00    +0.000 C 
ENDROOT
BRANCH   4   7
ATOM      7  O   UNL     1       4.043   4.061  17.013  0.00  0.00    +0.000 OA
ATOM      8  H   UNL     1       3.503   3.330  17.377  0.00  0.00    +0.000 HD
ENDBRANCH   4   7
BRANCH   5   9
ATOM      9  O   UNL     1       7.640   4.293  17.814  0.00  0.00    +0.000 OA
ATOM     10  H   UNL     1       8.416   4.189  17.226  0.00  0.00    +0.000 HD
ENDBRANCH   5   9
BRANCH   6  11
ATOM     11  O   UNL     1       7.651   5.743  15.406  0.00  0.00    +0.000 OA
ATOM     12  H   UNL     1       8.039   4.846  15.389  0.00  0.00    +0.000 HD
ENDBRANCH   6  11
BRANCH   1  13
ATOM     13  O   UNL     1       7.473   7.102  17.812  0.00  0.00    +0.000 OA
BRANCH  13  15
ATOM     14  C   UNL     1       8.447   8.972  18.466  0.00  0.00    +0.000 C 
ATOM     15  N   UNL     1       8.073   8.309  17.428  0.00  0.00    +0.000 NA
BRANCH  14  19
ATOM     16  C   UNL     1       9.817  13.024  18.220  0.00  0.00    +0.000 A 
ATOM     17  C   UNL     1      10.614  12.016  18.798  0.00  0.00    +0.000 A 
ATOM     18  C   UNL     1      10.182  10.685  18.847  0.00  0.00    +0.000 A 
ATOM     19  C   UNL     1       8.944  10.345  18.315  0.00  0.00    +0.000 A 
ATOM     20  C   UNL     1       8.137  11.321  17.729  0.00  0.00    +0.000 A 
ATOM     21  C   UNL     1       8.572  12.644  17.682  0.00  0.00    +0.000 A 
BRANCH  16  23
ATOM     22  C   UNL     1      11.285  14.753  16.992  0.00  0.00    +0.000 C 
ATOM     23  C   UNL     1      10.269  14.494  18.127  0.00  0.00    +0.000 C 
ATOM     24  C   UNL     1      10.936  14.930  19.449  0.00  0.00    +0.000 C 
ATOM     25  C   UNL     1       9.045  15.394  17.860  0.00  0.00    +0.000 C 
ENDBRANCH  16  23
ENDBRANCH  14  19
ENDBRANCH  13  15
ENDBRANCH   1  13
BRANCH   3  26
ATOM     26  C   UNL     1       3.684   5.534  19.492  0.00  0.00    +0.000 C 
BRANCH  26  27
ATOM     27  O   UNL     1       3.267   4.211  19.836  0.00  0.00    +0.000 OA
ATOM     28  H   UNL     1       2.306   4.150  19.673  0.00  0.00    +0.000 HD
ENDBRANCH  26  27
ENDBRANCH   3  26
TORSDOF 9
ENDMDL
MODEL 3
REMARK VINA RESULT:      -6.9      5.104      6.867
REMARK  Name = 
REMARK  12 active torsions:
REMARK  status: ('A' for Active; 'I' for Inactive)
REMARK    1  A    between atoms: C_1  and  C_2
REMARK    2  A    between atoms: C_2  and  C_3
REMARK    3  A    between atoms: C_2  and  C_4
REMARK    4  A    between atoms: C_2  and  C_5
REMARK    5  A    between atoms: C_8  and  C_9
REMARK    6  A    between atoms: N_10  and  O_11
REMARK    7  A    between atoms: O_11  and  C_12
REMARK    8  A    between atoms: C_14  and  C_15
REMARK    9  A    between atoms: C_15  and  O_16
REMARK   10  A    between atoms: C_17  and  O_18
REMARK   11  A    between atoms: C_19  and  O_20
REMARK   12  A    between atoms: C_21  and  O_22
REMARK                            x       y       z     vdW  Elec       q    Type
REMARK                         _______ _______ _______ _____ _____    ______ ____
ROOT
ATOM      1  C   UNL     1       6.182   6.787  16.877  0.00  0.00    +0.000 C 
ATOM      2  O   UNL     1       4.973   6.687  17.656  0.00  0.00    +0.000 OA
ATOM      3  C   UNL     1       4.914   5.558  18.551  0.00  0.00    +0.000 C 
ATOM      4  C   UNL     1       5.077   4.242  17.777  0.00  0.00    +0.000 C 
ATOM      5  C   UNL     1       6.363   4.273  16.934  0.00  0.00    +0.000 C 
ATOM      6  C   UNL     1       6.382   5.514  16.028  0.00  0.00    +0.000 C 
ENDROOT
BRANCH   4   7
ATOM      7  O   UNL     1       3.951   4.011  16.922  0.00  0.00    +0.000 OA
ATOM      8  H   UNL     1       3.197   3.711  17.470  0.00  0.00    +0.000 HD
ENDBRANCH   4   7
BRANCH   5   9
ATOM      9  O   UNL     1       7.539   4.240  17.761  0.00  0.00    +0.000 OA
ATOM     10  H   UNL     1       8.140   4.961  17.482  0.00  0.00    +0.000 HD
ENDBRANCH   5   9
BRANCH   6  11
ATOM     11  O   UNL     1       7.603   5.557  15.278  0.00  0.00    +0.000 OA
ATOM     12  H   UNL     1       8.327   5.476  15.929  0.00  0.00    +0.000 HD
ENDBRANCH   6  11
BRANCH   1  13
ATOM     13  O   UNL     1       7.410   7.047  17.604  0.00  0.00    +0.000 OA
BRANCH  13  15
ATOM     14  C   UNL     1       8.594   8.684  18.494  0.00  0.00    +0.000 C 
ATOM     15  N   UNL     1       7.768   8.401  17.548  0.00  0.00    +0.000 NA
BRANCH  14  19
ATOM     16  C   UNL     1       9.500  12.794  19.297  0.00  0.00    +0.000 A 
ATOM     17  C   UNL     1       9.761  11.787  20.249  0.00  0.00    +0.000 A 
ATOM     18  C   UNL     1       9.498  10.440  19.974  0.00  0.00    +0.000 A 
ATOM     19  C   UNL     1       8.972  10.081  18.738  0.00  0.00    +0.000 A 
ATOM     20  C   UNL     1       8.711  11.055  17.774  0.00  0.00    +0.000 A 
ATOM     21  C   UNL     1       8.976  12.395  18.053  0.00  0.00    +0.000 A 
BRANCH  16  23
ATOM     22  C   UNL     1       8.556  15.191  19.422  0.00  0.00    +0.000 C 
ATOM     23  C   UNL     1       9.799  14.283  19.556  0.00  0.00    +0.000 C 
ATOM     24  C   UNL     1      10.854  14.796  18.553  0.00  0.00    +0.000 C 
ATOM     25  C   UNL     1      10.342  14.458  20.990  0.00  0.00    +0.000 C 
ENDBRANCH  16  23
ENDBRANCH  14  19
ENDBRANCH  13  15
ENDBRANCH   1  13
BRANCH   3  26
ATOM     26  C   UNL     1       3.578   5.621  19.312  0.00  0.00    +0.000 C 
BRANCH  26  27
ATOM     27  O   UNL     1       2.500   6.014  18.460  0.00  0.00    +0.000 OA
ATOM     28  H   UNL     1       2.784   5.872  17.537  0.00  0.00    +0.000 HD
ENDBRANCH  26  27
ENDBRANCH   3  26
TORSDOF 9
ENDMDL
MODEL 4
REMARK VINA RESULT:      -6.9      0.275      1.349
REMARK  Name = 
REMARK  12 active torsions:
REMARK  status: ('A' for Active; 'I' for Inactive)
REMARK    1  A    between atoms: C_1  and  C_2
REMARK    2  A    between atoms: C_2  and  C_3
REMARK    3  A    between atoms: C_2  and  C_4
REMARK    4  A    between atoms: C_2  and  C_5
REMARK    5  A    between atoms: C_8  and  C_9
REMARK    6  A    between atoms: N_10  and  O_11
REMARK    7  A    between atoms: O_11  and  C_12
REMARK    8  A    between atoms: C_14  and  C_15
REMARK    9  A    between atoms: C_15  and  O_16
REMARK   10  A    between atoms: C_17  and  O_18
REMARK   11  A    between atoms: C_19  and  O_20
REMARK   12  A    between atoms: C_21  and  O_22
REMARK                            x       y       z     vdW  Elec       q    Type
REMARK                         _______ _______ _______ _____ _____    ______ ____
ROOT
ATOM      1  C   UNL     1       5.011   6.021  16.675  0.00  0.00    +0.000 C 
ATOM      2  O   UNL     1       4.946   5.578  15.305  0.00  0.00    +0.000 OA
ATOM      3  C   UNL     1       5.629   4.339  15.029  0.00  0.00    +0.000 C 
ATOM      4  C   UNL     1       7.112   4.439  15.413  0.00  0.00    +0.000 C 
ATOM      5  C   UNL     1       7.256   4.891  16.876  0.00  0.00    +0.000 C 
ATOM      6  C   UNL     1       6.480   6.196  17.115  0.00  0.00    +0.000 C 
ENDROOT
BRANCH   4   7
ATOM      7  O   UNL     1       7.799   5.361  14.558  0.00  0.00    +0.000 OA
ATOM      8  H   UNL     1       7.891   6.216  15.028  0.00  0.00    +0.000 HD
ENDBRANCH   4   7
BRANCH   5   9
ATOM      9  O   UNL     1       6.815   3.873  17.791  0.00  0.00    +0.000 OA
ATOM     10  H   UNL     1       7.494   3.169  17.832  0.00  0.00    +0.000 HD
ENDBRANCH   5   9
BRANCH   6  11
ATOM     11  O   UNL     1       6.585   6.587  18.490  0.00  0.00    +0.000 OA
ATOM     12  H   UNL     1       7.189   5.944  18.911  0.00  0.00    +0.000 HD
ENDBRANCH   6  11
BRANCH   1  13
ATOM     13  O   UNL     1       4.336   5.200  17.662  0.00  0.00    +0.000 OA
BRANCH  13  15
ATOM     14  C   UNL     1       3.131   7.040  17.846  0.00  0.00    +0.000 C 
ATOM     15  N   UNL     1       3.466   5.958  18.457  0.00  0.00    +0.000 NA
BRANCH  14  19
ATOM     16  C   UNL     1       0.709   9.943  19.862  0.00  0.00    +0.000 A 
ATOM     17  C   UNL     1       1.160   8.782  20.521  0.00  0.00    +0.000 A 
ATOM     18  C   UNL     1       1.980   7.850  19.873  0.00  0.00    +0.000 A 
ATOM     19  C   UNL     1       2.363   8.071  18.556  0.00  0.00    +0.000 A 
ATOM     20  C   UNL     1       1.938   9.216  17.881  0.00  0.00    +0.000 A 
ATOM     21  C   UNL     1       1.122  10.141  18.531  0.00  0.00    +0.000 A 
BRANCH  16  23
ATOM     22  C   UNL     1      -0.662  10.577  21.954  0.00  0.00    +0.000 C 
ATOM     23  C   UNL     1      -0.175  11.001  20.550  0.00  0.00    +0.000 C 
ATOM     24  C   UNL     1      -1.429  11.285  19.695  0.00  0.00    +0.000 C 
ATOM     25  C   UNL     1       0.624  12.310  20.719  0.00  0.00    +0.000 C 
ENDBRANCH  16  23
ENDBRANCH  14  19
ENDBRANCH  13  15
ENDBRANCH   1  13
BRANCH   3  26
ATOM     26  C   UNL     1       5.437   4.010  13.538  0.00  0.00    +0.000 C 
BRANCH  26  27
ATOM     27  O   UNL     1       6.482   3.170  13.041  0.00  0.00    +0.000 OA
ATOM     28  H   UNL     1       6.561   2.406  13.643  0.00  0.00    +0.000 HD
ENDBRANCH  26  27
ENDBRANCH   3  26
TORSDOF 9
ENDMDL
MODEL 5
REMARK VINA RESULT:      -6.9      4.955      6.802
REMARK  Name = 
REMARK  12 active torsions:
REMARK  status: ('A' for Active; 'I' for Inactive)
REMARK    1  A    between atoms: C_1  and  C_2
REMARK    2  A    between atoms: C_2  and  C_3
REMARK    3  A    between atoms: C_2  and  C_4
REMARK    4  A    between atoms: C_2  and  C_5
REMARK    5  A    between atoms: C_8  and  C_9
REMARK    6  A    between atoms: N_10  and  O_11
REMARK    7  A    between atoms: O_11  and  C_12
REMARK    8  A    between atoms: C_14  and  C_15
REMARK    9  A    between atoms: C_15  and  O_16
REMARK   10  A    between atoms: C_17  and  O_18
REMARK   11  A    between atoms: C_19  and  O_20
REMARK   12  A    between atoms: C_21  and  O_22
REMARK                            x       y       z     vdW  Elec       q    Type
REMARK                         _______ _______ _______ _____ _____    ______ ____
ROOT
ATOM      1  C   UNL     1       5.741   6.743  16.680  0.00  0.00    +0.000 C 
ATOM      2  O   UNL     1       4.781   6.613  17.748  0.00  0.00    +0.000 OA
ATOM      3  C   UNL     1       4.882   5.397  18.515  0.00  0.00    +0.000 C 
ATOM      4  C   UNL     1       4.733   4.168  17.608  0.00  0.00    +0.000 C 
ATOM      5  C   UNL     1       5.745   4.232  16.452  0.00  0.00    +0.000 C 
ATOM      6  C   UNL     1       5.612   5.563  15.694  0.00  0.00    +0.000 C 
ENDROOT
BRANCH   4   7
ATOM      7  O   UNL     1       3.405   4.083  17.077  0.00  0.00    +0.000 OA
ATOM      8  H   UNL     1       2.949   3.323  17.492  0.00  0.00    +0.000 HD
ENDBRANCH   4   7
BRANCH   5   9
ATOM      9  O   UNL     1       7.094   4.056  16.917  0.00  0.00    +0.000 OA
ATOM     10  H   UNL     1       7.076   3.533  17.745  0.00  0.00    +0.000 HD
ENDBRANCH   5   9
BRANCH   6  11
ATOM     11  O   UNL     1       6.587   5.632  14.645  0.00  0.00    +0.000 OA
ATOM     12  H   UNL     1       6.566   4.765  14.195  0.00  0.00    +0.000 HD
ENDBRANCH   6  11
BRANCH   1  13
ATOM     13  O   UNL     1       7.135   6.866  17.063  0.00  0.00    +0.000 OA
BRANCH  13  15
ATOM     14  C   UNL     1       8.265   8.429  18.137  0.00  0.00    +0.000 C 
ATOM     15  N   UNL     1       7.547   8.205  17.091  0.00  0.00    +0.000 NA
BRANCH  14  19
ATOM     16  C   UNL     1       9.607  12.410  18.977  0.00  0.00    +0.000 A 
ATOM     17  C   UNL     1       8.803  12.130  17.853  0.00  0.00    +0.000 A 
ATOM     18  C   UNL     1       8.336  10.836  17.597  0.00  0.00    +0.000 A 
ATOM     19  C   UNL     1       8.664   9.803  18.467  0.00  0.00    +0.000 A 
ATOM     20  C   UNL     1       9.451  10.052  19.591  0.00  0.00    +0.000 A 
ATOM     21  C   UNL     1       9.914  11.342  19.842  0.00  0.00    +0.000 A 
BRANCH  16  23
ATOM     22  C   UNL     1      11.650  13.975  19.153  0.00  0.00    +0.000 C 
ATOM     23  C   UNL     1      10.119  13.826  19.303  0.00  0.00    +0.000 C 
ATOM     24  C   UNL     1       9.761  14.201  20.756  0.00  0.00    +0.000 C 
ATOM     25  C   UNL     1       9.466  14.844  18.346  0.00  0.00    +0.000 C 
ENDBRANCH  16  23
ENDBRANCH  14  19
ENDBRANCH  13  15
ENDBRANCH   1  13
BRANCH   3  26
ATOM     26  C   UNL     1       3.806   5.437  19.616  0.00  0.00    +0.000 C 
BRANCH  26  27
ATOM     27  O   UNL     1       3.312   4.132  19.923  0.00  0.00    +0.000 OA
ATOM     28  H   UNL     1       4.040   3.498  19.784  0.00  0.00    +0.000 HD
ENDBRANCH  26  27
ENDBRANCH   3  26
TORSDOF 9
ENDMDL
MODEL 6
REMARK VINA RESULT:      -6.8      4.763      6.861
REMARK  Name = 
REMARK  12 active torsions:
REMARK  status: ('A' for Active; 'I' for Inactive)
REMARK    1  A    between atoms: C_1  and  C_2
REMARK    2  A    between atoms: C_2  and  C_3
REMARK    3  A    between atoms: C_2  and  C_4
REMARK    4  A    between atoms: C_2  and  C_5
REMARK    5  A    between atoms: C_8  and  C_9
REMARK    6  A    between atoms: N_10  and  O_11
REMARK    7  A    between atoms: O_11  and  C_12
REMARK    8  A    between atoms: C_14  and  C_15
REMARK    9  A    between atoms: C_15  and  O_16
REMARK   10  A    between atoms: C_17  and  O_18
REMARK   11  A    between atoms: C_19  and  O_20
REMARK   12  A    between atoms: C_21  and  O_22
REMARK                            x       y       z     vdW  Elec       q    Type
REMARK                         _______ _______ _______ _____ _____    ______ ____
ROOT
ATOM      1  C   UNL     1       5.737   6.350  17.584  0.00  0.00    +0.000 C 
ATOM      2  O   UNL     1       5.184   5.565  18.659  0.00  0.00    +0.000 OA
ATOM      3  C   UNL     1       5.247   4.138  18.469  0.00  0.00    +0.000 C 
ATOM      4  C   UNL     1       4.525   3.728  17.178  0.00  0.00    +0.000 C 
ATOM      5  C   UNL     1       5.082   4.518  15.981  0.00  0.00    +0.000 C 
ATOM      6  C   UNL     1       5.018   6.028  16.257  0.00  0.00    +0.000 C 
ENDROOT
BRANCH   4   7
ATOM      7  O   UNL     1       3.115   3.958  17.287  0.00  0.00    +0.000 OA
ATOM      8  H   UNL     1       2.653   3.392  16.635  0.00  0.00    +0.000 HD
ENDBRANCH   4   7
BRANCH   5   9
ATOM      9  O   UNL     1       6.429   4.124  15.666  0.00  0.00    +0.000 OA
ATOM     10  H   UNL     1       6.484   3.147  15.688  0.00  0.00    +0.000 HD
ENDBRANCH   5   9
BRANCH   6  11
ATOM     11  O   UNL     1       5.578   6.754  15.154  0.00  0.00    +0.000 OA
ATOM     12  H   UNL     1       6.046   7.520  15.541  0.00  0.00    +0.000 HD
ENDBRANCH   6  11
BRANCH   1  13
ATOM     13  O   UNL     1       7.167   6.244  17.364  0.00  0.00    +0.000 OA
BRANCH  13  15
ATOM     14  C   UNL     1       7.550   8.393  17.693  0.00  0.00    +0.000 C 
ATOM     15  N   UNL     1       7.875   7.212  18.089  0.00  0.00    +0.000 NA
BRANCH  14  19
ATOM     16  C   UNL     1       9.878  11.740  19.010  0.00  0.00    +0.000 A 
ATOM     17  C   UNL     1       9.020  11.838  17.897  0.00  0.00    +0.000 A 
ATOM     18  C   UNL     1       8.233  10.755  17.487  0.00  0.00    +0.000 A 
ATOM     19  C   UNL     1       8.292   9.558  18.190  0.00  0.00    +0.000 A 
ATOM     20  C   UNL     1       9.127   9.434  19.301  0.00  0.00    +0.000 A 
ATOM     21  C   UNL     1       9.908  10.515  19.705  0.00  0.00    +0.000 A 
BRANCH  16  23
ATOM     22  C   UNL     1      12.235  12.557  19.668  0.00  0.00    +0.000 C 
ATOM     23  C   UNL     1      10.741  12.917  19.504  0.00  0.00    +0.000 C 
ATOM     24  C   UNL     1      10.234  13.410  20.875  0.00  0.00    +0.000 C 
ATOM     25  C   UNL     1      10.659  14.077  18.490  0.00  0.00    +0.000 C 
ENDBRANCH  16  23
ENDBRANCH  14  19
ENDBRANCH  13  15
ENDBRANCH   1  13
BRANCH   3  26
ATOM     26  C   UNL     1       4.638   3.463  19.712  0.00  0.00    +0.000 C 
BRANCH  26  27
ATOM     27  O   UNL     1       5.165   2.150  19.914  0.00  0.00    +0.000 OA
ATOM     28  H   UNL     1       4.507   1.511  19.580  0.00  0.00    +0.000 HD
ENDBRANCH  26  27
ENDBRANCH   3  26
TORSDOF 9
ENDMDL
MODEL 7
REMARK VINA RESULT:      -6.8      4.812      6.682
REMARK  Name = 
REMARK  12 active torsions:
REMARK  status: ('A' for Active; 'I' for Inactive)
REMARK    1  A    between atoms: C_1  and  C_2
REMARK    2  A    between atoms: C_2  and  C_3
REMARK    3  A    between atoms: C_2  and  C_4
REMARK    4  A    between atoms: C_2  and  C_5
REMARK    5  A    between atoms: C_8  and  C_9
REMARK    6  A    between atoms: N_10  and  O_11
REMARK    7  A    between atoms: O_11  and  C_12
REMARK    8  A    between atoms: C_14  and  C_15
REMARK    9  A    between atoms: C_15  and  O_16
REMARK   10  A    between atoms: C_17  and  O_18
REMARK   11  A    between atoms: C_19  and  O_20
REMARK   12  A    between atoms: C_21  and  O_22
REMARK                            x       y       z     vdW  Elec       q    Type
REMARK                         _______ _______ _______ _____ _____    ______ ____
ROOT
ATOM      1  C   UNL     1       5.489   6.477  17.522  0.00  0.00    +0.000 C 
ATOM      2  O   UNL     1       4.997   5.639  18.587  0.00  0.00    +0.000 OA
ATOM      3  C   UNL     1       5.267   4.231  18.431  0.00  0.00    +0.000 C 
ATOM      4  C   UNL     1       4.673   3.706  17.116  0.00  0.00    +0.000 C 
ATOM      5  C   UNL     1       5.174   4.548  15.930  0.00  0.00    +0.000 C 
ATOM      6  C   UNL     1       4.888   6.039  16.170  0.00  0.00    +0.000 C 
ENDROOT
BRANCH   4   7
ATOM      7  O   UNL     1       3.242   3.739  17.154  0.00  0.00    +0.000 OA
ATOM      8  H   UNL     1       2.947   4.671  17.095  0.00  0.00    +0.000 HD
ENDBRANCH   4   7
BRANCH   5   9
ATOM      9  O   UNL     1       6.576   4.341  15.688  0.00  0.00    +0.000 OA
ATOM     10  H   UNL     1       6.874   3.563  16.202  0.00  0.00    +0.000 HD
ENDBRANCH   5   9
BRANCH   6  11
ATOM     11  O   UNL     1       5.396   6.819  15.080  0.00  0.00    +0.000 OA
ATOM     12  H   UNL     1       4.629   7.024  14.510  0.00  0.00    +0.000 HD
ENDBRANCH   6  11
BRANCH   1  13
ATOM     13  O   UNL     1       6.929   6.568  17.372  0.00  0.00    +0.000 OA
BRANCH  13  15
ATOM     14  C   UNL     1       8.184   8.183  18.202  0.00  0.00    +0.000 C 
ATOM     15  N   UNL     1       7.354   7.899  17.259  0.00  0.00    +0.000 NA
BRANCH  14  19
ATOM     16  C   UNL     1       9.309  12.263  18.874  0.00  0.00    +0.000 A 
ATOM     17  C   UNL     1       9.749  11.232  19.729  0.00  0.00    +0.000 A 
ATOM     18  C   UNL     1       9.410   9.895  19.490  0.00  0.00    +0.000 A 
ATOM     19  C   UNL     1       8.628   9.571  18.388  0.00  0.00    +0.000 A 
ATOM     20  C   UNL     1       8.185  10.569  17.520  0.00  0.00    +0.000 A 
ATOM     21  C   UNL     1       8.526  11.899  17.762  0.00  0.00    +0.000 A 
BRANCH  16  23
ATOM     22  C   UNL     1      10.398  14.004  20.435  0.00  0.00    +0.000 C 
ATOM     23  C   UNL     1       9.681  13.742  19.092  0.00  0.00    +0.000 C 
ATOM     24  C   UNL     1       8.412  14.619  19.070  0.00  0.00    +0.000 C 
ATOM     25  C   UNL     1      10.632  14.205  17.968  0.00  0.00    +0.000 C 
ENDBRANCH  16  23
ENDBRANCH  14  19
ENDBRANCH  13  15
ENDBRANCH   1  13
BRANCH   3  26
ATOM     26  C   UNL     1       4.697   3.497  19.658  0.00  0.00    +0.000 C 
BRANCH  26  27
ATOM     27  O   UNL     1       5.053   2.113  19.661  0.00  0.00    +0.000 OA
ATOM     28  H   UNL     1       4.995   1.790  18.742  0.00  0.00    +0.000 HD
ENDBRANCH  26  27
ENDBRANCH   3  26
TORSDOF 9
ENDMDL
MODEL 8
REMARK VINA RESULT:      -6.8      2.689      4.181
REMARK  Name = 
REMARK  12 active torsions:
REMARK  status: ('A' for Active; 'I' for Inactive)
REMARK    1  A    between atoms: C_1  and  C_2
REMARK    2  A    between atoms: C_2  and  C_3
REMARK    3  A    between atoms: C_2  and  C_4
REMARK    4  A    between atoms: C_2  and  C_5
REMARK    5  A    between atoms: C_8  and  C_9
REMARK    6  A    between atoms: N_10  and  O_11
REMARK    7  A    between atoms: O_11  and  C_12
REMARK    8  A    between atoms: C_14  and  C_15
REMARK    9  A    between atoms: C_15  and  O_16
REMARK   10  A    between atoms: C_17  and  O_18
REMARK   11  A    between atoms: C_19  and  O_20
REMARK   12  A    between atoms: C_21  and  O_22
REMARK                            x       y       z     vdW  Elec       q    Type
REMARK                         _______ _______ _______ _____ _____    ______ ____
ROOT
ATOM      1  C   UNL     1       2.914   4.771  17.704  0.00  0.00    +0.000 C 
ATOM      2  O   UNL     1       1.891   4.197  18.542  0.00  0.00    +0.000 OA
ATOM      3  C   UNL     1       2.376   3.459  19.681  0.00  0.00    +0.000 C 
ATOM      4  C   UNL     1       3.302   2.319  19.235  0.00  0.00    +0.000 C 
ATOM      5  C   UNL     1       4.434   2.865  18.349  0.00  0.00    +0.000 C 
ATOM      6  C   UNL     1       3.856   3.669  17.174  0.00  0.00    +0.000 C 
ENDROOT
BRANCH   4   7
ATOM      7  O   UNL     1       2.571   1.320  18.514  0.00  0.00    +0.000 OA
ATOM      8  H   UNL     1       2.086   1.753  17.782  0.00  0.00    +0.000 HD
ENDBRANCH   4   7
BRANCH   5   9
ATOM      9  O   UNL     1       5.354   3.674  19.103  0.00  0.00    +0.000 OA
ATOM     10  H   UNL     1       6.147   3.844  18.554  0.00  0.00    +0.000 HD
ENDBRANCH   5   9
BRANCH   6  11
ATOM     11  O   UNL     1       4.919   4.210  16.378  0.00  0.00    +0.000 OA
ATOM     12  H   UNL     1       5.553   3.481  16.238  0.00  0.00    +0.000 HD
ENDBRANCH   6  11
BRANCH   1  13
ATOM     13  O   UNL     1       3.727   5.821  18.289  0.00  0.00    +0.000 OA
BRANCH  13  15
ATOM     14  C   UNL     1       2.459   7.358  19.238  0.00  0.00    +0.000 C 
ATOM     15  N   UNL     1       3.115   7.076  18.167  0.00  0.00    +0.000 NA
BRANCH  14  19
ATOM     16  C   UNL     1      -0.233  10.692  19.311  0.00  0.00    +0.000 A 
ATOM     17  C   UNL     1       0.099   9.992  20.489  0.00  0.00    +0.000 A 
ATOM     18  C   UNL     1       1.004   8.925  20.472  0.00  0.00    +0.000 A 
ATOM     19  C   UNL     1       1.595   8.546  19.273  0.00  0.00    +0.000 A 
ATOM     20  C   UNL     1       1.293   9.225  18.092  0.00  0.00    +0.000 A 
ATOM     21  C   UNL     1       0.390  10.287  18.115  0.00  0.00    +0.000 A 
BRANCH  16  23
ATOM     22  C   UNL     1      -1.667  12.321  20.706  0.00  0.00    +0.000 C 
ATOM     23  C   UNL     1      -1.207  11.885  19.297  0.00  0.00    +0.000 C 
ATOM     24  C   UNL     1      -2.473  11.529  18.490  0.00  0.00    +0.000 C 
ATOM     25  C   UNL     1      -0.521  13.103  18.643  0.00  0.00    +0.000 C 
ENDBRANCH  16  23
ENDBRANCH  14  19
ENDBRANCH  13  15
ENDBRANCH   1  13
BRANCH   3  26
ATOM     26  C   UNL     1       1.158   2.942  20.468  0.00  0.00    +0.000 C 
BRANCH  26  27
ATOM     27  O   UNL     1       0.079   2.584  19.602  0.00  0.00    +0.000 OA
ATOM     28  H   UNL     1      -0.213   1.686  19.846  0.00  0.00    +0.000 HD
ENDBRANCH  26  27
ENDBRANCH   3  26
TORSDOF 9
ENDMDL
MODEL 9
REMARK VINA RESULT:      -6.8      2.671      4.189
REMARK  Name = 
REMARK  12 active torsions:
REMARK  status: ('A' for Active; 'I' for Inactive)
REMARK    1  A    between atoms: C_1  and  C_2
REMARK    2  A    between atoms: C_2  and  C_3
REMARK    3  A    between atoms: C_2  and  C_4
REMARK    4  A    between atoms: C_2  and  C_5
REMARK    5  A    between atoms: C_8  and  C_9
REMARK    6  A    between atoms: N_10  and  O_11
REMARK    7  A    between atoms: O_11  and  C_12
REMARK    8  A    between atoms: C_14  and  C_15
REMARK    9  A    between atoms: C_15  and  O_16
REMARK   10  A    between atoms: C_17  and  O_18
REMARK   11  A    between atoms: C_19  and  O_20
REMARK   12  A    between atoms: C_21  and  O_22
REMARK                            x       y       z     vdW  Elec       q    Type
REMARK                         _______ _______ _______ _____ _____    ______ ____
ROOT
ATOM      1  C   UNL     1       3.215   4.517  17.441  0.00  0.00    +0.000 C 
ATOM      2  O   UNL     1       1.994   4.200  18.138  0.00  0.00    +0.000 OA
ATOM      3  C   UNL     1       2.167   3.723  19.487  0.00  0.00    +0.000 C 
ATOM      4  C   UNL     1       3.052   2.469  19.511  0.00  0.00    +0.000 C 
ATOM      5  C   UNL     1       4.386   2.743  18.797  0.00  0.00    +0.000 C 
ATOM      6  C   UNL     1       4.137   3.281  17.379  0.00  0.00    +0.000 C 
ENDROOT
BRANCH   4   7
ATOM      7  O   UNL     1       2.391   1.366  18.880  0.00  0.00    +0.000 OA
ATOM      8  H   UNL     1       2.854   1.160  18.042  0.00  0.00    +0.000 HD
ENDBRANCH   4   7
BRANCH   5   9
ATOM      9  O   UNL     1       5.207   3.660  19.541  0.00  0.00    +0.000 OA
ATOM     10  H   UNL     1       5.604   3.185  20.299  0.00  0.00    +0.000 HD
ENDBRANCH   5   9
BRANCH   6  11
ATOM     11  O   UNL     1       5.384   3.574  16.736  0.00  0.00    +0.000 OA
ATOM     12  H   UNL     1       6.071   3.100  17.244  0.00  0.00    +0.000 HD
ENDBRANCH   6  11
BRANCH   1  13
ATOM     13  O   UNL     1       3.988   5.635  17.949  0.00  0.00    +0.000 OA
BRANCH  13  15
ATOM     14  C   UNL     1       2.819   7.199  18.979  0.00  0.00    +0.000 C 
ATOM     15  N   UNL     1       3.288   6.844  17.833  0.00  0.00    +0.000 NA
BRANCH  14  19
ATOM     16  C   UNL     1      -0.018  10.402  19.201  0.00  0.00    +0.000 A 
ATOM     17  C   UNL     1       0.323   9.646  20.340  0.00  0.00    +0.000 A 
ATOM     18  C   UNL     1       1.275   8.622  20.276  0.00  0.00    +0.000 A 
ATOM     19  C   UNL     1       1.903   8.343  19.068  0.00  0.00    +0.000 A 
ATOM     20  C   UNL     1       1.592   9.081  17.925  0.00  0.00    +0.000 A 
ATOM     21  C   UNL     1       0.643  10.100  17.995  0.00  0.00    +0.000 A 
BRANCH  16  23
ATOM     22  C   UNL     1      -0.536  12.851  18.576  0.00  0.00    +0.000 C 
ATOM     23  C   UNL     1      -1.044  11.551  19.240  0.00  0.00    +0.000 C 
ATOM     24  C   UNL     1      -1.407  11.892  20.700  0.00  0.00    +0.000 C 
ATOM     25  C   UNL     1      -2.323  11.125  18.490  0.00  0.00    +0.000 C 
ENDBRANCH  16  23
ENDBRANCH  14  19
ENDBRANCH  13  15
ENDBRANCH   1  13
BRANCH   3  26
ATOM     26  C   UNL     1       0.772   3.458  20.082  0.00  0.00    +0.000 C 
BRANCH  26  27
ATOM     27  O   UNL     1       0.846   2.706  21.295  0.00  0.00    +0.000 OA
ATOM     28  H   UNL     1       0.976   1.769  21.056  0.00  0.00    +0.000 HD
ENDBRANCH  26  27
ENDBRANCH   3  26
TORSDOF 9
ENDMDL
