MODEL 1
REMARK VINA RESULT:      -7.3      0.000      0.000
REMARK  Name = 
REMARK  7 active torsions:
REMARK  status: ('A' for Active; 'I' for Inactive)
REMARK    1  A    between atoms: C_1  and  N_2
REMARK    2  A    between atoms: N_5  and  C_6
REMARK    3  A    between atoms: C_10  and  C_11
REMARK    4  A    between atoms: C_22  and  C_23
REMARK    5  A    between atoms: C_26  and  C_27
REMARK    6  A    between atoms: C_30  and  C_31
REMARK    7  A    between atoms: C_31  and  O_32
REMARK                            x       y       z     vdW  Elec       q    Type
REMARK                         _______ _______ _______ _____ _____    ______ ____
ROOT
ATOM      1  C   UNL     1       1.875  12.841  19.667  0.00  0.00    +0.000 C 
ATOM      2  N   UNL     1       0.463  12.495  19.538  0.00  0.00    +0.000 N 
ATOM      3  C   UNL     1      -0.479  13.275  20.221  0.00  0.00    +0.000 C 
ATOM      4  O   UNL     1      -0.120  14.221  20.926  0.00  0.00    +0.000 OA
ATOM      5  N   UNL     1      -1.836  12.871  20.107  0.00  0.00    +0.000 N 
ATOM      6  C   UNL     1      -2.228  11.895  19.207  0.00  0.00    +0.000 C 
ATOM      7  C   UNL     1      -1.322  11.266  18.471  0.00  0.00    +0.000 C 
ATOM      8  C   UNL     1      -2.048  10.397  17.553  0.00  0.00    +0.000 C 
ATOM      9  O   UNL     1      -1.505   9.718  16.696  0.00  0.00    +0.000 OA
ATOM     10  C   UNL     1      -3.526  10.461  17.797  0.00  0.00    +0.000 C 
ATOM     11  C   UNL     1      -3.640  11.473  18.937  0.00  0.00    +0.000 C 
ATOM     12  C   UNL     1       0.130  11.414  18.598  0.00  0.00    +0.000 C 
ENDROOT
BRANCH   5  13
ATOM     13  C   UNL     1      -2.770  13.454  21.015  0.00  0.00    +0.000 A 
ATOM     14  C   UNL     1      -3.354  14.690  20.708  0.00  0.00    +0.000 A 
ATOM     15  C   UNL     1      -4.243  15.291  21.595  0.00  0.00    +0.000 A 
ATOM     16  C   UNL     1      -4.548  14.665  22.802  0.00  0.00    +0.000 A 
ATOM     17  C   UNL     1      -3.986  13.418  23.122  0.00  0.00    +0.000 A 
ATOM     18  C   UNL     1      -3.112  12.808  22.207  0.00  0.00    +0.000 A 
BRANCH  17  19
ATOM     19  C   UNL     1      -4.287  12.738  24.433  0.00  0.00    +0.000 C 
ATOM     20  F   UNL     1      -3.764  11.483  24.525  0.00  0.00    +0.000 F 
ATOM     21  F   UNL     1      -3.811  13.422  25.507  0.00  0.00    +0.000 F 
ATOM     22  F   UNL     1      -5.626  12.595  24.641  0.00  0.00    +0.000 F 
ENDBRANCH  17  19
ENDBRANCH   5  13
BRANCH  12  23
ATOM     23  C   UNL     1       0.810  10.090  18.961  0.00  0.00    +0.000 A 
ATOM     24  C   UNL     1       1.626   9.514  17.960  0.00  0.00    +0.000 A 
ATOM     25  C   UNL     1       2.279   8.300  18.160  0.00  0.00    +0.000 A 
ATOM     26  C   UNL     1       2.128   7.625  19.366  0.00  0.00    +0.000 A 
ATOM     27  C   UNL     1       1.332   8.174  20.373  0.00  0.00    +0.000 A 
ATOM     28  C   UNL     1       0.669   9.406  20.197  0.00  0.00    +0.000 A 
BRANCH  26  29
ATOM     29  C   UNL     1       2.788   6.374  19.578  0.00  0.00    +0.000 C 
ATOM     30  N   UNL     1       3.323   5.359  19.746  0.00  0.00    +0.000 NA
ENDBRANCH  26  29
BRANCH  28  31
ATOM     31  C   UNL     1      -0.139   9.888  21.379  0.00  0.00    +0.000 C 
BRANCH  31  32
ATOM     32  O   UNL     1       0.691  10.508  22.357  0.00  0.00    +0.000 OA
ATOM     33  H   UNL     1       1.286   9.835  22.725  0.00  0.00    +0.000 HD
ENDBRANCH  31  32
ENDBRANCH  28  31
ENDBRANCH  12  23
TORSDOF 6
ENDMDL
MODEL 2
REMARK VINA RESULT:      -6.6      1.654      2.158
REMARK  Name = 
REMARK  7 active torsions:
REMARK  status: ('A' for Active; 'I' for Inactive)
REMARK    1  A    between atoms: C_1  and  N_2
REMARK    2  A    between atoms: N_5  and  C_6
REMARK    3  A    between atoms: C_10  and  C_11
REMARK    4  A    between atoms: C_22  and  C_23
REMARK    5  A    between atoms: C_26  and  C_27
REMARK    6  A    between atoms: C_30  and  C_31
REMARK    7  A    between atoms: C_31  and  O_32
REMARK                            x       y       z     vdW  Elec       q    Type
REMARK                         _______ _______ _______ _____ _____    ______ ____
ROOT
ATOM      1  C   UNL     1       1.830  12.748  19.866  0.00  0.00    +0.000 C 
ATOM      2  N   UNL     1       0.428  12.374  19.703  0.00  0.00    +0.000 N 
ATOM      3  C   UNL     1      -0.541  13.102  20.407  0.00  0.00    +0.000 C 
ATOM      4  O   UNL     1      -0.213  14.024  21.157  0.00  0.00    +0.000 OA
ATOM      5  N   UNL     1      -1.886  12.670  20.258  0.00  0.00    +0.000 N 
ATOM      6  C   UNL     1      -2.243  11.726  19.311  0.00  0.00    +0.000 C 
ATOM      7  C   UNL     1      -1.312  11.152  18.560  0.00  0.00    +0.000 C 
ATOM      8  C   UNL     1      -2.006  10.306  17.596  0.00  0.00    +0.000 C 
ATOM      9  O   UNL     1      -1.437   9.679  16.717  0.00  0.00    +0.000 OA
ATOM     10  C   UNL     1      -3.489  10.324  17.823  0.00  0.00    +0.000 C 
ATOM     11  C   UNL     1      -3.641  11.282  19.005  0.00  0.00    +0.000 C 
ATOM     12  C   UNL     1       0.133  11.328  18.713  0.00  0.00    +0.000 C 
ENDROOT
BRANCH   5  13
ATOM     13  C   UNL     1      -2.845  13.190  21.177  0.00  0.00    +0.000 A 
ATOM     14  C   UNL     1      -2.993  12.591  22.436  0.00  0.00    +0.000 A 
ATOM     15  C   UNL     1      -3.945  13.064  23.335  0.00  0.00    +0.000 A 
ATOM     16  C   UNL     1      -4.764  14.133  22.979  0.00  0.00    +0.000 A 
ATOM     17  C   UNL     1      -4.621  14.758  21.730  0.00  0.00    +0.000 A 
ATOM     18  C   UNL     1      -3.638  14.291  20.841  0.00  0.00    +0.000 A 
BRANCH  17  19
ATOM     19  C   UNL     1      -5.514  15.901  21.320  0.00  0.00    +0.000 C 
ATOM     20  F   UNL     1      -5.269  16.355  20.059  0.00  0.00    +0.000 F 
ATOM     21  F   UNL     1      -6.835  15.580  21.353  0.00  0.00    +0.000 F 
ATOM     22  F   UNL     1      -5.370  16.983  22.136  0.00  0.00    +0.000 F 
ENDBRANCH  17  19
ENDBRANCH   5  13
BRANCH  12  23
ATOM     23  C   UNL     1       0.842  10.006  19.027  0.00  0.00    +0.000 A 
ATOM     24  C   UNL     1       1.660   9.479  18.001  0.00  0.00    +0.000 A 
ATOM     25  C   UNL     1       2.337   8.272  18.156  0.00  0.00    +0.000 A 
ATOM     26  C   UNL     1       2.208   7.555  19.340  0.00  0.00    +0.000 A 
ATOM     27  C   UNL     1       1.411   8.056  20.371  0.00  0.00    +0.000 A 
ATOM     28  C   UNL     1       0.723   9.279  20.240  0.00  0.00    +0.000 A 
BRANCH  26  29
ATOM     29  C   UNL     1       2.894   6.310  19.506  0.00  0.00    +0.000 C 
ATOM     30  N   UNL     1       3.447   5.301  19.644  0.00  0.00    +0.000 NA
ENDBRANCH  26  29
BRANCH  28  31
ATOM     31  C   UNL     1      -0.085   9.707  21.444  0.00  0.00    +0.000 C 
BRANCH  31  32
ATOM     32  O   UNL     1       0.741  10.314  22.433  0.00  0.00    +0.000 OA
ATOM     33  H   UNL     1       1.368  10.907  21.988  0.00  0.00    +0.000 HD
ENDBRANCH  31  32
ENDBRANCH  28  31
ENDBRANCH  12  23
TORSDOF 6
ENDMDL
MODEL 3
REMARK VINA RESULT:      -6.6      1.468      1.949
REMARK  Name = 
REMARK  7 active torsions:
REMARK  status: ('A' for Active; 'I' for Inactive)
REMARK    1  A    between atoms: C_1  and  N_2
REMARK    2  A    between atoms: N_5  and  C_6
REMARK    3  A    between atoms: C_10  and  C_11
REMARK    4  A    between atoms: C_22  and  C_23
REMARK    5  A    between atoms: C_26  and  C_27
REMARK    6  A    between atoms: C_30  and  C_31
REMARK    7  A    between atoms: C_31  and  O_32
REMARK                            x       y       z     vdW  Elec       q    Type
REMARK                         _______ _______ _______ _____ _____    ______ ____
ROOT
ATOM      1  C   UNL     1       1.891  12.815  20.215  0.00  0.00    +0.000 C 
ATOM      2  N   UNL     1       0.480  12.473  20.062  0.00  0.00    +0.000 N 
ATOM      3  C   UNL     1      -0.450  13.088  20.911  0.00  0.00    +0.000 C 
ATOM      4  O   UNL     1      -0.081  13.887  21.775  0.00  0.00    +0.000 OA
ATOM      5  N   UNL     1      -1.804  12.686  20.761  0.00  0.00    +0.000 N 
ATOM      6  C   UNL     1      -2.212  11.895  19.701  0.00  0.00    +0.000 C 
ATOM      7  C   UNL     1      -1.321  11.438  18.831  0.00  0.00    +0.000 C 
ATOM      8  C   UNL     1      -2.065  10.748  17.784  0.00  0.00    +0.000 C 
ATOM      9  O   UNL     1      -1.542  10.258  16.796  0.00  0.00    +0.000 OA
ATOM     10  C   UNL     1      -3.536  10.735  18.079  0.00  0.00    +0.000 C 
ATOM     11  C   UNL     1      -3.626  11.505  19.396  0.00  0.00    +0.000 C 
ATOM     12  C   UNL     1       0.131  11.587  18.942  0.00  0.00    +0.000 C 
ENDROOT
BRANCH   5  13
ATOM     13  C   UNL     1      -2.716  13.065  21.791  0.00  0.00    +0.000 A 
ATOM     14  C   UNL     1      -2.851  12.256  22.928  0.00  0.00    +0.000 A 
ATOM     15  C   UNL     1      -3.758  12.591  23.930  0.00  0.00    +0.000 A 
ATOM     16  C   UNL     1      -4.547  13.733  23.797  0.00  0.00    +0.000 A 
ATOM     17  C   UNL     1      -4.415  14.565  22.674  0.00  0.00    +0.000 A 
ATOM     18  C   UNL     1      -3.477  14.233  21.683  0.00  0.00    +0.000 A 
BRANCH  17  19
ATOM     19  C   UNL     1      -5.276  15.791  22.505  0.00  0.00    +0.000 C 
ATOM     20  F   UNL     1      -5.965  16.128  23.631  0.00  0.00    +0.000 F 
ATOM     21  F   UNL     1      -4.565  16.896  22.156  0.00  0.00    +0.000 F 
ATOM     22  F   UNL     1      -6.218  15.626  21.533  0.00  0.00    +0.000 F 
ENDBRANCH  17  19
ENDBRANCH   5  13
BRANCH  12  23
ATOM     23  C   UNL     1       0.842  10.232  19.022  0.00  0.00    +0.000 A 
ATOM     24  C   UNL     1       1.597   9.857  17.887  0.00  0.00    +0.000 A 
ATOM     25  C   UNL     1       2.269   8.638  17.828  0.00  0.00    +0.000 A 
ATOM     26  C   UNL     1       2.197   7.757  18.902  0.00  0.00    +0.000 A 
ATOM     27  C   UNL     1       1.462   8.105  20.036  0.00  0.00    +0.000 A 
ATOM     28  C   UNL     1       0.782   9.337  20.122  0.00  0.00    +0.000 A 
BRANCH  26  29
ATOM     29  C   UNL     1       2.877   6.500  18.848  0.00  0.00    +0.000 C 
ATOM     30  N   UNL     1       3.432   5.483  18.804  0.00  0.00    +0.000 NA
ENDBRANCH  26  29
BRANCH  28  31
ATOM     31  C   UNL     1       0.045   9.588  21.418  0.00  0.00    +0.000 C 
BRANCH  31  32
ATOM     32  O   UNL     1       0.935  10.006  22.448  0.00  0.00    +0.000 OA
ATOM     33  H   UNL     1       0.918  10.977  22.493  0.00  0.00    +0.000 HD
ENDBRANCH  31  32
ENDBRANCH  28  31
ENDBRANCH  12  23
TORSDOF 6
ENDMDL
MODEL 4
REMARK VINA RESULT:      -6.5      2.462      4.470
REMARK  Name = 
REMARK  7 active torsions:
REMARK  status: ('A' for Active; 'I' for Inactive)
REMARK    1  A    between atoms: C_1  and  N_2
REMARK    2  A    between atoms: N_5  and  C_6
REMARK    3  A    between atoms: C_10  and  C_11
REMARK    4  A    between atoms: C_22  and  C_23
REMARK    5  A    between atoms: C_26  and  C_27
REMARK    6  A    between atoms: C_30  and  C_31
REMARK    7  A    between atoms: C_31  and  O_32
REMARK                            x       y       z     vdW  Elec       q    Type
REMARK                         _______ _______ _______ _____ _____    ______ ____
ROOT
ATOM      1  C   UNL     1      -0.798   9.682  21.486  0.00  0.00    +0.000 C 
ATOM      2  N   UNL     1      -0.759  11.135  21.353  0.00  0.00    +0.000 N 
ATOM      3  C   UNL     1      -1.191  11.915  22.434  0.00  0.00    +0.000 C 
ATOM      4  O   UNL     1      -1.609  11.383  23.465  0.00  0.00    +0.000 OA
ATOM      5  N   UNL     1      -1.184  13.322  22.240  0.00  0.00    +0.000 N 
ATOM      6  C   UNL     1      -0.587  13.898  21.132  0.00  0.00    +0.000 C 
ATOM      7  C   UNL     1      -0.061  13.131  20.186  0.00  0.00    +0.000 C 
ATOM      8  C   UNL     1       0.585  14.021  19.228  0.00  0.00    +0.000 C 
ATOM      9  O   UNL     1       1.216  13.625  18.261  0.00  0.00    +0.000 OA
ATOM     10  C   UNL     1       0.380  15.459  19.597  0.00  0.00    +0.000 C 
ATOM     11  C   UNL     1      -0.435  15.367  20.888  0.00  0.00    +0.000 C 
ATOM     12  C   UNL     1      -0.153  11.671  20.125  0.00  0.00    +0.000 C 
ENDROOT
BRANCH   5  13
ATOM     13  C   UNL     1      -1.888  14.116  23.194  0.00  0.00    +0.000 A 
ATOM     14  C   UNL     1      -1.208  14.619  24.312  0.00  0.00    +0.000 A 
ATOM     15  C   UNL     1      -1.883  15.370  25.270  0.00  0.00    +0.000 A 
ATOM     16  C   UNL     1      -3.247  15.614  25.125  0.00  0.00    +0.000 A 
ATOM     17  C   UNL     1      -3.944  15.132  24.005  0.00  0.00    +0.000 A 
ATOM     18  C   UNL     1      -3.247  14.400  23.030  0.00  0.00    +0.000 A 
BRANCH  17  19
ATOM     19  C   UNL     1      -5.424  15.368  23.845  0.00  0.00    +0.000 C 
ATOM     20  F   UNL     1      -5.784  15.707  22.575  0.00  0.00    +0.000 F 
ATOM     21  F   UNL     1      -6.173  14.280  24.168  0.00  0.00    +0.000 F 
ATOM     22  F   UNL     1      -5.871  16.382  24.637  0.00  0.00    +0.000 F 
ENDBRANCH  17  19
ENDBRANCH   5  13
BRANCH  12  23
ATOM     23  C   UNL     1      -0.874  11.195  18.859  0.00  0.00    +0.000 A 
ATOM     24  C   UNL     1      -2.121  11.803  18.587  0.00  0.00    +0.000 A 
ATOM     25  C   UNL     1      -2.885  11.439  17.479  0.00  0.00    +0.000 A 
ATOM     26  C   UNL     1      -2.423  10.451  16.618  0.00  0.00    +0.000 A 
ATOM     27  C   UNL     1      -1.192   9.839  16.860  0.00  0.00    +0.000 A 
ATOM     28  C   UNL     1      -0.399  10.197  17.969  0.00  0.00    +0.000 A 
BRANCH  26  29
ATOM     29  C   UNL     1      -3.202  10.064  15.482  0.00  0.00    +0.000 C 
ATOM     30  N   UNL     1      -3.835   9.747  14.563  0.00  0.00    +0.000 NA
ENDBRANCH  26  29
BRANCH  28  31
ATOM     31  C   UNL     1       0.918   9.466  18.094  0.00  0.00    +0.000 C 
BRANCH  31  32
ATOM     32  O   UNL     1       1.957  10.147  17.396  0.00  0.00    +0.000 OA
ATOM     33  H   UNL     1       2.130   9.673  16.565  0.00  0.00    +0.000 HD
ENDBRANCH  31  32
ENDBRANCH  28  31
ENDBRANCH  12  23
TORSDOF 6
ENDMDL
MODEL 5
REMARK VINA RESULT:      -6.5      2.920      4.806
REMARK  Name = 
REMARK  7 active torsions:
REMARK  status: ('A' for Active; 'I' for Inactive)
REMARK    1  A    between atoms: C_1  and  N_2
REMARK    2  A    between atoms: N_5  and  C_6
REMARK    3  A    between atoms: C_10  and  C_11
REMARK    4  A    between atoms: C_22  and  C_23
REMARK    5  A    between atoms: C_26  and  C_27
REMARK    6  A    between atoms: C_30  and  C_31
REMARK    7  A    between atoms: C_31  and  O_32
REMARK                            x       y       z     vdW  Elec       q    Type
REMARK                         _______ _______ _______ _____ _____    ______ ____
ROOT
ATOM      1  C   UNL     1      -0.496   9.681  21.523  0.00  0.00    +0.000 C 
ATOM      2  N   UNL     1      -0.506  11.137  21.413  0.00  0.00    +0.000 N 
ATOM      3  C   UNL     1      -0.896  11.886  22.531  0.00  0.00    +0.000 C 
ATOM      4  O   UNL     1      -1.237  11.326  23.576  0.00  0.00    +0.000 OA
ATOM      5  N   UNL     1      -0.939  13.295  22.363  0.00  0.00    +0.000 N 
ATOM      6  C   UNL     1      -0.424  13.906  21.232  0.00  0.00    +0.000 C 
ATOM      7  C   UNL     1       0.066  13.170  20.244  0.00  0.00    +0.000 C 
ATOM      8  C   UNL     1       0.629  14.094  19.266  0.00  0.00    +0.000 C 
ATOM      9  O   UNL     1       1.213  13.733  18.257  0.00  0.00    +0.000 OA
ATOM     10  C   UNL     1       0.406  15.520  19.672  0.00  0.00    +0.000 C 
ATOM     11  C   UNL     1      -0.328  15.384  21.006  0.00  0.00    +0.000 C 
ATOM     12  C   UNL     1       0.011  11.710  20.162  0.00  0.00    +0.000 C 
ENDROOT
BRANCH   5  13
ATOM     13  C   UNL     1      -1.607  14.053  23.370  0.00  0.00    +0.000 A 
ATOM     14  C   UNL     1      -3.008  14.077  23.405  0.00  0.00    +0.000 A 
ATOM     15  C   UNL     1      -3.679  14.836  24.360  0.00  0.00    +0.000 A 
ATOM     16  C   UNL     1      -2.953  15.587  25.283  0.00  0.00    +0.000 A 
ATOM     17  C   UNL     1      -1.549  15.564  25.276  0.00  0.00    +0.000 A 
ATOM     18  C   UNL     1      -0.883  14.773  24.326  0.00  0.00    +0.000 A 
BRANCH  17  19
ATOM     19  C   UNL     1      -0.750  16.389  26.252  0.00  0.00    +0.000 C 
ATOM     20  F   UNL     1      -1.484  17.353  26.876  0.00  0.00    +0.000 F 
ATOM     21  F   UNL     1      -0.191  15.645  27.244  0.00  0.00    +0.000 F 
ATOM     22  F   UNL     1       0.281  17.044  25.648  0.00  0.00    +0.000 F 
ENDBRANCH  17  19
ENDBRANCH   5  13
BRANCH  12  23
ATOM     23  C   UNL     1      -0.770  11.234  18.932  0.00  0.00    +0.000 A 
ATOM     24  C   UNL     1      -2.017  11.859  18.706  0.00  0.00    +0.000 A 
ATOM     25  C   UNL     1      -2.831  11.497  17.634  0.00  0.00    +0.000 A 
ATOM     26  C   UNL     1      -2.421  10.494  16.764  0.00  0.00    +0.000 A 
ATOM     27  C   UNL     1      -1.192   9.864  16.962  0.00  0.00    +0.000 A 
ATOM     28  C   UNL     1      -0.347  10.219  18.033  0.00  0.00    +0.000 A 
BRANCH  26  29
ATOM     29  C   UNL     1      -3.254  10.109  15.666  0.00  0.00    +0.000 C 
ATOM     30  N   UNL     1      -3.928   9.802  14.775  0.00  0.00    +0.000 NA
ENDBRANCH  26  29
BRANCH  28  31
ATOM     31  C   UNL     1       0.962   9.468  18.111  0.00  0.00    +0.000 C 
BRANCH  31  32
ATOM     32  O   UNL     1       1.993  10.148  17.402  0.00  0.00    +0.000 OA
ATOM     33  H   UNL     1       1.796  10.099  16.452  0.00  0.00    +0.000 HD
ENDBRANCH  31  32
ENDBRANCH  28  31
ENDBRANCH  12  23
TORSDOF 6
ENDMDL
MODEL 6
REMARK VINA RESULT:      -6.4      0.953      1.119
REMARK  Name = 
REMARK  7 active torsions:
REMARK  status: ('A' for Active; 'I' for Inactive)
REMARK    1  A    between atoms: C_1  and  N_2
REMARK    2  A    between atoms: N_5  and  C_6
REMARK    3  A    between atoms: C_10  and  C_11
REMARK    4  A    between atoms: C_22  and  C_23
REMARK    5  A    between atoms: C_26  and  C_27
REMARK    6  A    between atoms: C_30  and  C_31
REMARK    7  A    between atoms: C_31  and  O_32
REMARK                            x       y       z     vdW  Elec       q    Type
REMARK                         _______ _______ _______ _____ _____    ______ ____
ROOT
ATOM      1  C   UNL     1       1.505  12.896  20.736  0.00  0.00    +0.000 C 
ATOM      2  N   UNL     1       0.127  12.642  20.328  0.00  0.00    +0.000 N 
ATOM      3  C   UNL     1      -0.882  13.473  20.834  0.00  0.00    +0.000 C 
ATOM      4  O   UNL     1      -0.610  14.387  21.616  0.00  0.00    +0.000 OA
ATOM      5  N   UNL     1      -2.212  13.157  20.451  0.00  0.00    +0.000 N 
ATOM      6  C   UNL     1      -2.480  12.218  19.469  0.00  0.00    +0.000 C 
ATOM      7  C   UNL     1      -1.487  11.541  18.908  0.00  0.00    +0.000 C 
ATOM      8  C   UNL     1      -2.072  10.729  17.847  0.00  0.00    +0.000 C 
ATOM      9  O   UNL     1      -1.415  10.027  17.096  0.00  0.00    +0.000 OA
ATOM     10  C   UNL     1      -3.563  10.885  17.802  0.00  0.00    +0.000 C 
ATOM     11  C   UNL     1      -3.835  11.890  18.922  0.00  0.00    +0.000 C 
ATOM     12  C   UNL     1      -0.082  11.595  19.317  0.00  0.00    +0.000 C 
ENDROOT
BRANCH   5  13
ATOM     13  C   UNL     1      -3.268  13.789  21.173  0.00  0.00    +0.000 A 
ATOM     14  C   UNL     1      -3.526  15.152  20.973  0.00  0.00    +0.000 A 
ATOM     15  C   UNL     1      -4.530  15.794  21.692  0.00  0.00    +0.000 A 
ATOM     16  C   UNL     1      -5.279  15.080  22.626  0.00  0.00    +0.000 A 
ATOM     17  C   UNL     1      -5.047  13.710  22.830  0.00  0.00    +0.000 A 
ATOM     18  C   UNL     1      -4.050  13.066  22.079  0.00  0.00    +0.000 A 
BRANCH  17  19
ATOM     19  C   UNL     1      -5.832  12.929  23.853  0.00  0.00    +0.000 C 
ATOM     20  F   UNL     1      -5.047  12.225  24.716  0.00  0.00    +0.000 F 
ATOM     21  F   UNL     1      -6.626  13.716  24.627  0.00  0.00    +0.000 F 
ATOM     22  F   UNL     1      -6.658  12.012  23.276  0.00  0.00    +0.000 F 
ENDBRANCH  17  19
ENDBRANCH   5  13
BRANCH  12  23
ATOM     23  C   UNL     1       0.434  10.226  19.774  0.00  0.00    +0.000 A 
ATOM     24  C   UNL     1       1.261   9.535  18.859  0.00  0.00    +0.000 A 
ATOM     25  C   UNL     1       1.773   8.272  19.149  0.00  0.00    +0.000 A 
ATOM     26  C   UNL     1       1.464   7.663  20.360  0.00  0.00    +0.000 A 
ATOM     27  C   UNL     1       0.654   8.326  21.283  0.00  0.00    +0.000 A 
ATOM     28  C   UNL     1       0.133   9.608  21.016  0.00  0.00    +0.000 A 
BRANCH  26  29
ATOM     29  C   UNL     1       1.979   6.363  20.663  0.00  0.00    +0.000 C 
ATOM     30  N   UNL     1       2.391   5.307  20.907  0.00  0.00    +0.000 NA
ENDBRANCH  26  29
BRANCH  28  31
ATOM     31  C   UNL     1      -0.711  10.212  22.115  0.00  0.00    +0.000 C 
BRANCH  31  32
ATOM     32  O   UNL     1      -0.005  10.243  23.353  0.00  0.00    +0.000 OA
ATOM     33  H   UNL     1       0.076  11.168  23.636  0.00  0.00    +0.000 HD
ENDBRANCH  31  32
ENDBRANCH  28  31
ENDBRANCH  12  23
TORSDOF 6
ENDMDL
MODEL 7
REMARK VINA RESULT:      -6.4      3.751      7.476
REMARK  Name = 
REMARK  7 active torsions:
REMARK  status: ('A' for Active; 'I' for Inactive)
REMARK    1  A    between atoms: C_1  and  N_2
REMARK    2  A    between atoms: N_5  and  C_6
REMARK    3  A    between atoms: C_10  and  C_11
REMARK    4  A    between atoms: C_22  and  C_23
REMARK    5  A    between atoms: C_26  and  C_27
REMARK    6  A    between atoms: C_30  and  C_31
REMARK    7  A    between atoms: C_31  and  O_32
REMARK                            x       y       z     vdW  Elec       q    Type
REMARK                         _______ _______ _______ _____ _____    ______ ____
ROOT
ATOM      1  C   UNL     1      -0.145  12.220  22.476  0.00  0.00    +0.000 C 
ATOM      2  N   UNL     1      -0.320  11.552  21.190  0.00  0.00    +0.000 N 
ATOM      3  C   UNL     1       0.456  10.417  20.918  0.00  0.00    +0.000 C 
ATOM      4  O   UNL     1       1.277  10.005  21.741  0.00  0.00    +0.000 OA
ATOM      5  N   UNL     1       0.289   9.831  19.635  0.00  0.00    +0.000 N 
ATOM      6  C   UNL     1      -0.730  10.225  18.785  0.00  0.00    +0.000 C 
ATOM      7  C   UNL     1      -1.539  11.217  19.133  0.00  0.00    +0.000 C 
ATOM      8  C   UNL     1      -2.562  11.313  18.098  0.00  0.00    +0.000 C 
ATOM      9  O   UNL     1      -3.498  12.094  18.146  0.00  0.00    +0.000 OA
ATOM     10  C   UNL     1      -2.314  10.328  16.994  0.00  0.00    +0.000 C 
ATOM     11  C   UNL     1      -1.053   9.601  17.463  0.00  0.00    +0.000 C 
ATOM     12  C   UNL     1      -1.391  12.060  20.321  0.00  0.00    +0.000 C 
ENDROOT
BRANCH   5  13
ATOM     13  C   UNL     1       1.263   8.872  19.223  0.00  0.00    +0.000 A 
ATOM     14  C   UNL     1       2.115   9.168  18.151  0.00  0.00    +0.000 A 
ATOM     15  C   UNL     1       3.051   8.234  17.714  0.00  0.00    +0.000 A 
ATOM     16  C   UNL     1       3.133   6.991  18.338  0.00  0.00    +0.000 A 
ATOM     17  C   UNL     1       2.300   6.681  19.425  0.00  0.00    +0.000 A 
ATOM     18  C   UNL     1       1.379   7.641  19.876  0.00  0.00    +0.000 A 
BRANCH  17  19
ATOM     19  C   UNL     1       2.361   5.333  20.096  0.00  0.00    +0.000 C 
ATOM     20  F   UNL     1       1.429   4.453  19.631  0.00  0.00    +0.000 F 
ATOM     21  F   UNL     1       3.564   4.718  19.945  0.00  0.00    +0.000 F 
ATOM     22  F   UNL     1       2.148   5.418  21.439  0.00  0.00    +0.000 F 
ENDBRANCH  17  19
ENDBRANCH   5  13
BRANCH  12  23
ATOM     23  C   UNL     1      -1.201  13.536  19.956  0.00  0.00    +0.000 A 
ATOM     24  C   UNL     1      -0.047  13.846  19.201  0.00  0.00    +0.000 A 
ATOM     25  C   UNL     1       0.251  15.156  18.828  0.00  0.00    +0.000 A 
ATOM     26  C   UNL     1      -0.597  16.191  19.206  0.00  0.00    +0.000 A 
ATOM     27  C   UNL     1      -1.746  15.910  19.947  0.00  0.00    +0.000 A 
ATOM     28  C   UNL     1      -2.072  14.593  20.329  0.00  0.00    +0.000 A 
BRANCH  26  29
ATOM     29  C   UNL     1      -0.296  17.539  18.835  0.00  0.00    +0.000 C 
ATOM     30  N   UNL     1      -0.052  18.631  18.530  0.00  0.00    +0.000 NA
ENDBRANCH  26  29
BRANCH  28  31
ATOM     31  C   UNL     1      -3.356  14.437  21.110  0.00  0.00    +0.000 C 
BRANCH  31  32
ATOM     32  O   UNL     1      -4.413  13.961  20.281  0.00  0.00    +0.000 OA
ATOM     33  H   UNL     1      -5.163  13.721  20.849  0.00  0.00    +0.000 HD
ENDBRANCH  31  32
ENDBRANCH  28  31
ENDBRANCH  12  23
TORSDOF 6
ENDMDL
MODEL 8
REMARK VINA RESULT:      -6.4      3.194      5.192
REMARK  Name = 
REMARK  7 active torsions:
REMARK  status: ('A' for Active; 'I' for Inactive)
REMARK    1  A    between atoms: C_1  and  N_2
REMARK    2  A    between atoms: N_5  and  C_6
REMARK    3  A    between atoms: C_10  and  C_11
REMARK    4  A    between atoms: C_22  and  C_23
REMARK    5  A    between atoms: C_26  and  C_27
REMARK    6  A    between atoms: C_30  and  C_31
REMARK    7  A    between atoms: C_31  and  O_32
REMARK                            x       y       z     vdW  Elec       q    Type
REMARK                         _______ _______ _______ _____ _____    ______ ____
ROOT
ATOM      1  C   UNL     1      -2.112  11.114  17.269  0.00  0.00    +0.000 C 
ATOM      2  N   UNL     1      -2.403  11.601  18.614  0.00  0.00    +0.000 N 
ATOM      3  C   UNL     1      -3.714  11.996  18.910  0.00  0.00    +0.000 C 
ATOM      4  O   UNL     1      -4.596  11.947  18.049  0.00  0.00    +0.000 OA
ATOM      5  N   UNL     1      -3.939  12.510  20.215  0.00  0.00    +0.000 N 
ATOM      6  C   UNL     1      -2.973  12.429  21.202  0.00  0.00    +0.000 C 
ATOM      7  C   UNL     1      -1.780  11.921  20.925  0.00  0.00    +0.000 C 
ATOM      8  C   UNL     1      -1.039  11.865  22.180  0.00  0.00    +0.000 C 
ATOM      9  O   UNL     1       0.081  11.391  22.281  0.00  0.00    +0.000 OA
ATOM     10  C   UNL     1      -1.836  12.447  23.309  0.00  0.00    +0.000 C 
ATOM     11  C   UNL     1      -3.148  12.844  22.631  0.00  0.00    +0.000 C 
ATOM     12  C   UNL     1      -1.310  11.528  19.595  0.00  0.00    +0.000 C 
ENDROOT
BRANCH   5  13
ATOM     13  C   UNL     1      -5.174  13.187  20.446  0.00  0.00    +0.000 A 
ATOM     14  C   UNL     1      -6.291  12.460  20.880  0.00  0.00    +0.000 A 
ATOM     15  C   UNL     1      -7.513  13.096  21.082  0.00  0.00    +0.000 A 
ATOM     16  C   UNL     1      -7.631  14.463  20.839  0.00  0.00    +0.000 A 
ATOM     17  C   UNL     1      -6.520  15.213  20.419  0.00  0.00    +0.000 A 
ATOM     18  C   UNL     1      -5.285  14.566  20.247  0.00  0.00    +0.000 A 
BRANCH  17  19
ATOM     19  C   UNL     1      -6.637  16.688  20.131  0.00  0.00    +0.000 C 
ATOM     20  F   UNL     1      -6.776  16.971  18.805  0.00  0.00    +0.000 F 
ATOM     21  F   UNL     1      -7.699  17.268  20.750  0.00  0.00    +0.000 F 
ATOM     22  F   UNL     1      -5.537  17.379  20.541  0.00  0.00    +0.000 F 
ENDBRANCH  17  19
ENDBRANCH   5  13
BRANCH  12  23
ATOM     23  C   UNL     1      -0.078  12.330  19.162  0.00  0.00    +0.000 A 
ATOM     24  C   UNL     1      -0.212  13.737  19.183  0.00  0.00    +0.000 A 
ATOM     25  C   UNL     1       0.829  14.575  18.789  0.00  0.00    +0.000 A 
ATOM     26  C   UNL     1       2.031  14.027  18.356  0.00  0.00    +0.000 A 
ATOM     27  C   UNL     1       2.191  12.640  18.331  0.00  0.00    +0.000 A 
ATOM     28  C   UNL     1       1.155  11.773  18.734  0.00  0.00    +0.000 A 
BRANCH  26  29
ATOM     29  C   UNL     1       3.102  14.879  17.942  0.00  0.00    +0.000 C 
ATOM     30  N   UNL     1       3.971  15.568  17.602  0.00  0.00    +0.000 NA
ENDBRANCH  26  29
BRANCH  28  31
ATOM     31  C   UNL     1       1.478  10.297  18.674  0.00  0.00    +0.000 C 
BRANCH  31  32
ATOM     32  O   UNL     1       1.906   9.913  17.371  0.00  0.00    +0.000 OA
ATOM     33  H   UNL     1       1.160  10.025  16.758  0.00  0.00    +0.000 HD
ENDBRANCH  31  32
ENDBRANCH  28  31
ENDBRANCH  12  23
TORSDOF 6
ENDMDL
MODEL 9
REMARK VINA RESULT:      -6.3      1.050      1.409
REMARK  Name = 
REMARK  7 active torsions:
REMARK  status: ('A' for Active; 'I' for Inactive)
REMARK    1  A    between atoms: C_1  and  N_2
REMARK    2  A    between atoms: N_5  and  C_6
REMARK    3  A    between atoms: C_10  and  C_11
REMARK    4  A    between atoms: C_22  and  C_23
REMARK    5  A    between atoms: C_26  and  C_27
REMARK    6  A    between atoms: C_30  and  C_31
REMARK    7  A    between atoms: C_31  and  O_32
REMARK                            x       y       z     vdW  Elec       q    Type
REMARK                         _______ _______ _______ _____ _____    ______ ____
ROOT
ATOM      1  C   UNL     1       2.159  13.136  19.355  0.00  0.00    +0.000 C 
ATOM      2  N   UNL     1       0.713  12.942  19.385  0.00  0.00    +0.000 N 
ATOM      3  C   UNL     1      -0.072  13.888  20.058  0.00  0.00    +0.000 C 
ATOM      4  O   UNL     1       0.451  14.851  20.623  0.00  0.00    +0.000 OA
ATOM      5  N   UNL     1      -1.468  13.631  20.106  0.00  0.00    +0.000 N 
ATOM      6  C   UNL     1      -2.045  12.623  19.353  0.00  0.00    +0.000 C 
ATOM      7  C   UNL     1      -1.285  11.826  18.614  0.00  0.00    +0.000 C 
ATOM      8  C   UNL     1      -2.184  10.959  17.861  0.00  0.00    +0.000 C 
ATOM      9  O   UNL     1      -1.801  10.143  17.039  0.00  0.00    +0.000 OA
ATOM     10  C   UNL     1      -3.617  11.215  18.223  0.00  0.00    +0.000 C 
ATOM     11  C   UNL     1      -3.513  12.340  19.253  0.00  0.00    +0.000 C 
ATOM     12  C   UNL     1       0.179  11.819  18.600  0.00  0.00    +0.000 C 
ENDROOT
BRANCH   5  13
ATOM     13  C   UNL     1      -2.243  14.402  21.022  0.00  0.00    +0.000 A 
ATOM     14  C   UNL     1      -3.013  15.473  20.547  0.00  0.00    +0.000 A 
ATOM     15  C   UNL     1      -3.751  16.258  21.429  0.00  0.00    +0.000 A 
ATOM     16  C   UNL     1      -3.718  15.985  22.795  0.00  0.00    +0.000 A 
ATOM     17  C   UNL     1      -2.966  14.907  23.290  0.00  0.00    +0.000 A 
ATOM     18  C   UNL     1      -2.247  14.104  22.388  0.00  0.00    +0.000 A 
BRANCH  17  19
ATOM     19  C   UNL     1      -2.900  14.613  24.766  0.00  0.00    +0.000 C 
ATOM     20  F   UNL     1      -3.534  15.544  25.533  0.00  0.00    +0.000 F 
ATOM     21  F   UNL     1      -3.457  13.416  25.095  0.00  0.00    +0.000 F 
ATOM     22  F   UNL     1      -1.618  14.569  25.225  0.00  0.00    +0.000 F 
ENDBRANCH  17  19
ENDBRANCH   5  13
BRANCH  12  23
ATOM     23  C   UNL     1       0.750  10.468  19.044  0.00  0.00    +0.000 A 
ATOM     24  C   UNL     1       1.514   9.769  18.082  0.00  0.00    +0.000 A 
ATOM     25  C   UNL     1       2.066   8.519  18.356  0.00  0.00    +0.000 A 
ATOM     26  C   UNL     1       1.862   7.933  19.600  0.00  0.00    +0.000 A 
ATOM     27  C   UNL     1       1.116   8.605  20.570  0.00  0.00    +0.000 A 
ATOM     28  C   UNL     1       0.555   9.873  20.318  0.00  0.00    +0.000 A 
BRANCH  26  29
ATOM     29  C   UNL     1       2.418   6.647  19.889  0.00  0.00    +0.000 C 
ATOM     30  N   UNL     1       2.867   5.605  20.127  0.00  0.00    +0.000 NA
ENDBRANCH  26  29
BRANCH  28  31
ATOM     31  C   UNL     1      -0.209  10.490  21.466  0.00  0.00    +0.000 C 
BRANCH  31  32
ATOM     32  O   UNL     1       0.581  10.534  22.651  0.00  0.00    +0.000 OA
ATOM     33  H   UNL     1       1.037   9.681  22.746  0.00  0.00    +0.000 HD
ENDBRANCH  31  32
ENDBRANCH  28  31
ENDBRANCH  12  23
TORSDOF 6
ENDMDL
