MODEL 1
REMARK VINA RESULT:      -6.8      0.000      0.000
REMARK  Name = 
REMARK  12 active torsions:
REMARK  status: ('A' for Active; 'I' for Inactive)
REMARK    1  A    between atoms: C_1  and  C_2
REMARK    2  A    between atoms: C_2  and  C_3
REMARK    3  A    between atoms: C_8  and  N_9
REMARK    4  A    between atoms: C_10  and  S_11
REMARK    5  A    between atoms: N_12  and  C_13
REMARK    6  A    between atoms: N_12  and  C_18
REMARK    7  A    between atoms: C_13  and  C_14
REMARK    8  A    between atoms: C_14  and  N_15
REMARK    9  A    between atoms: N_15  and  C_16
REMARK   10  A    between atoms: N_15  and  C_17
REMARK   11  A    between atoms: C_18  and  C_19
REMARK   12  A    between atoms: C_18  and  C_20
REMARK                            x       y       z     vdW  Elec       q    Type
REMARK                         _______ _______ _______ _____ _____    ______ ____
ROOT
ATOM      1  N   UNL     1       4.172   6.147  17.964  0.00  0.00    +0.000 NA
ATOM      2  C   UNL     1       2.968   5.787  18.305  0.00  0.00    +0.000 C 
ATOM      3  N   UNL     1       2.243   6.537  19.217  0.00  0.00    +0.000 N 
ENDROOT
BRANCH   1   9
ATOM      4  C   UNL     1       6.314   5.085  17.614  0.00  0.00    +0.000 A 
ATOM      5  C   UNL     1       7.327   4.638  16.742  0.00  0.00    +0.000 A 
ATOM      6  C   UNL     1       7.151   4.685  15.356  0.00  0.00    +0.000 A 
ATOM      7  C   UNL     1       5.977   5.198  14.833  0.00  0.00    +0.000 A 
ATOM      8  C   UNL     1       4.973   5.666  15.680  0.00  0.00    +0.000 A 
ATOM      9  C   UNL     1       5.098   5.600  17.069  0.00  0.00    +0.000 A 
BRANCH   4  11
ATOM     10  C   UNL     1       7.875   5.753  19.608  0.00  0.00    +0.000 C 
ATOM     11  C   UNL     1       6.555   5.172  19.115  0.00  0.00    +0.000 C 
ENDBRANCH   4  11
ENDBRANCH   1   9
BRANCH   2  12
ATOM     12  S   UNL     1       2.113   4.382  17.662  0.00  0.00    +0.000 S 
ATOM     13  H   UNL     1       0.946   4.610  18.269  0.00  0.00    +0.000 HD
ENDBRANCH   2  12
BRANCH   3  14
ATOM     14  C   UNL     1       2.217   8.022  19.172  0.00  0.00    +0.000 C 
ATOM     15  C   UNL     1       1.923   8.581  17.781  0.00  0.00    +0.000 C 
BRANCH  14  16
ATOM     16  C   UNL     1       1.320   8.669  20.238  0.00  0.00    +0.000 A 
ATOM     17  C   UNL     1       0.227   9.476  19.904  0.00  0.00    +0.000 A 
ATOM     18  C   UNL     1      -0.489  10.124  20.910  0.00  0.00    +0.000 A 
ATOM     19  C   UNL     1      -0.103   9.968  22.231  0.00  0.00    +0.000 A 
ATOM     20  C   UNL     1       0.989   9.155  22.494  0.00  0.00    +0.000 A 
ATOM     21  N   UNL     1       1.687   8.496  21.542  0.00  0.00    +0.000 NA
ENDBRANCH  14  16
ENDBRANCH   3  14
BRANCH   3  22
ATOM     22  C   UNL     1       1.520   5.905  20.340  0.00  0.00    +0.000 C 
BRANCH  22  23
ATOM     23  C   UNL     1       2.397   4.890  21.129  0.00  0.00    +0.000 C 
BRANCH  23  24
ATOM     24  N   UNL     1       1.709   3.613  21.442  0.00  0.00    +0.000 NA
ATOM     25  C   UNL     1       0.711   3.260  20.430  0.00  0.00    +0.000 C 
ATOM     26  C   UNL     1       2.674   2.517  21.574  0.00  0.00    +0.000 C 
ENDBRANCH  23  24
ENDBRANCH  22  23
ENDBRANCH   3  22
TORSDOF 8
ENDMDL
MODEL 2
REMARK VINA RESULT:      -6.6      1.877      6.133
REMARK  Name = 
REMARK  12 active torsions:
REMARK  status: ('A' for Active; 'I' for Inactive)
REMARK    1  A    between atoms: C_1  and  C_2
REMARK    2  A    between atoms: C_2  and  C_3
REMARK    3  A    between atoms: C_8  and  N_9
REMARK    4  A    between atoms: C_10  and  S_11
REMARK    5  A    between atoms: N_12  and  C_13
REMARK    6  A    between atoms: N_12  and  C_18
REMARK    7  A    between atoms: C_13  and  C_14
REMARK    8  A    between atoms: C_14  and  N_15
REMARK    9  A    between atoms: N_15  and  C_16
REMARK   10  A    between atoms: N_15  and  C_17
REMARK   11  A    between atoms: C_18  and  C_19
REMARK   12  A    between atoms: C_18  and  C_20
REMARK                            x       y       z     vdW  Elec       q    Type
REMARK                         _______ _______ _______ _____ _____    ______ ____
ROOT
ATOM      1  N   UNL     1       2.649   6.964  18.570  0.00  0.00    +0.000 NA
ATOM      2  C   UNL     1       3.571   6.391  17.851  0.00  0.00    +0.000 C 
ATOM      3  N   UNL     1       3.763   5.020  17.918  0.00  0.00    +0.000 N 
ENDROOT
BRANCH   1   9
ATOM      4  C   UNL     1       1.516   8.668  19.857  0.00  0.00    +0.000 A 
ATOM      5  C   UNL     1       0.972   9.964  19.953  0.00  0.00    +0.000 A 
ATOM      6  C   UNL     1       1.131  10.887  18.915  0.00  0.00    +0.000 A 
ATOM      7  C   UNL     1       1.812  10.517  17.769  0.00  0.00    +0.000 A 
ATOM      8  C   UNL     1       2.340   9.231  17.647  0.00  0.00    +0.000 A 
ATOM      9  C   UNL     1       2.233   8.295  18.677  0.00  0.00    +0.000 A 
BRANCH   4  11
ATOM     10  C   UNL     1       0.053   7.842  21.865  0.00  0.00    +0.000 C 
ATOM     11  C   UNL     1       1.223   7.614  20.916  0.00  0.00    +0.000 C 
ENDBRANCH   4  11
ENDBRANCH   1   9
BRANCH   2  12
ATOM     12  S   UNL     1       4.631   7.229  16.714  0.00  0.00    +0.000 S 
ATOM     13  H   UNL     1       5.661   6.383  16.800  0.00  0.00    +0.000 HD
ENDBRANCH   2  12
BRANCH   3  14
ATOM     14  C   UNL     1       2.626   4.066  17.944  0.00  0.00    +0.000 C 
ATOM     15  C   UNL     1       2.729   2.971  16.882  0.00  0.00    +0.000 C 
BRANCH  14  16
ATOM     16  C   UNL     1       2.330   3.475  19.331  0.00  0.00    +0.000 A 
ATOM     17  C   UNL     1       1.130   3.719  20.006  0.00  0.00    +0.000 A 
ATOM     18  C   UNL     1       0.957   3.246  21.307  0.00  0.00    +0.000 A 
ATOM     19  C   UNL     1       1.983   2.546  21.919  0.00  0.00    +0.000 A 
ATOM     20  C   UNL     1       3.148   2.340  21.196  0.00  0.00    +0.000 A 
ATOM     21  N   UNL     1       3.334   2.766  19.927  0.00  0.00    +0.000 NA
ENDBRANCH  14  16
ENDBRANCH   3  14
BRANCH   3  22
ATOM     22  C   UNL     1       5.112   4.433  18.055  0.00  0.00    +0.000 C 
BRANCH  22  23
ATOM     23  C   UNL     1       5.974   5.143  19.140  0.00  0.00    +0.000 C 
BRANCH  23  24
ATOM     24  N   UNL     1       7.423   5.189  18.825  0.00  0.00    +0.000 NA
ATOM     25  C   UNL     1       7.739   4.498  17.573  0.00  0.00    +0.000 C 
ATOM     26  C   UNL     1       7.898   6.574  18.748  0.00  0.00    +0.000 C 
ENDBRANCH  23  24
ENDBRANCH  22  23
ENDBRANCH   3  22
TORSDOF 8
ENDMDL
MODEL 3
REMARK VINA RESULT:      -6.6      2.910      7.598
REMARK  Name = 
REMARK  12 active torsions:
REMARK  status: ('A' for Active; 'I' for Inactive)
REMARK    1  A    between atoms: C_1  and  C_2
REMARK    2  A    between atoms: C_2  and  C_3
REMARK    3  A    between atoms: C_8  and  N_9
REMARK    4  A    between atoms: C_10  and  S_11
REMARK    5  A    between atoms: N_12  and  C_13
REMARK    6  A    between atoms: N_12  and  C_18
REMARK    7  A    between atoms: C_13  and  C_14
REMARK    8  A    between atoms: C_14  and  N_15
REMARK    9  A    between atoms: N_15  and  C_16
REMARK   10  A    between atoms: N_15  and  C_17
REMARK   11  A    between atoms: C_18  and  C_19
REMARK   12  A    between atoms: C_18  and  C_20
REMARK                            x       y       z     vdW  Elec       q    Type
REMARK                         _______ _______ _______ _____ _____    ______ ____
ROOT
ATOM      1  N   UNL     1       4.703   5.521  18.759  0.00  0.00    +0.000 NA
ATOM      2  C   UNL     1       4.929   6.500  17.930  0.00  0.00    +0.000 C 
ATOM      3  N   UNL     1       6.209   6.736  17.454  0.00  0.00    +0.000 N 
ENDROOT
BRANCH   1   9
ATOM      4  C   UNL     1       3.085   3.743  19.009  0.00  0.00    +0.000 A 
ATOM      5  C   UNL     1       1.848   3.279  19.499  0.00  0.00    +0.000 A 
ATOM      6  C   UNL     1       1.061   4.081  20.331  0.00  0.00    +0.000 A 
ATOM      7  C   UNL     1       1.491   5.354  20.660  0.00  0.00    +0.000 A 
ATOM      8  C   UNL     1       2.702   5.839  20.167  0.00  0.00    +0.000 A 
ATOM      9  C   UNL     1       3.532   5.054  19.364  0.00  0.00    +0.000 A 
BRANCH   4  11
ATOM     10  C   UNL     1       3.803   1.415  18.049  0.00  0.00    +0.000 C 
ATOM     11  C   UNL     1       3.877   2.937  17.989  0.00  0.00    +0.000 C 
ENDBRANCH   4  11
ENDBRANCH   1   9
BRANCH   2  12
ATOM     12  S   UNL     1       3.694   7.590  17.295  0.00  0.00    +0.000 S 
ATOM     13  H   UNL     1       3.574   8.352  18.384  0.00  0.00    +0.000 HD
ENDBRANCH   2  12
BRANCH   3  14
ATOM     14  C   UNL     1       7.104   5.632  17.022  0.00  0.00    +0.000 C 
ATOM     15  C   UNL     1       7.207   4.500  18.043  0.00  0.00    +0.000 C 
BRANCH  14  16
ATOM     16  C   UNL     1       6.806   5.093  15.615  0.00  0.00    +0.000 A 
ATOM     17  C   UNL     1       5.768   4.190  15.366  0.00  0.00    +0.000 A 
ATOM     18  C   UNL     1       5.609   3.650  14.089  0.00  0.00    +0.000 A 
ATOM     19  C   UNL     1       6.489   4.011  13.083  0.00  0.00    +0.000 A 
ATOM     20  C   UNL     1       7.497   4.910  13.396  0.00  0.00    +0.000 A 
ATOM     21  N   UNL     1       7.661   5.466  14.616  0.00  0.00    +0.000 NA
ENDBRANCH  14  16
ENDBRANCH   3  14
BRANCH   3  22
ATOM     22  C   UNL     1       6.787   8.095  17.428  0.00  0.00    +0.000 C 
BRANCH  22  23
ATOM     23  C   UNL     1       8.168   8.178  18.143  0.00  0.00    +0.000 C 
BRANCH  23  24
ATOM     24  N   UNL     1       8.778   9.531  18.122  0.00  0.00    +0.000 NA
ATOM     25  C   UNL     1       7.863  10.542  17.586  0.00  0.00    +0.000 C 
ATOM     26  C   UNL     1       9.211   9.931  19.465  0.00  0.00    +0.000 C 
ENDBRANCH  23  24
ENDBRANCH  22  23
ENDBRANCH   3  22
TORSDOF 8
ENDMDL
MODEL 4
REMARK VINA RESULT:      -6.5      1.785      6.669
REMARK  Name = 
REMARK  12 active torsions:
REMARK  status: ('A' for Active; 'I' for Inactive)
REMARK    1  A    between atoms: C_1  and  C_2
REMARK    2  A    between atoms: C_2  and  C_3
REMARK    3  A    between atoms: C_8  and  N_9
REMARK    4  A    between atoms: C_10  and  S_11
REMARK    5  A    between atoms: N_12  and  C_13
REMARK    6  A    between atoms: N_12  and  C_18
REMARK    7  A    between atoms: C_13  and  C_14
REMARK    8  A    between atoms: C_14  and  N_15
REMARK    9  A    between atoms: N_15  and  C_16
REMARK   10  A    between atoms: N_15  and  C_17
REMARK   11  A    between atoms: C_18  and  C_19
REMARK   12  A    between atoms: C_18  and  C_20
REMARK                            x       y       z     vdW  Elec       q    Type
REMARK                         _______ _______ _______ _____ _____    ______ ____
ROOT
ATOM      1  N   UNL     1       2.703   6.952  19.389  0.00  0.00    +0.000 NA
ATOM      2  C   UNL     1       3.054   5.727  19.655  0.00  0.00    +0.000 C 
ATOM      3  N   UNL     1       4.049   5.106  18.917  0.00  0.00    +0.000 N 
ENDROOT
BRANCH   1   9
ATOM      4  C   UNL     1       1.429   9.002  19.265  0.00  0.00    +0.000 A 
ATOM      5  C   UNL     1       0.585   9.953  19.873  0.00  0.00    +0.000 A 
ATOM      6  C   UNL     1       0.071   9.739  21.156  0.00  0.00    +0.000 A 
ATOM      7  C   UNL     1       0.412   8.590  21.846  0.00  0.00    +0.000 A 
ATOM      8  C   UNL     1       1.264   7.648  21.269  0.00  0.00    +0.000 A 
ATOM      9  C   UNL     1       1.766   7.809  19.976  0.00  0.00    +0.000 A 
BRANCH   4  11
ATOM     10  C   UNL     1       2.474  10.736  17.605  0.00  0.00    +0.000 C 
ATOM     11  C   UNL     1       2.107   9.294  17.934  0.00  0.00    +0.000 C 
ENDBRANCH   4  11
ENDBRANCH   1   9
BRANCH   2  12
ATOM     12  S   UNL     1       2.375   4.740  20.952  0.00  0.00    +0.000 S 
ATOM     13  H   UNL     1       3.514   4.544  21.621  0.00  0.00    +0.000 HD
ENDBRANCH   2  12
BRANCH   3  14
ATOM     14  C   UNL     1       5.303   5.808  18.538  0.00  0.00    +0.000 C 
ATOM     15  C   UNL     1       6.452   5.567  19.516  0.00  0.00    +0.000 C 
BRANCH  14  16
ATOM     16  C   UNL     1       5.744   5.569  17.086  0.00  0.00    +0.000 A 
ATOM     17  C   UNL     1       5.055   6.115  15.998  0.00  0.00    +0.000 A 
ATOM     18  C   UNL     1       5.436   5.779  14.697  0.00  0.00    +0.000 A 
ATOM     19  C   UNL     1       6.488   4.901  14.501  0.00  0.00    +0.000 A 
ATOM     20  C   UNL     1       7.127   4.395  15.623  0.00  0.00    +0.000 A 
ATOM     21  N   UNL     1       6.796   4.720  16.892  0.00  0.00    +0.000 NA
ENDBRANCH  14  16
ENDBRANCH   3  14
BRANCH   3  22
ATOM     22  C   UNL     1       3.883   3.735  18.391  0.00  0.00    +0.000 C 
BRANCH  22  23
ATOM     23  C   UNL     1       2.553   3.546  17.606  0.00  0.00    +0.000 C 
BRANCH  23  24
ATOM     24  N   UNL     1       1.836   2.286  17.927  0.00  0.00    +0.000 NA
ATOM     25  C   UNL     1       2.676   1.349  18.677  0.00  0.00    +0.000 C 
ATOM     26  C   UNL     1       0.614   2.559  18.690  0.00  0.00    +0.000 C 
ENDBRANCH  23  24
ENDBRANCH  22  23
ENDBRANCH   3  22
TORSDOF 8
ENDMDL
MODEL 5
REMARK VINA RESULT:      -6.4      1.055      1.215
REMARK  Name = 
REMARK  12 active torsions:
REMARK  status: ('A' for Active; 'I' for Inactive)
REMARK    1  A    between atoms: C_1  and  C_2
REMARK    2  A    between atoms: C_2  and  C_3
REMARK    3  A    between atoms: C_8  and  N_9
REMARK    4  A    between atoms: C_10  and  S_11
REMARK    5  A    between atoms: N_12  and  C_13
REMARK    6  A    between atoms: N_12  and  C_18
REMARK    7  A    between atoms: C_13  and  C_14
REMARK    8  A    between atoms: C_14  and  N_15
REMARK    9  A    between atoms: N_15  and  C_16
REMARK   10  A    between atoms: N_15  and  C_17
REMARK   11  A    between atoms: C_18  and  C_19
REMARK   12  A    between atoms: C_18  and  C_20
REMARK                            x       y       z     vdW  Elec       q    Type
REMARK                         _______ _______ _______ _____ _____    ______ ____
ROOT
ATOM      1  N   UNL     1       4.121   5.852  17.974  0.00  0.00    +0.000 NA
ATOM      2  C   UNL     1       2.887   5.586  18.294  0.00  0.00    +0.000 C 
ATOM      3  N   UNL     1       2.225   6.356  19.237  0.00  0.00    +0.000 N 
ENDROOT
BRANCH   1   9
ATOM      4  C   UNL     1       6.177   6.002  16.712  0.00  0.00    +0.000 A 
ATOM      5  C   UNL     1       7.029   5.508  15.705  0.00  0.00    +0.000 A 
ATOM      6  C   UNL     1       6.741   4.308  15.048  0.00  0.00    +0.000 A 
ATOM      7  C   UNL     1       5.595   3.607  15.377  0.00  0.00    +0.000 A 
ATOM      8  C   UNL     1       4.729   4.091  16.357  0.00  0.00    +0.000 A 
ATOM      9  C   UNL     1       5.002   5.266  17.059  0.00  0.00    +0.000 A 
BRANCH   4  11
ATOM     10  C   UNL     1       7.832   7.801  17.652  0.00  0.00    +0.000 C 
ATOM     11  C   UNL     1       6.404   7.377  17.327  0.00  0.00    +0.000 C 
ENDBRANCH   4  11
ENDBRANCH   1   9
BRANCH   2  12
ATOM     12  S   UNL     1       1.916   4.294  17.584  0.00  0.00    +0.000 S 
ATOM     13  H   UNL     1       2.928   3.482  17.271  0.00  0.00    +0.000 HD
ENDBRANCH   2  12
BRANCH   3  14
ATOM     14  C   UNL     1       2.332   7.837  19.260  0.00  0.00    +0.000 C 
ATOM     15  C   UNL     1       2.238   8.474  17.874  0.00  0.00    +0.000 C 
BRANCH  14  16
ATOM     16  C   UNL     1       1.385   8.522  20.257  0.00  0.00    +0.000 A 
ATOM     17  C   UNL     1       0.304   9.306  19.842  0.00  0.00    +0.000 A 
ATOM     18  C   UNL     1      -0.460   9.991  20.788  0.00  0.00    +0.000 A 
ATOM     19  C   UNL     1      -0.132   9.892  22.129  0.00  0.00    +0.000 A 
ATOM     20  C   UNL     1       0.952   9.099  22.474  0.00  0.00    +0.000 A 
ATOM     21  N   UNL     1       1.695   8.407  21.583  0.00  0.00    +0.000 NA
ENDBRANCH  14  16
ENDBRANCH   3  14
BRANCH   3  22
ATOM     22  C   UNL     1       1.440   5.741  20.327  0.00  0.00    +0.000 C 
BRANCH  22  23
ATOM     23  C   UNL     1       2.279   4.763  21.199  0.00  0.00    +0.000 C 
BRANCH  23  24
ATOM     24  N   UNL     1       2.128   3.335  20.822  0.00  0.00    +0.000 NA
ATOM     25  C   UNL     1       3.421   2.679  20.613  0.00  0.00    +0.000 C 
ATOM     26  C   UNL     1       1.370   2.601  21.840  0.00  0.00    +0.000 C 
ENDBRANCH  23  24
ENDBRANCH  22  23
ENDBRANCH   3  22
TORSDOF 8
ENDMDL
MODEL 6
REMARK VINA RESULT:      -6.1      1.978      6.381
REMARK  Name = 
REMARK  12 active torsions:
REMARK  status: ('A' for Active; 'I' for Inactive)
REMARK    1  A    between atoms: C_1  and  C_2
REMARK    2  A    between atoms: C_2  and  C_3
REMARK    3  A    between atoms: C_8  and  N_9
REMARK    4  A    between atoms: C_10  and  S_11
REMARK    5  A    between atoms: N_12  and  C_13
REMARK    6  A    between atoms: N_12  and  C_18
REMARK    7  A    between atoms: C_13  and  C_14
REMARK    8  A    between atoms: C_14  and  N_15
REMARK    9  A    between atoms: N_15  and  C_16
REMARK   10  A    between atoms: N_15  and  C_17
REMARK   11  A    between atoms: C_18  and  C_19
REMARK   12  A    between atoms: C_18  and  C_20
REMARK                            x       y       z     vdW  Elec       q    Type
REMARK                         _______ _______ _______ _____ _____    ______ ____
ROOT
ATOM      1  N   UNL     1       2.048   7.468  19.146  0.00  0.00    +0.000 NA
ATOM      2  C   UNL     1       2.384   6.212  19.220  0.00  0.00    +0.000 C 
ATOM      3  N   UNL     1       2.964   5.576  18.134  0.00  0.00    +0.000 N 
ENDROOT
BRANCH   1   9
ATOM      4  C   UNL     1       1.120   9.649  19.617  0.00  0.00    +0.000 A 
ATOM      5  C   UNL     1       0.660  10.606  20.544  0.00  0.00    +0.000 A 
ATOM      6  C   UNL     1       0.547  10.290  21.902  0.00  0.00    +0.000 A 
ATOM      7  C   UNL     1       0.912   9.031  22.344  0.00  0.00    +0.000 A 
ATOM      8  C   UNL     1       1.389   8.079  21.444  0.00  0.00    +0.000 A 
ATOM      9  C   UNL     1       1.481   8.345  20.076  0.00  0.00    +0.000 A 
BRANCH   4  11
ATOM     10  C   UNL     1       2.224  11.266  17.878  0.00  0.00    +0.000 C 
ATOM     11  C   UNL     1       1.384  10.028  18.166  0.00  0.00    +0.000 C 
ENDBRANCH   4  11
ENDBRANCH   1   9
BRANCH   2  12
ATOM     12  S   UNL     1       2.196   5.198  20.653  0.00  0.00    +0.000 S 
ATOM     13  H   UNL     1       1.493   4.224  20.072  0.00  0.00    +0.000 HD
ENDBRANCH   2  12
BRANCH   3  14
ATOM     14  C   UNL     1       4.017   6.224  17.310  0.00  0.00    +0.000 C 
ATOM     15  C   UNL     1       3.679   7.661  16.916  0.00  0.00    +0.000 C 
BRANCH  14  16
ATOM     16  C   UNL     1       5.431   6.122  17.903  0.00  0.00    +0.000 A 
ATOM     17  C   UNL     1       5.708   5.365  19.046  0.00  0.00    +0.000 A 
ATOM     18  C   UNL     1       6.988   5.394  19.602  0.00  0.00    +0.000 A 
ATOM     19  C   UNL     1       7.967   6.180  19.018  0.00  0.00    +0.000 A 
ATOM     20  C   UNL     1       7.626   6.906  17.887  0.00  0.00    +0.000 A 
ATOM     21  N   UNL     1       6.403   6.880  17.314  0.00  0.00    +0.000 NA
ENDBRANCH  14  16
ENDBRANCH   3  14
BRANCH   3  22
ATOM     22  C   UNL     1       2.505   4.246  17.680  0.00  0.00    +0.000 C 
BRANCH  22  23
ATOM     23  C   UNL     1       3.650   3.192  17.644  0.00  0.00    +0.000 C 
BRANCH  23  24
ATOM     24  N   UNL     1       3.422   2.023  18.531  0.00  0.00    +0.000 NA
ATOM     25  C   UNL     1       4.247   2.078  19.740  0.00  0.00    +0.000 C 
ATOM     26  C   UNL     1       2.010   1.923  18.911  0.00  0.00    +0.000 C 
ENDBRANCH  23  24
ENDBRANCH  22  23
ENDBRANCH   3  22
TORSDOF 8
ENDMDL
MODEL 7
REMARK VINA RESULT:      -6.1      1.952      6.526
REMARK  Name = 
REMARK  12 active torsions:
REMARK  status: ('A' for Active; 'I' for Inactive)
REMARK    1  A    between atoms: C_1  and  C_2
REMARK    2  A    between atoms: C_2  and  C_3
REMARK    3  A    between atoms: C_8  and  N_9
REMARK    4  A    between atoms: C_10  and  S_11
REMARK    5  A    between atoms: N_12  and  C_13
REMARK    6  A    between atoms: N_12  and  C_18
REMARK    7  A    between atoms: C_13  and  C_14
REMARK    8  A    between atoms: C_14  and  N_15
REMARK    9  A    between atoms: N_15  and  C_16
REMARK   10  A    between atoms: N_15  and  C_17
REMARK   11  A    between atoms: C_18  and  C_19
REMARK   12  A    between atoms: C_18  and  C_20
REMARK                            x       y       z     vdW  Elec       q    Type
REMARK                         _______ _______ _______ _____ _____    ______ ____
ROOT
ATOM      1  N   UNL     1       1.876   7.648  19.302  0.00  0.00    +0.000 NA
ATOM      2  C   UNL     1       2.227   6.394  19.310  0.00  0.00    +0.000 C 
ATOM      3  N   UNL     1       2.818   5.823  18.194  0.00  0.00    +0.000 N 
ENDROOT
BRANCH   1   9
ATOM      4  C   UNL     1       0.476   9.547  19.825  0.00  0.00    +0.000 A 
ATOM      5  C   UNL     1      -0.029  10.470  20.762  0.00  0.00    +0.000 A 
ATOM      6  C   UNL     1       0.255  10.335  22.125  0.00  0.00    +0.000 A 
ATOM      7  C   UNL     1       1.060   9.296  22.555  0.00  0.00    +0.000 A 
ATOM      8  C   UNL     1       1.587   8.385  21.639  0.00  0.00    +0.000 A 
ATOM      9  C   UNL     1       1.295   8.466  20.276  0.00  0.00    +0.000 A 
BRANCH   4  11
ATOM     10  C   UNL     1      -1.063  10.252  17.826  0.00  0.00    +0.000 C 
ATOM     11  C   UNL     1       0.292   9.769  18.329  0.00  0.00    +0.000 C 
ENDBRANCH   4  11
ENDBRANCH   1   9
BRANCH   2  12
ATOM     12  S   UNL     1       2.045   5.302  20.686  0.00  0.00    +0.000 S 
ATOM     13  H   UNL     1       2.051   4.162  19.991  0.00  0.00    +0.000 HD
ENDBRANCH   2  12
BRANCH   3  14
ATOM     14  C   UNL     1       3.866   6.527  17.412  0.00  0.00    +0.000 C 
ATOM     15  C   UNL     1       3.522   7.985  17.110  0.00  0.00    +0.000 C 
BRANCH  14  16
ATOM     16  C   UNL     1       5.282   6.395  17.994  0.00  0.00    +0.000 A 
ATOM     17  C   UNL     1       6.385   7.045  17.431  0.00  0.00    +0.000 A 
ATOM     18  C   UNL     1       7.664   6.805  17.936  0.00  0.00    +0.000 A 
ATOM     19  C   UNL     1       7.826   5.917  18.985  0.00  0.00    +0.000 A 
ATOM     20  C   UNL     1       6.692   5.305  19.497  0.00  0.00    +0.000 A 
ATOM     21  N   UNL     1       5.440   5.535  19.044  0.00  0.00    +0.000 NA
ENDBRANCH  14  16
ENDBRANCH   3  14
BRANCH   3  22
ATOM     22  C   UNL     1       2.378   4.515  17.667  0.00  0.00    +0.000 C 
BRANCH  22  23
ATOM     23  C   UNL     1       3.468   3.412  17.799  0.00  0.00    +0.000 C 
BRANCH  23  24
ATOM     24  N   UNL     1       3.161   2.377  18.818  0.00  0.00    +0.000 NA
ATOM     25  C   UNL     1       1.725   2.100  18.908  0.00  0.00    +0.000 C 
ATOM     26  C   UNL     1       3.879   1.132  18.533  0.00  0.00    +0.000 C 
ENDBRANCH  23  24
ENDBRANCH  22  23
ENDBRANCH   3  22
TORSDOF 8
ENDMDL
MODEL 8
REMARK VINA RESULT:      -6.0      2.755      7.029
REMARK  Name = 
REMARK  12 active torsions:
REMARK  status: ('A' for Active; 'I' for Inactive)
REMARK    1  A    between atoms: C_1  and  C_2
REMARK    2  A    between atoms: C_2  and  C_3
REMARK    3  A    between atoms: C_8  and  N_9
REMARK    4  A    between atoms: C_10  and  S_11
REMARK    5  A    between atoms: N_12  and  C_13
REMARK    6  A    between atoms: N_12  and  C_18
REMARK    7  A    between atoms: C_13  and  C_14
REMARK    8  A    between atoms: C_14  and  N_15
REMARK    9  A    between atoms: N_15  and  C_16
REMARK   10  A    between atoms: N_15  and  C_17
REMARK   11  A    between atoms: C_18  and  C_19
REMARK   12  A    between atoms: C_18  and  C_20
REMARK                            x       y       z     vdW  Elec       q    Type
REMARK                         _______ _______ _______ _____ _____    ______ ____
ROOT
ATOM      1  N   UNL     1       3.451   4.712  17.185  0.00  0.00    +0.000 NA
ATOM      2  C   UNL     1       4.393   3.919  16.758  0.00  0.00    +0.000 C 
ATOM      3  N   UNL     1       5.217   4.307  15.714  0.00  0.00    +0.000 N 
ENDROOT
BRANCH   1   9
ATOM      4  C   UNL     1       2.356   5.695  19.102  0.00  0.00    +0.000 A 
ATOM      5  C   UNL     1       1.513   5.568  20.223  0.00  0.00    +0.000 A 
ATOM      6  C   UNL     1       0.825   4.376  20.471  0.00  0.00    +0.000 A 
ATOM      7  C   UNL     1       0.990   3.301  19.617  0.00  0.00    +0.000 A 
ATOM      8  C   UNL     1       1.838   3.401  18.514  0.00  0.00    +0.000 A 
ATOM      9  C   UNL     1       2.512   4.586  18.213  0.00  0.00    +0.000 A 
BRANCH   4  11
ATOM     10  C   UNL     1       2.630   8.119  18.149  0.00  0.00    +0.000 C 
ATOM     11  C   UNL     1       3.219   6.934  18.906  0.00  0.00    +0.000 C 
ENDBRANCH   4  11
ENDBRANCH   1   9
BRANCH   2  12
ATOM     12  S   UNL     1       4.761   2.332  17.437  0.00  0.00    +0.000 S 
ATOM     13  H   UNL     1       6.086   2.485  17.499  0.00  0.00    +0.000 HD
ENDBRANCH   2  12
BRANCH   3  14
ATOM     14  C   UNL     1       5.778   5.679  15.621  0.00  0.00    +0.000 C 
ATOM     15  C   UNL     1       4.715   6.755  15.401  0.00  0.00    +0.000 C 
BRANCH  14  16
ATOM     16  C   UNL     1       6.723   6.053  16.773  0.00  0.00    +0.000 A 
ATOM     17  C   UNL     1       7.087   5.138  17.766  0.00  0.00    +0.000 A 
ATOM     18  C   UNL     1       7.863   5.560  18.847  0.00  0.00    +0.000 A 
ATOM     19  C   UNL     1       8.256   6.885  18.927  0.00  0.00    +0.000 A 
ATOM     20  C   UNL     1       7.861   7.740  17.909  0.00  0.00    +0.000 A 
ATOM     21  N   UNL     1       7.131   7.355  16.840  0.00  0.00    +0.000 NA
ENDBRANCH  14  16
ENDBRANCH   3  14
BRANCH   3  22
ATOM     22  C   UNL     1       5.517   3.401  14.586  0.00  0.00    +0.000 C 
BRANCH  22  23
ATOM     23  C   UNL     1       6.424   4.060  13.506  0.00  0.00    +0.000 C 
BRANCH  23  24
ATOM     24  N   UNL     1       6.113   3.636  12.117  0.00  0.00    +0.000 NA
ATOM     25  C   UNL     1       6.829   2.415  11.739  0.00  0.00    +0.000 C 
ATOM     26  C   UNL     1       4.672   3.428  11.943  0.00  0.00    +0.000 C 
ENDBRANCH  23  24
ENDBRANCH  22  23
ENDBRANCH   3  22
TORSDOF 8
ENDMDL
MODEL 9
REMARK VINA RESULT:      -6.0      1.636      6.782
REMARK  Name = 
REMARK  12 active torsions:
REMARK  status: ('A' for Active; 'I' for Inactive)
REMARK    1  A    between atoms: C_1  and  C_2
REMARK    2  A    between atoms: C_2  and  C_3
REMARK    3  A    between atoms: C_8  and  N_9
REMARK    4  A    between atoms: C_10  and  S_11
REMARK    5  A    between atoms: N_12  and  C_13
REMARK    6  A    between atoms: N_12  and  C_18
REMARK    7  A    between atoms: C_13  and  C_14
REMARK    8  A    between atoms: C_14  and  N_15
REMARK    9  A    between atoms: N_15  and  C_16
REMARK   10  A    between atoms: N_15  and  C_17
REMARK   11  A    between atoms: C_18  and  C_19
REMARK   12  A    between atoms: C_18  and  C_20
REMARK                            x       y       z     vdW  Elec       q    Type
REMARK                         _______ _______ _______ _____ _____    ______ ____
ROOT
ATOM      1  N   UNL     1       2.428   7.243  19.402  0.00  0.00    +0.000 NA
ATOM      2  C   UNL     1       2.489   5.943  19.406  0.00  0.00    +0.000 C 
ATOM      3  N   UNL     1       3.387   5.279  18.585  0.00  0.00    +0.000 N 
ENDROOT
BRANCH   1   9
ATOM      4  C   UNL     1       1.252   9.353  19.468  0.00  0.00    +0.000 A 
ATOM      5  C   UNL     1       0.573  10.349  20.198  0.00  0.00    +0.000 A 
ATOM      6  C   UNL     1       0.279  10.170  21.553  0.00  0.00    +0.000 A 
ATOM      7  C   UNL     1       0.679   9.009  22.191  0.00  0.00    +0.000 A 
ATOM      8  C   UNL     1       1.371   8.022  21.490  0.00  0.00    +0.000 A 
ATOM      9  C   UNL     1       1.650   8.150  20.129  0.00  0.00    +0.000 A 
BRANCH   4  11
ATOM     10  C   UNL     1       2.345  10.942  17.697  0.00  0.00    +0.000 C 
ATOM     11  C   UNL     1       1.703   9.602  18.035  0.00  0.00    +0.000 C 
ENDBRANCH   4  11
ENDBRANCH   1   9
BRANCH   2  12
ATOM     12  S   UNL     1       1.512   4.889  20.432  0.00  0.00    +0.000 S 
ATOM     13  H   UNL     1       2.475   4.014  20.732  0.00  0.00    +0.000 HD
ENDBRANCH   2  12
BRANCH   3  14
ATOM     14  C   UNL     1       4.788   5.743  18.412  0.00  0.00    +0.000 C 
ATOM     15  C   UNL     1       5.707   5.341  19.565  0.00  0.00    +0.000 C 
BRANCH  14  16
ATOM     16  C   UNL     1       5.406   5.386  17.052  0.00  0.00    +0.000 A 
ATOM     17  C   UNL     1       6.528   4.560  16.936  0.00  0.00    +0.000 A 
ATOM     18  C   UNL     1       7.112   4.355  15.685  0.00  0.00    +0.000 A 
ATOM     19  C   UNL     1       6.577   4.982  14.572  0.00  0.00    +0.000 A 
ATOM     20  C   UNL     1       5.465   5.790  14.757  0.00  0.00    +0.000 A 
ATOM     21  N   UNL     1       4.865   5.988  15.951  0.00  0.00    +0.000 NA
ENDBRANCH  14  16
ENDBRANCH   3  14
BRANCH   3  22
ATOM     22  C   UNL     1       2.978   4.118  17.768  0.00  0.00    +0.000 C 
BRANCH  22  23
ATOM     23  C   UNL     1       3.906   2.883  17.965  0.00  0.00    +0.000 C 
BRANCH  23  24
ATOM     24  N   UNL     1       3.409   1.909  18.968  0.00  0.00    +0.000 NA
ATOM     25  C   UNL     1       3.915   2.193  20.313  0.00  0.00    +0.000 C 
ATOM     26  C   UNL     1       1.943   1.887  18.996  0.00  0.00    +0.000 C 
ENDBRANCH  23  24
ENDBRANCH  22  23
ENDBRANCH   3  22
TORSDOF 8
ENDMDL
