MODEL 1
REMARK VINA RESULT:      -7.4      0.000      0.000
REMARK  Name = 
REMARK  12 active torsions:
REMARK  status: ('A' for Active; 'I' for Inactive)
REMARK    1  A    between atoms: C_1  and  O_2
REMARK    2  A    between atoms: O_2  and  C_3
REMARK    3  A    between atoms: C_3  and  C_5
REMARK    4  A    between atoms: C_8  and  C_9
REMARK    5  A    between atoms: C_9  and  O_10
REMARK    6  A    between atoms: O_10  and  C_11
REMARK    7  A    between atoms: C_11  and  C_12
REMARK    8  A    between atoms: C_11  and  C_27
REMARK    9  A    between atoms: C_15  and  C_16
REMARK   10  A    between atoms: C_18  and  C_19
REMARK   11  A    between atoms: C_24  and  C_25
REMARK   12  A    between atoms: N_31  and  C_32
REMARK                            x       y       z     vdW  Elec       q    Type
REMARK                         _______ _______ _______ _____ _____    ______ ____
ROOT
ATOM      1  C   UNL     1       3.084   6.467  18.656  0.00  0.00    +0.000 C 
ENDROOT
BRANCH   1   2
ATOM      2  C   UNL     1       2.248   7.342  19.573  0.00  0.00    +0.000 A 
ATOM      3  C   UNL     1       1.897   6.921  20.854  0.00  0.00    +0.000 A 
ATOM      4  C   UNL     1       1.085   7.732  21.643  0.00  0.00    +0.000 A 
ATOM      5  C   UNL     1       0.589   8.963  21.159  0.00  0.00    +0.000 A 
ATOM      6  C   UNL     1       0.975   9.453  19.886  0.00  0.00    +0.000 A 
ATOM      7  C   UNL     1       1.839   8.620  19.147  0.00  0.00    +0.000 A 
BRANCH   6   8
ATOM      8  C   UNL     1       0.577  10.786  19.320  0.00  0.00    +0.000 A 
ATOM      9  C   UNL     1       1.456  11.887  19.451  0.00  0.00    +0.000 A 
ATOM     10  C   UNL     1       1.163  13.153  18.933  0.00  0.00    +0.000 A 
ATOM     11  C   UNL     1       0.004  13.349  18.203  0.00  0.00    +0.000 A 
ATOM     12  C   UNL     1      -0.876  12.289  18.026  0.00  0.00    +0.000 A 
ATOM     13  C   UNL     1      -0.632  11.021  18.600  0.00  0.00    +0.000 A 
ATOM     14  C   UNL     1      -1.723   9.993  18.402  0.00  0.00    +0.000 C 
ENDBRANCH   6   8
BRANCH   5  15
ATOM     15  C   UNL     1      -0.313   9.661  22.034  0.00  0.00    +0.000 C 
ATOM     16  N   UNL     1      -1.088  10.203  22.705  0.00  0.00    +0.000 NA
ENDBRANCH   5  15
ENDBRANCH   1   2
BRANCH   1  17
ATOM     17  C   UNL     1       2.480   5.105  18.418  0.00  0.00    +0.000 A 
ATOM     18  C   UNL     1       1.346   4.748  17.704  0.00  0.00    +0.000 A 
ATOM     19  N   UNL     1       1.160   3.391  17.695  0.00  0.00    +0.000 NA
ATOM     20  C   UNL     1       2.169   2.907  18.374  0.00  0.00    +0.000 A 
ATOM     21  N   UNL     1       2.978   3.897  18.860  0.00  0.00    +0.000 N 
ATOM     22  C   UNL     1       4.128   3.653  19.691  0.00  0.00    +0.000 C 
ENDBRANCH   1  17
BRANCH   1  23
ATOM     23  O   UNL     1       3.189   7.075  17.365  0.00  0.00    +0.000 OA
BRANCH  23  24
ATOM     24  C   UNL     1       4.444   7.707  17.133  0.00  0.00    +0.000 C 
BRANCH  24  28
ATOM     25  C   UNL     1       6.471   5.347  15.357  0.00  0.00    +0.000 A 
ATOM     26  C   UNL     1       6.884   4.960  16.620  0.00  0.00    +0.000 A 
ATOM     27  C   UNL     1       6.207   5.791  17.545  0.00  0.00    +0.000 A 
ATOM     28  C   UNL     1       5.420   6.641  16.798  0.00  0.00    +0.000 A 
ATOM     29  O   UNL     1       5.575   6.377  15.472  0.00  0.00    +0.000 OA
BRANCH  25  30
ATOM     30  C   UNL     1       6.826   4.840  14.052  0.00  0.00    +0.000 C 
ATOM     31  O   UNL     1       7.695   5.304  13.324  0.00  0.00    +0.000 OA
BRANCH  30  33
ATOM     32  C   UNL     1       6.142   3.338  12.384  0.00  0.00    +0.000 C 
ATOM     33  O   UNL     1       6.060   3.753  13.744  0.00  0.00    +0.000 OA
ENDBRANCH  30  33
ENDBRANCH  25  30
ENDBRANCH  24  28
ENDBRANCH  23  24
ENDBRANCH   1  23
TORSDOF 9
ENDMDL
MODEL 2
REMARK VINA RESULT:      -7.3      3.964      9.431
REMARK  Name = 
REMARK  12 active torsions:
REMARK  status: ('A' for Active; 'I' for Inactive)
REMARK    1  A    between atoms: C_1  and  O_2
REMARK    2  A    between atoms: O_2  and  C_3
REMARK    3  A    between atoms: C_3  and  C_5
REMARK    4  A    between atoms: C_8  and  C_9
REMARK    5  A    between atoms: C_9  and  O_10
REMARK    6  A    between atoms: O_10  and  C_11
REMARK    7  A    between atoms: C_11  and  C_12
REMARK    8  A    between atoms: C_11  and  C_27
REMARK    9  A    between atoms: C_15  and  C_16
REMARK   10  A    between atoms: C_18  and  C_19
REMARK   11  A    between atoms: C_24  and  C_25
REMARK   12  A    between atoms: N_31  and  C_32
REMARK                            x       y       z     vdW  Elec       q    Type
REMARK                         _______ _______ _______ _____ _____    ______ ____
ROOT
ATOM      1  C   UNL     1       0.532  10.014  19.519  0.00  0.00    +0.000 C 
ENDROOT
BRANCH   1   2
ATOM      2  C   UNL     1       1.492   8.953  19.009  0.00  0.00    +0.000 A 
ATOM      3  C   UNL     1       2.461   9.253  18.054  0.00  0.00    +0.000 A 
ATOM      4  C   UNL     1       3.287   8.239  17.575  0.00  0.00    +0.000 A 
ATOM      5  C   UNL     1       3.142   6.906  18.021  0.00  0.00    +0.000 A 
ATOM      6  C   UNL     1       2.210   6.575  19.036  0.00  0.00    +0.000 A 
ATOM      7  C   UNL     1       1.434   7.645  19.524  0.00  0.00    +0.000 A 
BRANCH   6   8
ATOM      8  C   UNL     1       2.044   5.210  19.640  0.00  0.00    +0.000 A 
ATOM      9  C   UNL     1       2.373   5.007  21.001  0.00  0.00    +0.000 A 
ATOM     10  C   UNL     1       2.228   3.770  21.637  0.00  0.00    +0.000 A 
ATOM     11  C   UNL     1       1.680   2.701  20.951  0.00  0.00    +0.000 A 
ATOM     12  C   UNL     1       1.316   2.862  19.620  0.00  0.00    +0.000 A 
ATOM     13  C   UNL     1       1.521   4.083  18.938  0.00  0.00    +0.000 A 
ATOM     14  C   UNL     1       1.164   4.080  17.469  0.00  0.00    +0.000 C 
ENDBRANCH   6   8
BRANCH   5  15
ATOM     15  C   UNL     1       3.991   5.938  17.382  0.00  0.00    +0.000 C 
ATOM     16  N   UNL     1       4.660   5.116  16.910  0.00  0.00    +0.000 NA
ENDBRANCH   5  15
ENDBRANCH   1   2
BRANCH   1  17
ATOM     17  C   UNL     1      -0.526  10.394  18.513  0.00  0.00    +0.000 A 
ATOM     18  C   UNL     1      -1.252   9.597  17.640  0.00  0.00    +0.000 A 
ATOM     19  N   UNL     1      -2.151  10.330  16.913  0.00  0.00    +0.000 NA
ATOM     20  C   UNL     1      -2.006  11.560  17.337  0.00  0.00    +0.000 A 
ATOM     21  N   UNL     1      -1.018  11.662  18.277  0.00  0.00    +0.000 N 
ATOM     22  C   UNL     1      -0.605  12.906  18.871  0.00  0.00    +0.000 C 
ENDBRANCH   1  17
BRANCH   1  23
ATOM     23  O   UNL     1      -0.178   9.521  20.659  0.00  0.00    +0.000 OA
BRANCH  23  24
ATOM     24  C   UNL     1       0.354   9.971  21.901  0.00  0.00    +0.000 C 
BRANCH  24  28
ATOM     25  C   UNL     1      -0.673  13.335  22.580  0.00  0.00    +0.000 A 
ATOM     26  C   UNL     1      -1.814  12.737  23.086  0.00  0.00    +0.000 A 
ATOM     27  C   UNL     1      -1.657  11.342  22.915  0.00  0.00    +0.000 A 
ATOM     28  C   UNL     1      -0.430  11.161  22.311  0.00  0.00    +0.000 A 
ATOM     29  O   UNL     1       0.171  12.365  22.106  0.00  0.00    +0.000 OA
BRANCH  25  30
ATOM     30  C   UNL     1      -0.289  14.726  22.505  0.00  0.00    +0.000 C 
ATOM     31  O   UNL     1       0.822  15.169  22.765  0.00  0.00    +0.000 OA
BRANCH  30  33
ATOM     32  C   UNL     1      -1.527  16.695  22.812  0.00  0.00    +0.000 C 
ATOM     33  O   UNL     1      -1.345  15.484  22.086  0.00  0.00    +0.000 OA
ENDBRANCH  30  33
ENDBRANCH  25  30
ENDBRANCH  24  28
ENDBRANCH  23  24
ENDBRANCH   1  23
TORSDOF 9
ENDMDL
MODEL 3
REMARK VINA RESULT:      -7.2      0.421      1.241
REMARK  Name = 
REMARK  12 active torsions:
REMARK  status: ('A' for Active; 'I' for Inactive)
REMARK    1  A    between atoms: C_1  and  O_2
REMARK    2  A    between atoms: O_2  and  C_3
REMARK    3  A    between atoms: C_3  and  C_5
REMARK    4  A    between atoms: C_8  and  C_9
REMARK    5  A    between atoms: C_9  and  O_10
REMARK    6  A    between atoms: O_10  and  C_11
REMARK    7  A    between atoms: C_11  and  C_12
REMARK    8  A    between atoms: C_11  and  C_27
REMARK    9  A    between atoms: C_15  and  C_16
REMARK   10  A    between atoms: C_18  and  C_19
REMARK   11  A    between atoms: C_24  and  C_25
REMARK   12  A    between atoms: N_31  and  C_32
REMARK                            x       y       z     vdW  Elec       q    Type
REMARK                         _______ _______ _______ _____ _____    ______ ____
ROOT
ATOM      1  C   UNL     1       3.154   6.357  18.666  0.00  0.00    +0.000 C 
ENDROOT
BRANCH   1   2
ATOM      2  C   UNL     1       2.315   7.255  19.559  0.00  0.00    +0.000 A 
ATOM      3  C   UNL     1       2.180   6.999  20.922  0.00  0.00    +0.000 A 
ATOM      4  C   UNL     1       1.360   7.817  21.694  0.00  0.00    +0.000 A 
ATOM      5  C   UNL     1       0.640   8.886  21.115  0.00  0.00    +0.000 A 
ATOM      6  C   UNL     1       0.800   9.215  19.746  0.00  0.00    +0.000 A 
ATOM      7  C   UNL     1       1.681   8.389  19.019  0.00  0.00    +0.000 A 
BRANCH   6   8
ATOM      8  C   UNL     1       0.153  10.384  19.060  0.00  0.00    +0.000 A 
ATOM      9  C   UNL     1      -1.009  10.175  18.280  0.00  0.00    +0.000 A 
ATOM     10  C   UNL     1      -1.678  11.216  17.628  0.00  0.00    +0.000 A 
ATOM     11  C   UNL     1      -1.246  12.521  17.786  0.00  0.00    +0.000 A 
ATOM     12  C   UNL     1      -0.124  12.776  18.565  0.00  0.00    +0.000 A 
ATOM     13  C   UNL     1       0.607  11.731  19.176  0.00  0.00    +0.000 A 
ATOM     14  C   UNL     1       1.857  12.153  19.913  0.00  0.00    +0.000 C 
ENDBRANCH   6   8
BRANCH   5  15
ATOM     15  C   UNL     1      -0.243   9.596  22.000  0.00  0.00    +0.000 C 
ATOM     16  N   UNL     1      -1.002  10.131  22.696  0.00  0.00    +0.000 NA
ENDBRANCH   5  15
ENDBRANCH   1   2
BRANCH   1  17
ATOM     17  C   UNL     1       2.523   5.010  18.413  0.00  0.00    +0.000 A 
ATOM     18  C   UNL     1       1.363   4.686  17.724  0.00  0.00    +0.000 A 
ATOM     19  N   UNL     1       1.157   3.333  17.689  0.00  0.00    +0.000 NA
ATOM     20  C   UNL     1       2.178   2.818  18.326  0.00  0.00    +0.000 A 
ATOM     21  N   UNL     1       3.015   3.784  18.812  0.00  0.00    +0.000 N 
ATOM     22  C   UNL     1       4.185   3.504  19.602  0.00  0.00    +0.000 C 
ENDBRANCH   1  17
BRANCH   1  23
ATOM     23  O   UNL     1       3.310   6.959  17.377  0.00  0.00    +0.000 OA
BRANCH  23  24
ATOM     24  C   UNL     1       4.581   7.573  17.185  0.00  0.00    +0.000 C 
BRANCH  24  28
ATOM     25  C   UNL     1       6.566   5.255  15.309  0.00  0.00    +0.000 A 
ATOM     26  C   UNL     1       6.961   4.798  16.555  0.00  0.00    +0.000 A 
ATOM     27  C   UNL     1       6.296   5.598  17.514  0.00  0.00    +0.000 A 
ATOM     28  C   UNL     1       5.534   6.502  16.804  0.00  0.00    +0.000 A 
ATOM     29  O   UNL     1       5.693   6.299  15.468  0.00  0.00    +0.000 OA
BRANCH  25  30
ATOM     30  C   UNL     1       6.919   4.804  13.983  0.00  0.00    +0.000 C 
ATOM     31  O   UNL     1       7.725   5.350  13.240  0.00  0.00    +0.000 OA
BRANCH  30  33
ATOM     32  C   UNL     1       6.237   3.329  12.290  0.00  0.00    +0.000 C 
ATOM     33  O   UNL     1       6.233   3.664  13.674  0.00  0.00    +0.000 OA
ENDBRANCH  30  33
ENDBRANCH  25  30
ENDBRANCH  24  28
ENDBRANCH  23  24
ENDBRANCH   1  23
TORSDOF 9
ENDMDL
MODEL 4
REMARK VINA RESULT:      -7.2      2.007      2.773
REMARK  Name = 
REMARK  12 active torsions:
REMARK  status: ('A' for Active; 'I' for Inactive)
REMARK    1  A    between atoms: C_1  and  O_2
REMARK    2  A    between atoms: O_2  and  C_3
REMARK    3  A    between atoms: C_3  and  C_5
REMARK    4  A    between atoms: C_8  and  C_9
REMARK    5  A    between atoms: C_9  and  O_10
REMARK    6  A    between atoms: O_10  and  C_11
REMARK    7  A    between atoms: C_11  and  C_12
REMARK    8  A    between atoms: C_11  and  C_27
REMARK    9  A    between atoms: C_15  and  C_16
REMARK   10  A    between atoms: C_18  and  C_19
REMARK   11  A    between atoms: C_24  and  C_25
REMARK   12  A    between atoms: N_31  and  C_32
REMARK                            x       y       z     vdW  Elec       q    Type
REMARK                         _______ _______ _______ _____ _____    ______ ____
ROOT
ATOM      1  C   UNL     1       2.772   5.263  20.052  0.00  0.00    +0.000 C 
ENDROOT
BRANCH   1   2
ATOM      2  C   UNL     1       2.563   6.636  19.437  0.00  0.00    +0.000 A 
ATOM      3  C   UNL     1       3.233   7.019  18.277  0.00  0.00    +0.000 A 
ATOM      4  C   UNL     1       3.053   8.306  17.775  0.00  0.00    +0.000 A 
ATOM      5  C   UNL     1       2.223   9.238  18.436  0.00  0.00    +0.000 A 
ATOM      6  C   UNL     1       1.477   8.866  19.582  0.00  0.00    +0.000 A 
ATOM      7  C   UNL     1       1.654   7.538  20.020  0.00  0.00    +0.000 A 
BRANCH   6   8
ATOM      8  C   UNL     1       0.501   9.753  20.300  0.00  0.00    +0.000 A 
ATOM      9  C   UNL     1       0.727  10.080  21.658  0.00  0.00    +0.000 A 
ATOM     10  C   UNL     1      -0.126  10.915  22.386  0.00  0.00    +0.000 A 
ATOM     11  C   UNL     1      -1.207  11.511  21.762  0.00  0.00    +0.000 A 
ATOM     12  C   UNL     1      -1.454  11.240  20.422  0.00  0.00    +0.000 A 
ATOM     13  C   UNL     1      -0.644  10.344  19.686  0.00  0.00    +0.000 A 
ATOM     14  C   UNL     1      -1.089  10.075  18.267  0.00  0.00    +0.000 C 
ENDBRANCH   6   8
BRANCH   5  15
ATOM     15  C   UNL     1       2.194  10.559  17.870  0.00  0.00    +0.000 C 
ATOM     16  N   UNL     1       2.108  11.622  17.412  0.00  0.00    +0.000 NA
ENDBRANCH   5  15
ENDBRANCH   1   2
BRANCH   1  17
ATOM     17  C   UNL     1       1.935   4.187  19.406  0.00  0.00    +0.000 A 
ATOM     18  C   UNL     1       1.532   4.045  18.086  0.00  0.00    +0.000 A 
ATOM     19  N   UNL     1       0.807   2.899  17.898  0.00  0.00    +0.000 NA
ATOM     20  C   UNL     1       0.773   2.323  19.074  0.00  0.00    +0.000 A 
ATOM     21  N   UNL     1       1.409   3.072  20.026  0.00  0.00    +0.000 N 
ATOM     22  C   UNL     1       1.473   2.709  21.417  0.00  0.00    +0.000 C 
ENDBRANCH   1  17
BRANCH   1  23
ATOM     23  O   UNL     1       4.131   4.852  19.877  0.00  0.00    +0.000 OA
BRANCH  23  24
ATOM     24  C   UNL     1       4.303   3.870  18.860  0.00  0.00    +0.000 C 
BRANCH  24  28
ATOM     25  C   UNL     1       6.548   4.516  16.144  0.00  0.00    +0.000 A 
ATOM     26  C   UNL     1       7.438   4.866  17.144  0.00  0.00    +0.000 A 
ATOM     27  C   UNL     1       6.757   4.704  18.374  0.00  0.00    +0.000 A 
ATOM     28  C   UNL     1       5.487   4.267  18.059  0.00  0.00    +0.000 A 
ATOM     29  O   UNL     1       5.355   4.151  16.710  0.00  0.00    +0.000 OA
BRANCH  25  30
ATOM     30  C   UNL     1       6.709   4.480  14.708  0.00  0.00    +0.000 C 
ATOM     31  O   UNL     1       6.132   3.711  13.950  0.00  0.00    +0.000 OA
BRANCH  30  33
ATOM     32  C   UNL     1       8.049   5.303  12.967  0.00  0.00    +0.000 C 
ATOM     33  O   UNL     1       7.591   5.442  14.308  0.00  0.00    +0.000 OA
ENDBRANCH  30  33
ENDBRANCH  25  30
ENDBRANCH  24  28
ENDBRANCH  23  24
ENDBRANCH   1  23
TORSDOF 9
ENDMDL
MODEL 5
REMARK VINA RESULT:      -7.2      1.837      2.869
REMARK  Name = 
REMARK  12 active torsions:
REMARK  status: ('A' for Active; 'I' for Inactive)
REMARK    1  A    between atoms: C_1  and  O_2
REMARK    2  A    between atoms: O_2  and  C_3
REMARK    3  A    between atoms: C_3  and  C_5
REMARK    4  A    between atoms: C_8  and  C_9
REMARK    5  A    between atoms: C_9  and  O_10
REMARK    6  A    between atoms: O_10  and  C_11
REMARK    7  A    between atoms: C_11  and  C_12
REMARK    8  A    between atoms: C_11  and  C_27
REMARK    9  A    between atoms: C_15  and  C_16
REMARK   10  A    between atoms: C_18  and  C_19
REMARK   11  A    between atoms: C_24  and  C_25
REMARK   12  A    between atoms: N_31  and  C_32
REMARK                            x       y       z     vdW  Elec       q    Type
REMARK                         _______ _______ _______ _____ _____    ______ ____
ROOT
ATOM      1  C   UNL     1       3.153   4.985  19.241  0.00  0.00    +0.000 C 
ENDROOT
BRANCH   1   2
ATOM      2  C   UNL     1       2.760   6.431  18.990  0.00  0.00    +0.000 A 
ATOM      3  C   UNL     1       3.164   7.101  17.837  0.00  0.00    +0.000 A 
ATOM      4  C   UNL     1       2.826   8.441  17.670  0.00  0.00    +0.000 A 
ATOM      5  C   UNL     1       2.103   9.142  18.661  0.00  0.00    +0.000 A 
ATOM      6  C   UNL     1       1.620   8.478  19.816  0.00  0.00    +0.000 A 
ATOM      7  C   UNL     1       1.945   7.110  19.914  0.00  0.00    +0.000 A 
BRANCH   6   8
ATOM      8  C   UNL     1       0.768   9.109  20.879  0.00  0.00    +0.000 A 
ATOM      9  C   UNL     1       1.172   9.030  22.233  0.00  0.00    +0.000 A 
ATOM     10  C   UNL     1       0.440   9.609  23.275  0.00  0.00    +0.000 A 
ATOM     11  C   UNL     1      -0.693  10.350  22.993  0.00  0.00    +0.000 A 
ATOM     12  C   UNL     1      -1.113  10.478  21.675  0.00  0.00    +0.000 A 
ATOM     13  C   UNL     1      -0.428   9.842  20.615  0.00  0.00    +0.000 A 
ATOM     14  C   UNL     1      -1.055   9.993  19.248  0.00  0.00    +0.000 C 
ENDBRANCH   6   8
BRANCH   5  15
ATOM     15  C   UNL     1       1.898  10.542  18.411  0.00  0.00    +0.000 C 
ATOM     16  N   UNL     1       1.795  11.679  18.200  0.00  0.00    +0.000 NA
ENDBRANCH   5  15
ENDBRANCH   1   2
BRANCH   1  17
ATOM     17  C   UNL     1       1.976   4.041  19.254  0.00  0.00    +0.000 A 
ATOM     18  C   UNL     1       1.144   3.641  18.218  0.00  0.00    +0.000 A 
ATOM     19  N   UNL     1       0.209   2.734  18.641  0.00  0.00    +0.000 NA
ATOM     20  C   UNL     1       0.463   2.554  19.913  0.00  0.00    +0.000 A 
ATOM     21  N   UNL     1       1.496   3.341  20.342  0.00  0.00    +0.000 N 
ATOM     22  C   UNL     1       1.949   3.391  21.708  0.00  0.00    +0.000 C 
ENDBRANCH   1  17
BRANCH   1  23
ATOM     23  O   UNL     1       4.007   4.523  18.190  0.00  0.00    +0.000 OA
BRANCH  23  24
ATOM     24  C   UNL     1       5.257   4.020  18.651  0.00  0.00    +0.000 C 
BRANCH  24  28
ATOM     25  C   UNL     1       6.931   4.699  15.558  0.00  0.00    +0.000 A 
ATOM     26  C   UNL     1       8.041   4.894  16.361  0.00  0.00    +0.000 A 
ATOM     27  C   UNL     1       7.622   4.690  17.697  0.00  0.00    +0.000 A 
ATOM     28  C   UNL     1       6.278   4.383  17.639  0.00  0.00    +0.000 A 
ATOM     29  O   UNL     1       5.855   4.387  16.346  0.00  0.00    +0.000 OA
BRANCH  25  30
ATOM     30  C   UNL     1       6.781   4.765  14.122  0.00  0.00    +0.000 C 
ATOM     31  O   UNL     1       7.507   5.395  13.363  0.00  0.00    +0.000 OA
BRANCH  30  33
ATOM     32  C   UNL     1       5.896   3.347  12.477  0.00  0.00    +0.000 C 
ATOM     33  O   UNL     1       5.716   4.010  13.724  0.00  0.00    +0.000 OA
ENDBRANCH  30  33
ENDBRANCH  25  30
ENDBRANCH  24  28
ENDBRANCH  23  24
ENDBRANCH   1  23
TORSDOF 9
ENDMDL
MODEL 6
REMARK VINA RESULT:      -7.1      3.711      8.765
REMARK  Name = 
REMARK  12 active torsions:
REMARK  status: ('A' for Active; 'I' for Inactive)
REMARK    1  A    between atoms: C_1  and  O_2
REMARK    2  A    between atoms: O_2  and  C_3
REMARK    3  A    between atoms: C_3  and  C_5
REMARK    4  A    between atoms: C_8  and  C_9
REMARK    5  A    between atoms: C_9  and  O_10
REMARK    6  A    between atoms: O_10  and  C_11
REMARK    7  A    between atoms: C_11  and  C_12
REMARK    8  A    between atoms: C_11  and  C_27
REMARK    9  A    between atoms: C_15  and  C_16
REMARK   10  A    between atoms: C_18  and  C_19
REMARK   11  A    between atoms: C_24  and  C_25
REMARK   12  A    between atoms: N_31  and  C_32
REMARK                            x       y       z     vdW  Elec       q    Type
REMARK                         _______ _______ _______ _____ _____    ______ ____
ROOT
ATOM      1  C   UNL     1       1.068  10.610  18.571  0.00  0.00    +0.000 C 
ENDROOT
BRANCH   1   2
ATOM      2  C   UNL     1       1.327   9.226  19.140  0.00  0.00    +0.000 A 
ATOM      3  C   UNL     1       0.808   8.843  20.376  0.00  0.00    +0.000 A 
ATOM      4  C   UNL     1       1.112   7.583  20.885  0.00  0.00    +0.000 A 
ATOM      5  C   UNL     1       1.959   6.696  20.184  0.00  0.00    +0.000 A 
ATOM      6  C   UNL     1       2.454   7.026  18.898  0.00  0.00    +0.000 A 
ATOM      7  C   UNL     1       2.076   8.290  18.404  0.00  0.00    +0.000 A 
BRANCH   6   8
ATOM      8  C   UNL     1       3.283   6.117  18.036  0.00  0.00    +0.000 A 
ATOM      9  C   UNL     1       4.603   6.496  17.695  0.00  0.00    +0.000 A 
ATOM     10  C   UNL     1       5.441   5.695  16.912  0.00  0.00    +0.000 A 
ATOM     11  C   UNL     1       5.012   4.448  16.496  0.00  0.00    +0.000 A 
ATOM     12  C   UNL     1       3.732   4.022  16.830  0.00  0.00    +0.000 A 
ATOM     13  C   UNL     1       2.845   4.846  17.560  0.00  0.00    +0.000 A 
ATOM     14  C   UNL     1       1.455   4.287  17.766  0.00  0.00    +0.000 C 
ENDBRANCH   6   8
BRANCH   5  15
ATOM     15  C   UNL     1       2.270   5.466  20.859  0.00  0.00    +0.000 C 
ATOM     16  N   UNL     1       2.467   4.477  21.434  0.00  0.00    +0.000 NA
ENDBRANCH   5  15
ENDBRANCH   1   2
BRANCH   1  17
ATOM     17  C   UNL     1      -0.310  11.137  18.887  0.00  0.00    +0.000 A 
ATOM     18  C   UNL     1      -0.713  12.057  19.844  0.00  0.00    +0.000 A 
ATOM     19  N   UNL     1      -2.060  12.296  19.781  0.00  0.00    +0.000 NA
ATOM     20  C   UNL     1      -2.489  11.554  18.790  0.00  0.00    +0.000 A 
ATOM     21  N   UNL     1      -1.483  10.811  18.238  0.00  0.00    +0.000 N 
ATOM     22  C   UNL     1      -1.682   9.864  17.172  0.00  0.00    +0.000 C 
ENDBRANCH   1  17
BRANCH   1  23
ATOM     23  O   UNL     1       1.982  11.551  19.143  0.00  0.00    +0.000 OA
BRANCH  23  24
ATOM     24  C   UNL     1       2.567  12.430  18.187  0.00  0.00    +0.000 C 
BRANCH  24  28
ATOM     25  C   UNL     1       1.928  15.907  18.767  0.00  0.00    +0.000 A 
ATOM     26  C   UNL     1       2.779  15.742  19.846  0.00  0.00    +0.000 A 
ATOM     27  C   UNL     1       3.179  14.385  19.848  0.00  0.00    +0.000 A 
ATOM     28  C   UNL     1       2.549  13.793  18.773  0.00  0.00    +0.000 A 
ATOM     29  O   UNL     1       1.790  14.710  18.115  0.00  0.00    +0.000 OA
BRANCH  25  30
ATOM     30  C   UNL     1       1.237  17.079  18.280  0.00  0.00    +0.000 C 
ATOM     31  O   UNL     1       1.775  18.117  17.915  0.00  0.00    +0.000 OA
BRANCH  30  33
ATOM     32  C   UNL     1      -0.889  18.002  17.920  0.00  0.00    +0.000 C 
ATOM     33  O   UNL     1      -0.110  16.863  18.271  0.00  0.00    +0.000 OA
ENDBRANCH  30  33
ENDBRANCH  25  30
ENDBRANCH  24  28
ENDBRANCH  23  24
ENDBRANCH   1  23
TORSDOF 9
ENDMDL
MODEL 7
REMARK VINA RESULT:      -7.1      2.902      8.147
REMARK  Name = 
REMARK  12 active torsions:
REMARK  status: ('A' for Active; 'I' for Inactive)
REMARK    1  A    between atoms: C_1  and  O_2
REMARK    2  A    between atoms: O_2  and  C_3
REMARK    3  A    between atoms: C_3  and  C_5
REMARK    4  A    between atoms: C_8  and  C_9
REMARK    5  A    between atoms: C_9  and  O_10
REMARK    6  A    between atoms: O_10  and  C_11
REMARK    7  A    between atoms: C_11  and  C_12
REMARK    8  A    between atoms: C_11  and  C_27
REMARK    9  A    between atoms: C_15  and  C_16
REMARK   10  A    between atoms: C_18  and  C_19
REMARK   11  A    between atoms: C_24  and  C_25
REMARK   12  A    between atoms: N_31  and  C_32
REMARK                            x       y       z     vdW  Elec       q    Type
REMARK                         _______ _______ _______ _____ _____    ______ ____
ROOT
ATOM      1  C   UNL     1       1.497   8.388  19.323  0.00  0.00    +0.000 C 
ENDROOT
BRANCH   1   2
ATOM      2  C   UNL     1       2.152   7.022  19.434  0.00  0.00    +0.000 A 
ATOM      3  C   UNL     1       1.758   6.107  20.409  0.00  0.00    +0.000 A 
ATOM      4  C   UNL     1       2.419   4.886  20.509  0.00  0.00    +0.000 A 
ATOM      5  C   UNL     1       3.500   4.568  19.657  0.00  0.00    +0.000 A 
ATOM      6  C   UNL     1       3.888   5.445  18.615  0.00  0.00    +0.000 A 
ATOM      7  C   UNL     1       3.155   6.645  18.522  0.00  0.00    +0.000 A 
BRANCH   6   8
ATOM      8  C   UNL     1       4.961   5.159  17.603  0.00  0.00    +0.000 A 
ATOM      9  C   UNL     1       4.595   4.780  16.290  0.00  0.00    +0.000 A 
ATOM     10  C   UNL     1       5.537   4.516  15.290  0.00  0.00    +0.000 A 
ATOM     11  C   UNL     1       6.885   4.689  15.548  0.00  0.00    +0.000 A 
ATOM     12  C   UNL     1       7.289   5.086  16.816  0.00  0.00    +0.000 A 
ATOM     13  C   UNL     1       6.358   5.290  17.860  0.00  0.00    +0.000 A 
ATOM     14  C   UNL     1       6.952   5.628  19.208  0.00  0.00    +0.000 C 
ENDBRANCH   6   8
BRANCH   5  15
ATOM     15  C   UNL     1       4.158   3.317  19.923  0.00  0.00    +0.000 C 
ATOM     16  N   UNL     1       4.640   2.279  20.110  0.00  0.00    +0.000 NA
ENDBRANCH   5  15
ENDBRANCH   1   2
BRANCH   1  17
ATOM     17  C   UNL     1       1.014   8.927  20.647  0.00  0.00    +0.000 A 
ATOM     18  C   UNL     1       1.593   8.847  21.905  0.00  0.00    +0.000 A 
ATOM     19  N   UNL     1       0.848   9.505  22.847  0.00  0.00    +0.000 NA
ATOM     20  C   UNL     1      -0.168  10.004  22.188  0.00  0.00    +0.000 A 
ATOM     21  N   UNL     1      -0.135   9.658  20.866  0.00  0.00    +0.000 N 
ATOM     22  C   UNL     1      -1.159  10.020  19.920  0.00  0.00    +0.000 C 
ENDBRANCH   1  17
BRANCH   1  23
ATOM     23  O   UNL     1       2.446   9.344  18.840  0.00  0.00    +0.000 OA
BRANCH  23  24
ATOM     24  C   UNL     1       1.903  10.254  17.887  0.00  0.00    +0.000 C 
BRANCH  24  28
ATOM     25  C   UNL     1       3.104  13.580  18.459  0.00  0.00    +0.000 A 
ATOM     26  C   UNL     1       2.192  13.582  19.500  0.00  0.00    +0.000 A 
ATOM     27  C   UNL     1       1.544  12.324  19.479  0.00  0.00    +0.000 A 
ATOM     28  C   UNL     1       2.093  11.622  18.427  0.00  0.00    +0.000 A 
ATOM     29  O   UNL     1       3.038  12.378  17.805  0.00  0.00    +0.000 OA
BRANCH  25  30
ATOM     30  C   UNL     1       4.040  14.590  18.022  0.00  0.00    +0.000 C 
ATOM     31  O   UNL     1       5.205  14.681  18.386  0.00  0.00    +0.000 OA
BRANCH  30  33
ATOM     32  C   UNL     1       3.073  16.697  17.661  0.00  0.00    +0.000 C 
ATOM     33  O   UNL     1       3.443  15.430  17.127  0.00  0.00    +0.000 OA
ENDBRANCH  30  33
ENDBRANCH  25  30
ENDBRANCH  24  28
ENDBRANCH  23  24
ENDBRANCH   1  23
TORSDOF 9
ENDMDL
MODEL 8
REMARK VINA RESULT:      -7.1      3.614      8.703
REMARK  Name = 
REMARK  12 active torsions:
REMARK  status: ('A' for Active; 'I' for Inactive)
REMARK    1  A    between atoms: C_1  and  O_2
REMARK    2  A    between atoms: O_2  and  C_3
REMARK    3  A    between atoms: C_3  and  C_5
REMARK    4  A    between atoms: C_8  and  C_9
REMARK    5  A    between atoms: C_9  and  O_10
REMARK    6  A    between atoms: O_10  and  C_11
REMARK    7  A    between atoms: C_11  and  C_12
REMARK    8  A    between atoms: C_11  and  C_27
REMARK    9  A    between atoms: C_15  and  C_16
REMARK   10  A    between atoms: C_18  and  C_19
REMARK   11  A    between atoms: C_24  and  C_25
REMARK   12  A    between atoms: N_31  and  C_32
REMARK                            x       y       z     vdW  Elec       q    Type
REMARK                         _______ _______ _______ _____ _____    ______ ____
ROOT
ATOM      1  C   UNL     1       1.111  10.595  18.451  0.00  0.00    +0.000 C 
ENDROOT
BRANCH   1   2
ATOM      2  C   UNL     1       1.363   9.223  19.052  0.00  0.00    +0.000 A 
ATOM      3  C   UNL     1       0.847   8.873  20.298  0.00  0.00    +0.000 A 
ATOM      4  C   UNL     1       1.145   7.624  20.836  0.00  0.00    +0.000 A 
ATOM      5  C   UNL     1       1.982   6.714  20.153  0.00  0.00    +0.000 A 
ATOM      6  C   UNL     1       2.474   7.010  18.858  0.00  0.00    +0.000 A 
ATOM      7  C   UNL     1       2.103   8.265  18.335  0.00  0.00    +0.000 A 
BRANCH   6   8
ATOM      8  C   UNL     1       3.294   6.076  18.014  0.00  0.00    +0.000 A 
ATOM      9  C   UNL     1       4.618   6.433  17.668  0.00  0.00    +0.000 A 
ATOM     10  C   UNL     1       5.448   5.607  16.902  0.00  0.00    +0.000 A 
ATOM     11  C   UNL     1       5.004   4.357  16.509  0.00  0.00    +0.000 A 
ATOM     12  C   UNL     1       3.719   3.953  16.849  0.00  0.00    +0.000 A 
ATOM     13  C   UNL     1       2.841   4.801  17.562  0.00  0.00    +0.000 A 
ATOM     14  C   UNL     1       1.445   4.262  17.777  0.00  0.00    +0.000 C 
ENDBRANCH   6   8
BRANCH   5  15
ATOM     15  C   UNL     1       2.288   5.498  20.856  0.00  0.00    +0.000 C 
ATOM     16  N   UNL     1       2.482   4.492  21.401  0.00  0.00    +0.000 NA
ENDBRANCH   5  15
ENDBRANCH   1   2
BRANCH   1  17
ATOM     17  C   UNL     1      -0.235  11.169  18.819  0.00  0.00    +0.000 A 
ATOM     18  C   UNL     1      -0.565  12.125  19.769  0.00  0.00    +0.000 A 
ATOM     19  N   UNL     1      -1.906  12.400  19.764  0.00  0.00    +0.000 NA
ATOM     20  C   UNL     1      -2.404  11.647  18.816  0.00  0.00    +0.000 A 
ATOM     21  N   UNL     1      -1.447  10.861  18.236  0.00  0.00    +0.000 N 
ATOM     22  C   UNL     1      -1.723   9.894  17.206  0.00  0.00    +0.000 C 
ENDBRANCH   1  17
BRANCH   1  23
ATOM     23  O   UNL     1       2.077  11.528  18.945  0.00  0.00    +0.000 OA
BRANCH  23  24
ATOM     24  C   UNL     1       2.637  12.359  17.932  0.00  0.00    +0.000 C 
BRANCH  24  28
ATOM     25  C   UNL     1       3.055  15.027  20.285  0.00  0.00    +0.000 A 
ATOM     26  C   UNL     1       3.285  15.799  19.159  0.00  0.00    +0.000 A 
ATOM     27  C   UNL     1       3.186  14.935  18.043  0.00  0.00    +0.000 A 
ATOM     28  C   UNL     1       2.904  13.682  18.546  0.00  0.00    +0.000 A 
ATOM     29  O   UNL     1       2.824  13.732  19.904  0.00  0.00    +0.000 OA
BRANCH  25  30
ATOM     30  C   UNL     1       3.021  15.386  21.684  0.00  0.00    +0.000 C 
ATOM     31  O   UNL     1       3.349  14.655  22.611  0.00  0.00    +0.000 OA
BRANCH  30  33
ATOM     32  C   UNL     1       3.473  17.523  22.541  0.00  0.00    +0.000 C 
ATOM     33  O   UNL     1       2.581  16.670  21.832  0.00  0.00    +0.000 OA
ENDBRANCH  30  33
ENDBRANCH  25  30
ENDBRANCH  24  28
ENDBRANCH  23  24
ENDBRANCH   1  23
TORSDOF 9
ENDMDL
MODEL 9
REMARK VINA RESULT:      -7.1      3.156      7.659
REMARK  Name = 
REMARK  12 active torsions:
REMARK  status: ('A' for Active; 'I' for Inactive)
REMARK    1  A    between atoms: C_1  and  O_2
REMARK    2  A    between atoms: O_2  and  C_3
REMARK    3  A    between atoms: C_3  and  C_5
REMARK    4  A    between atoms: C_8  and  C_9
REMARK    5  A    between atoms: C_9  and  O_10
REMARK    6  A    between atoms: O_10  and  C_11
REMARK    7  A    between atoms: C_11  and  C_12
REMARK    8  A    between atoms: C_11  and  C_27
REMARK    9  A    between atoms: C_15  and  C_16
REMARK   10  A    between atoms: C_18  and  C_19
REMARK   11  A    between atoms: C_24  and  C_25
REMARK   12  A    between atoms: N_31  and  C_32
REMARK                            x       y       z     vdW  Elec       q    Type
REMARK                         _______ _______ _______ _____ _____    ______ ____
ROOT
ATOM      1  C   UNL     1       2.110   5.450  19.359  0.00  0.00    +0.000 C 
ENDROOT
BRANCH   1   2
ATOM      2  C   UNL     1       3.261   5.331  18.374  0.00  0.00    +0.000 A 
ATOM      3  C   UNL     1       3.237   4.395  17.342  0.00  0.00    +0.000 A 
ATOM      4  C   UNL     1       4.335   4.283  16.493  0.00  0.00    +0.000 A 
ATOM      5  C   UNL     1       5.484   5.084  16.675  0.00  0.00    +0.000 A 
ATOM      6  C   UNL     1       5.520   6.089  17.673  0.00  0.00    +0.000 A 
ATOM      7  C   UNL     1       4.366   6.197  18.474  0.00  0.00    +0.000 A 
BRANCH   6   8
ATOM      8  C   UNL     1       6.655   7.049  17.887  0.00  0.00    +0.000 A 
ATOM      9  C   UNL     1       6.613   8.323  17.273  0.00  0.00    +0.000 A 
ATOM     10  C   UNL     1       7.623   9.277  17.440  0.00  0.00    +0.000 A 
ATOM     11  C   UNL     1       8.685   9.016  18.288  0.00  0.00    +0.000 A 
ATOM     12  C   UNL     1       8.754   7.788  18.933  0.00  0.00    +0.000 A 
ATOM     13  C   UNL     1       7.781   6.784  18.723  0.00  0.00    +0.000 A 
ATOM     14  C   UNL     1       8.039   5.468  19.419  0.00  0.00    +0.000 C 
ENDBRANCH   6   8
BRANCH   5  15
ATOM     15  C   UNL     1       6.584   4.808  15.792  0.00  0.00    +0.000 C 
ATOM     16  N   UNL     1       7.490   4.644  15.087  0.00  0.00    +0.000 NA
ENDBRANCH   5  15
ENDBRANCH   1   2
BRANCH   1  17
ATOM     17  C   UNL     1       2.001   4.271  20.294  0.00  0.00    +0.000 A 
ATOM     18  C   UNL     1       2.510   4.099  21.573  0.00  0.00    +0.000 A 
ATOM     19  N   UNL     1       2.151   2.887  22.101  0.00  0.00    +0.000 NA
ATOM     20  C   UNL     1       1.416   2.320  21.179  0.00  0.00    +0.000 A 
ATOM     21  N   UNL     1       1.319   3.095  20.056  0.00  0.00    +0.000 N 
ATOM     22  C   UNL     1       0.621   2.691  18.864  0.00  0.00    +0.000 C 
ENDBRANCH   1  17
BRANCH   1  23
ATOM     23  O   UNL     1       2.305   6.592  20.199  0.00  0.00    +0.000 OA
BRANCH  23  24
ATOM     24  C   UNL     1       1.155   7.426  20.302  0.00  0.00    +0.000 C 
BRANCH  24  28
ATOM     25  C   UNL     1       1.275  10.791  19.079  0.00  0.00    +0.000 A 
ATOM     26  C   UNL     1       1.845  10.216  17.956  0.00  0.00    +0.000 A 
ATOM     27  C   UNL     1       1.926   8.825  18.205  0.00  0.00    +0.000 A 
ATOM     28  C   UNL     1       1.404   8.626  19.466  0.00  0.00    +0.000 A 
ATOM     29  O   UNL     1       1.008   9.813  20.000  0.00  0.00    +0.000 OA
BRANCH  25  30
ATOM     30  C   UNL     1       0.946  12.168  19.371  0.00  0.00    +0.000 C 
ATOM     31  O   UNL     1       1.354  12.804  20.334  0.00  0.00    +0.000 OA
BRANCH  30  33
ATOM     32  C   UNL     1      -1.258  12.361  18.589  0.00  0.00    +0.000 C 
ATOM     33  O   UNL     1       0.121  12.670  18.406  0.00  0.00    +0.000 OA
ENDBRANCH  30  33
ENDBRANCH  25  30
ENDBRANCH  24  28
ENDBRANCH  23  24
ENDBRANCH   1  23
TORSDOF 9
ENDMDL
