MODEL 1
REMARK VINA RESULT:      -7.5      0.000      0.000
REMARK  Name = 
REMARK  8 active torsions:
REMARK  status: ('A' for Active; 'I' for Inactive)
REMARK    1  A    between atoms: C_1  and  C_2
REMARK    2  A    between atoms: C_2  and  C_3
REMARK    3  A    between atoms: C_3  and  C_4
REMARK    4  A    between atoms: C_16  and  C_17
REMARK    5  A    between atoms: C_16  and  C_18
REMARK    6  A    between atoms: C_22  and  C_23
REMARK    7  A    between atoms: C_24  and  C_25
REMARK    8  A    between atoms: C_26  and  O_27
REMARK                            x       y       z     vdW  Elec       q    Type
REMARK                         _______ _______ _______ _____ _____    ______ ____
ROOT
ATOM      1  C   UNL     1       1.400   3.985  19.525  0.00  0.00    +0.000 A 
ATOM      2  C   UNL     1       0.930   3.151  18.565  0.00  0.00    +0.000 A 
ATOM      3  C   UNL     1       2.112   2.639  17.789  0.00  0.00    +0.000 A 
ATOM      4  O   UNL     1       2.444   1.474  17.667  0.00  0.00    +0.000 OA
ATOM      5  O   UNL     1       2.844   3.620  17.229  0.00  0.00    +0.000 OA
ATOM      6  C   UNL     1       3.234   4.611  18.168  0.00  0.00    +0.000 A 
ATOM      7  C   UNL     1       4.398   5.195  17.715  0.00  0.00    +0.000 A 
ATOM      8  C   UNL     1       4.400   6.562  17.571  0.00  0.00    +0.000 A 
ATOM      9  C   UNL     1       3.270   7.284  17.961  0.00  0.00    +0.000 A 
ATOM     10  C   UNL     1       2.182   6.682  18.708  0.00  0.00    +0.000 A 
ATOM     11  C   UNL     1       2.212   5.222  18.919  0.00  0.00    +0.000 A 
ATOM     12  O   UNL     1       1.146   7.580  19.070  0.00  0.00    +0.000 OA
ATOM     13  C   UNL     1       1.295   9.098  18.817  0.00  0.00    +0.000 C 
ATOM     14  C   UNL     1       0.030   9.723  18.200  0.00  0.00    +0.000 C 
ATOM     15  C   UNL     1       1.573   9.817  20.152  0.00  0.00    +0.000 C 
ATOM     16  C   UNL     1       2.368   9.495  17.891  0.00  0.00    +0.000 C 
ATOM     17  C   UNL     1       3.286   8.664  17.451  0.00  0.00    +0.000 C 
ATOM     18  O   UNL     1       5.409   7.220  16.928  0.00  0.00    +0.000 OA
ATOM     19  C   UNL     1       6.649   6.521  16.853  0.00  0.00    +0.000 C 
ATOM     20  C   UNL     1       7.331   6.664  18.217  0.00  0.00    +0.000 C 
ATOM     21  C   UNL     1       6.443   5.092  16.323  0.00  0.00    +0.000 C 
ATOM     22  C   UNL     1       5.813   5.109  14.914  0.00  0.00    +0.000 C 
ATOM     23  C   UNL     1       5.536   4.332  17.277  0.00  0.00    +0.000 C 
ENDROOT
BRANCH  23  24
ATOM     24  O   UNL     1       6.265   3.934  18.438  0.00  0.00    +0.000 OA
ATOM     25  H   UNL     1       5.655   3.474  19.040  0.00  0.00    +0.000 HD
ENDBRANCH  23  24
BRANCH   1  26
ATOM     26  C   UNL     1       2.021   3.030  20.711  0.00  0.00    +0.000 C 
BRANCH  26  28
ATOM     27  C   UNL     1       4.576   1.790  20.373  0.00  0.00    +0.000 C 
ATOM     28  C   UNL     1       3.613   2.795  21.052  0.00  0.00    +0.000 C 
ENDBRANCH  26  28
ENDBRANCH   1  26
TORSDOF 3
ENDMDL
MODEL 2
REMARK VINA RESULT:      -7.1      1.296      4.774
REMARK  Name = 
REMARK  8 active torsions:
REMARK  status: ('A' for Active; 'I' for Inactive)
REMARK    1  A    between atoms: C_1  and  C_2
REMARK    2  A    between atoms: C_2  and  C_3
REMARK    3  A    between atoms: C_3  and  C_4
REMARK    4  A    between atoms: C_16  and  C_17
REMARK    5  A    between atoms: C_16  and  C_18
REMARK    6  A    between atoms: C_22  and  C_23
REMARK    7  A    between atoms: C_24  and  C_25
REMARK    8  A    between atoms: C_26  and  O_27
REMARK                            x       y       z     vdW  Elec       q    Type
REMARK                         _______ _______ _______ _____ _____    ______ ____
ROOT
ATOM      1  C   UNL     1       5.731   6.751  16.561  0.00  0.00    +0.000 A 
ATOM      2  C   UNL     1       6.915   6.636  17.211  0.00  0.00    +0.000 A 
ATOM      3  C   UNL     1       7.007   5.231  17.743  0.00  0.00    +0.000 A 
ATOM      4  O   UNL     1       7.865   4.412  17.469  0.00  0.00    +0.000 OA
ATOM      5  O   UNL     1       5.995   4.911  18.571  0.00  0.00    +0.000 OA
ATOM      6  C   UNL     1       4.721   5.161  17.994  0.00  0.00    +0.000 A 
ATOM      7  C   UNL     1       3.812   4.306  18.578  0.00  0.00    +0.000 A 
ATOM      8  C   UNL     1       2.702   4.871  19.160  0.00  0.00    +0.000 A 
ATOM      9  C   UNL     1       2.516   6.251  19.060  0.00  0.00    +0.000 A 
ATOM     10  C   UNL     1       3.324   7.084  18.189  0.00  0.00    +0.000 A 
ATOM     11  C   UNL     1       4.479   6.462  17.513  0.00  0.00    +0.000 A 
ATOM     12  O   UNL     1       2.954   8.453  18.170  0.00  0.00    +0.000 OA
ATOM     13  C   UNL     1       1.677   8.934  18.899  0.00  0.00    +0.000 C 
ATOM     14  C   UNL     1       1.913  10.213  19.723  0.00  0.00    +0.000 C 
ATOM     15  C   UNL     1       0.576   9.235  17.863  0.00  0.00    +0.000 C 
ATOM     16  C   UNL     1       1.098   7.994  19.872  0.00  0.00    +0.000 C 
ATOM     17  C   UNL     1       1.488   6.745  19.990  0.00  0.00    +0.000 C 
ATOM     18  O   UNL     1       1.855   4.151  19.952  0.00  0.00    +0.000 OA
ATOM     19  C   UNL     1       1.884   2.738  19.759  0.00  0.00    +0.000 C 
ATOM     20  C   UNL     1       1.070   2.439  18.497  0.00  0.00    +0.000 C 
ATOM     21  C   UNL     1       3.327   2.207  19.801  0.00  0.00    +0.000 C 
ATOM     22  C   UNL     1       3.995   2.523  21.156  0.00  0.00    +0.000 C 
ATOM     23  C   UNL     1       4.127   2.849  18.678  0.00  0.00    +0.000 C 
ENDROOT
BRANCH  23  24
ATOM     24  O   UNL     1       3.801   2.237  17.430  0.00  0.00    +0.000 OA
ATOM     25  H   UNL     1       4.435   1.518  17.266  0.00  0.00    +0.000 HD
ENDBRANCH  23  24
BRANCH   1  26
ATOM     26  C   UNL     1       5.917   5.998  15.112  0.00  0.00    +0.000 C 
BRANCH  26  28
ATOM     27  C   UNL     1       5.832   3.668  13.455  0.00  0.00    +0.000 C 
ATOM     28  C   UNL     1       5.485   4.455  14.742  0.00  0.00    +0.000 C 
ENDBRANCH  26  28
ENDBRANCH   1  26
TORSDOF 3
ENDMDL
MODEL 3
REMARK VINA RESULT:      -6.6      8.291     11.108
REMARK  Name = 
REMARK  8 active torsions:
REMARK  status: ('A' for Active; 'I' for Inactive)
REMARK    1  A    between atoms: C_1  and  C_2
REMARK    2  A    between atoms: C_2  and  C_3
REMARK    3  A    between atoms: C_3  and  C_4
REMARK    4  A    between atoms: C_16  and  C_17
REMARK    5  A    between atoms: C_16  and  C_18
REMARK    6  A    between atoms: C_22  and  C_23
REMARK    7  A    between atoms: C_24  and  C_25
REMARK    8  A    between atoms: C_26  and  O_27
REMARK                            x       y       z     vdW  Elec       q    Type
REMARK                         _______ _______ _______ _____ _____    ______ ____
ROOT
ATOM      1  C   UNL     1       6.807  16.463  20.287  0.00  0.00    +0.000 A 
ATOM      2  C   UNL     1       7.707  17.466  20.148  0.00  0.00    +0.000 A 
ATOM      3  C   UNL     1       8.688  17.053  19.084  0.00  0.00    +0.000 A 
ATOM      4  O   UNL     1       8.909  17.639  18.040  0.00  0.00    +0.000 OA
ATOM      5  O   UNL     1       9.323  15.900  19.368  0.00  0.00    +0.000 OA
ATOM      6  C   UNL     1       8.423  14.846  19.678  0.00  0.00    +0.000 A 
ATOM      7  C   UNL     1       9.040  13.653  19.368  0.00  0.00    +0.000 A 
ATOM      8  C   UNL     1       9.130  12.713  20.367  0.00  0.00    +0.000 A 
ATOM      9  C   UNL     1       8.530  12.979  21.600  0.00  0.00    +0.000 A 
ATOM     10  C   UNL     1       7.637  14.104  21.803  0.00  0.00    +0.000 A 
ATOM     11  C   UNL     1       7.491  15.080  20.706  0.00  0.00    +0.000 A 
ATOM     12  O   UNL     1       7.074  14.183  23.103  0.00  0.00    +0.000 OA
ATOM     13  C   UNL     1       7.289  13.043  24.126  0.00  0.00    +0.000 C 
ATOM     14  C   UNL     1       7.663  13.565  25.525  0.00  0.00    +0.000 C 
ATOM     15  C   UNL     1       5.992  12.222  24.260  0.00  0.00    +0.000 C 
ATOM     16  C   UNL     1       8.364  12.089  23.810  0.00  0.00    +0.000 C 
ATOM     17  C   UNL     1       8.981  12.054  22.651  0.00  0.00    +0.000 C 
ATOM     18  O   UNL     1       9.905  11.596  20.242  0.00  0.00    +0.000 OA
ATOM     19  C   UNL     1      10.211  11.207  18.904  0.00  0.00    +0.000 C 
ATOM     20  C   UNL     1       8.974  10.496  18.347  0.00  0.00    +0.000 C 
ATOM     21  C   UNL     1      10.755  12.397  18.097  0.00  0.00    +0.000 C 
ATOM     22  C   UNL     1      12.038  12.964  18.740  0.00  0.00    +0.000 C 
ATOM     23  C   UNL     1       9.694  13.484  18.035  0.00  0.00    +0.000 C 
ENDROOT
BRANCH  23  24
ATOM     24  O   UNL     1       8.686  13.135  17.086  0.00  0.00    +0.000 OA
ATOM     25  H   UNL     1       8.113  12.456  17.485  0.00  0.00    +0.000 HD
ENDBRANCH  23  24
BRANCH   1  26
ATOM     26  C   UNL     1       5.778  16.576  19.009  0.00  0.00    +0.000 C 
BRANCH  26  28
ATOM     27  C   UNL     1       3.658  15.416  17.480  0.00  0.00    +0.000 C 
ATOM     28  C   UNL     1       4.987  15.338  18.271  0.00  0.00    +0.000 C 
ENDBRANCH  26  28
ENDBRANCH   1  26
TORSDOF 3
ENDMDL
MODEL 4
REMARK VINA RESULT:      -6.5      6.125     10.938
REMARK  Name = 
REMARK  8 active torsions:
REMARK  status: ('A' for Active; 'I' for Inactive)
REMARK    1  A    between atoms: C_1  and  C_2
REMARK    2  A    between atoms: C_2  and  C_3
REMARK    3  A    between atoms: C_3  and  C_4
REMARK    4  A    between atoms: C_16  and  C_17
REMARK    5  A    between atoms: C_16  and  C_18
REMARK    6  A    between atoms: C_22  and  C_23
REMARK    7  A    between atoms: C_24  and  C_25
REMARK    8  A    between atoms: C_26  and  O_27
REMARK                            x       y       z     vdW  Elec       q    Type
REMARK                         _______ _______ _______ _____ _____    ______ ____
ROOT
ATOM      1  C   UNL     1      -1.106  11.751  18.594  0.00  0.00    +0.000 A 
ATOM      2  C   UNL     1      -0.334  12.808  18.240  0.00  0.00    +0.000 A 
ATOM      3  C   UNL     1       0.089  13.506  19.503  0.00  0.00    +0.000 A 
ATOM      4  O   UNL     1       1.233  13.681  19.882  0.00  0.00    +0.000 OA
ATOM      5  O   UNL     1      -0.949  13.925  20.251  0.00  0.00    +0.000 OA
ATOM      6  C   UNL     1      -1.877  12.885  20.523  0.00  0.00    +0.000 A 
ATOM      7  C   UNL     1      -2.523  13.186  21.703  0.00  0.00    +0.000 A 
ATOM      8  C   UNL     1      -3.896  13.232  21.674  0.00  0.00    +0.000 A 
ATOM      9  C   UNL     1      -4.558  12.897  20.491  0.00  0.00    +0.000 A 
ATOM     10  C   UNL     1      -3.875  12.298  19.361  0.00  0.00    +0.000 A 
ATOM     11  C   UNL     1      -2.404  12.190  19.418  0.00  0.00    +0.000 A 
ATOM     12  O   UNL     1      -4.717  11.970  18.267  0.00  0.00    +0.000 OA
ATOM     13  C   UNL     1      -6.254  12.098  18.390  0.00  0.00    +0.000 C 
ATOM     14  C   UNL     1      -6.890  12.783  17.167  0.00  0.00    +0.000 C 
ATOM     15  C   UNL     1      -6.878  10.696  18.525  0.00  0.00    +0.000 C 
ATOM     16  C   UNL     1      -6.744  12.891  19.529  0.00  0.00    +0.000 C 
ATOM     17  C   UNL     1      -5.973  13.303  20.509  0.00  0.00    +0.000 C 
ATOM     18  O   UNL     1      -4.625  13.730  22.715  0.00  0.00    +0.000 OA
ATOM     19  C   UNL     1      -3.965  13.740  23.980  0.00  0.00    +0.000 C 
ATOM     20  C   UNL     1      -4.024  12.312  24.530  0.00  0.00    +0.000 C 
ATOM     21  C   UNL     1      -2.574  14.388  23.868  0.00  0.00    +0.000 C 
ATOM     22  C   UNL     1      -2.680  15.844  23.366  0.00  0.00    +0.000 C 
ATOM     23  C   UNL     1      -1.723  13.578  22.903  0.00  0.00    +0.000 C 
ENDROOT
BRANCH  23  24
ATOM     24  O   UNL     1      -1.259  12.386  23.537  0.00  0.00    +0.000 OA
ATOM     25  H   UNL     1      -0.971  12.611  24.438  0.00  0.00    +0.000 HD
ENDBRANCH  23  24
BRANCH   1  26
ATOM     26  C   UNL     1      -0.082  10.585  19.137  0.00  0.00    +0.000 C 
BRANCH  26  28
ATOM     27  C   UNL     1       1.729   8.810  17.814  0.00  0.00    +0.000 C 
ATOM     28  C   UNL     1       1.364  10.161  18.477  0.00  0.00    +0.000 C 
ENDBRANCH  26  28
ENDBRANCH   1  26
TORSDOF 3
ENDMDL
MODEL 5
REMARK VINA RESULT:      -6.5      7.378     12.193
REMARK  Name = 
REMARK  8 active torsions:
REMARK  status: ('A' for Active; 'I' for Inactive)
REMARK    1  A    between atoms: C_1  and  C_2
REMARK    2  A    between atoms: C_2  and  C_3
REMARK    3  A    between atoms: C_3  and  C_4
REMARK    4  A    between atoms: C_16  and  C_17
REMARK    5  A    between atoms: C_16  and  C_18
REMARK    6  A    between atoms: C_22  and  C_23
REMARK    7  A    between atoms: C_24  and  C_25
REMARK    8  A    between atoms: C_26  and  O_27
REMARK                            x       y       z     vdW  Elec       q    Type
REMARK                         _______ _______ _______ _____ _____    ______ ____
ROOT
ATOM      1  C   UNL     1      -3.313  14.070  22.828  0.00  0.00    +0.000 A 
ATOM      2  C   UNL     1      -3.525  15.398  22.658  0.00  0.00    +0.000 A 
ATOM      3  C   UNL     1      -4.896  15.566  22.061  0.00  0.00    +0.000 A 
ATOM      4  O   UNL     1      -5.825  16.182  22.550  0.00  0.00    +0.000 OA
ATOM      5  O   UNL     1      -5.046  14.922  20.888  0.00  0.00    +0.000 OA
ATOM      6  C   UNL     1      -4.684  13.551  20.971  0.00  0.00    +0.000 A 
ATOM      7  C   UNL     1      -5.391  12.863  20.008  0.00  0.00    +0.000 A 
ATOM      8  C   UNL     1      -4.667  12.111  19.115  0.00  0.00    +0.000 A 
ATOM      9  C   UNL     1      -3.283  12.018  19.276  0.00  0.00    +0.000 A 
ATOM     10  C   UNL     1      -2.604  12.501  20.463  0.00  0.00    +0.000 A 
ATOM     11  C   UNL     1      -3.396  13.255  21.455  0.00  0.00    +0.000 A 
ATOM     12  O   UNL     1      -1.205  12.269  20.480  0.00  0.00    +0.000 OA
ATOM     13  C   UNL     1      -0.536  11.412  19.381  0.00  0.00    +0.000 C 
ATOM     14  C   UNL     1       0.755  12.051  18.836  0.00  0.00    +0.000 C 
ATOM     15  C   UNL     1      -0.172  10.030  19.957  0.00  0.00    +0.000 C 
ATOM     16  C   UNL     1      -1.341  11.170  18.173  0.00  0.00    +0.000 C 
ATOM     17  C   UNL     1      -2.617  11.468  18.084  0.00  0.00    +0.000 C 
ATOM     18  O   UNL     1      -5.234  11.571  17.996  0.00  0.00    +0.000 OA
ATOM     19  C   UNL     1      -6.650  11.404  18.044  0.00  0.00    +0.000 C 
ATOM     20  C   UNL     1      -6.928  10.149  18.876  0.00  0.00    +0.000 C 
ATOM     21  C   UNL     1      -7.341  12.704  18.489  0.00  0.00    +0.000 C 
ATOM     22  C   UNL     1      -7.024  13.862  17.519  0.00  0.00    +0.000 C 
ATOM     23  C   UNL     1      -6.867  13.068  19.887  0.00  0.00    +0.000 C 
ENDROOT
BRANCH  23  24
ATOM     24  O   UNL     1      -7.510  12.240  20.857  0.00  0.00    +0.000 OA
ATOM     25  H   UNL     1      -7.071  11.372  20.858  0.00  0.00    +0.000 HD
ENDBRANCH  23  24
BRANCH   1  26
ATOM     26  C   UNL     1      -4.169  13.626  24.160  0.00  0.00    +0.000 C 
BRANCH  26  28
ATOM     27  C   UNL     1      -6.985  13.130  24.101  0.00  0.00    +0.000 C 
ATOM     28  C   UNL     1      -5.509  12.673  24.195  0.00  0.00    +0.000 C 
ENDBRANCH  26  28
ENDBRANCH   1  26
TORSDOF 3
ENDMDL
MODEL 6
REMARK VINA RESULT:      -6.5      8.168     11.997
REMARK  Name = 
REMARK  8 active torsions:
REMARK  status: ('A' for Active; 'I' for Inactive)
REMARK    1  A    between atoms: C_1  and  C_2
REMARK    2  A    between atoms: C_2  and  C_3
REMARK    3  A    between atoms: C_3  and  C_4
REMARK    4  A    between atoms: C_16  and  C_17
REMARK    5  A    between atoms: C_16  and  C_18
REMARK    6  A    between atoms: C_22  and  C_23
REMARK    7  A    between atoms: C_24  and  C_25
REMARK    8  A    between atoms: C_26  and  O_27
REMARK                            x       y       z     vdW  Elec       q    Type
REMARK                         _______ _______ _______ _____ _____    ______ ____
ROOT
ATOM      1  C   UNL     1      -1.447  12.930  21.314  0.00  0.00    +0.000 A 
ATOM      2  C   UNL     1      -1.218  14.262  21.415  0.00  0.00    +0.000 A 
ATOM      3  C   UNL     1      -2.375  14.868  22.162  0.00  0.00    +0.000 A 
ATOM      4  O   UNL     1      -2.313  15.478  23.214  0.00  0.00    +0.000 OA
ATOM      5  O   UNL     1      -3.563  14.649  21.567  0.00  0.00    +0.000 OA
ATOM      6  C   UNL     1      -3.788  13.273  21.295  0.00  0.00    +0.000 A 
ATOM      7  C   UNL     1      -5.150  13.060  21.271  0.00  0.00    +0.000 A 
ATOM      8  C   UNL     1      -5.676  12.484  20.139  0.00  0.00    +0.000 A 
ATOM      9  C   UNL     1      -4.809  12.077  19.123  0.00  0.00    +0.000 A 
ATOM     10  C   UNL     1      -3.369  12.038  19.298  0.00  0.00    +0.000 A 
ATOM     11  C   UNL     1      -2.808  12.599  20.543  0.00  0.00    +0.000 A 
ATOM     12  O   UNL     1      -2.651  11.542  18.180  0.00  0.00    +0.000 OA
ATOM     13  C   UNL     1      -3.399  10.941  16.967  0.00  0.00    +0.000 C 
ATOM     14  C   UNL     1      -2.847  11.448  15.622  0.00  0.00    +0.000 C 
ATOM     15  C   UNL     1      -3.261   9.406  16.987  0.00  0.00    +0.000 C 
ATOM     16  C   UNL     1      -4.838  11.236  16.888  0.00  0.00    +0.000 C 
ATOM     17  C   UNL     1      -5.517  11.792  17.865  0.00  0.00    +0.000 C 
ATOM     18  O   UNL     1      -7.021  12.428  19.914  0.00  0.00    +0.000 OA
ATOM     19  C   UNL     1      -7.844  12.536  21.075  0.00  0.00    +0.000 C 
ATOM     20  C   UNL     1      -7.832  11.169  21.765  0.00  0.00    +0.000 C 
ATOM     21  C   UNL     1      -7.436  13.751  21.926  0.00  0.00    +0.000 C 
ATOM     22  C   UNL     1      -7.564  15.061  21.119  0.00  0.00    +0.000 C 
ATOM     23  C   UNL     1      -5.998  13.577  22.387  0.00  0.00    +0.000 C 
ENDROOT
BRANCH  23  24
ATOM     24  O   UNL     1      -5.937  12.639  23.462  0.00  0.00    +0.000 OA
ATOM     25  H   UNL     1      -6.477  11.866  23.225  0.00  0.00    +0.000 HD
ENDBRANCH  23  24
BRANCH   1  26
ATOM     26  C   UNL     1      -1.099  12.283  22.785  0.00  0.00    +0.000 C 
BRANCH  26  28
ATOM     27  C   UNL     1      -0.099   9.637  23.208  0.00  0.00    +0.000 C 
ATOM     28  C   UNL     1      -1.224  10.701  23.219  0.00  0.00    +0.000 C 
ENDBRANCH  26  28
ENDBRANCH   1  26
TORSDOF 3
ENDMDL
MODEL 7
REMARK VINA RESULT:      -6.4      7.423     11.065
REMARK  Name = 
REMARK  8 active torsions:
REMARK  status: ('A' for Active; 'I' for Inactive)
REMARK    1  A    between atoms: C_1  and  C_2
REMARK    2  A    between atoms: C_2  and  C_3
REMARK    3  A    between atoms: C_3  and  C_4
REMARK    4  A    between atoms: C_16  and  C_17
REMARK    5  A    between atoms: C_16  and  C_18
REMARK    6  A    between atoms: C_22  and  C_23
REMARK    7  A    between atoms: C_24  and  C_25
REMARK    8  A    between atoms: C_26  and  O_27
REMARK                            x       y       z     vdW  Elec       q    Type
REMARK                         _______ _______ _______ _____ _____    ______ ____
ROOT
ATOM      1  C   UNL     1      -1.170  11.822  18.657  0.00  0.00    +0.000 A 
ATOM      2  C   UNL     1      -0.430  12.896  18.287  0.00  0.00    +0.000 A 
ATOM      3  C   UNL     1      -0.018  13.619  19.540  0.00  0.00    +0.000 A 
ATOM      4  O   UNL     1       1.122  13.829  19.910  0.00  0.00    +0.000 OA
ATOM      5  O   UNL     1      -1.064  14.017  20.289  0.00  0.00    +0.000 OA
ATOM      6  C   UNL     1      -1.962  12.955  20.577  0.00  0.00    +0.000 A 
ATOM      7  C   UNL     1      -2.609  13.250  21.758  0.00  0.00    +0.000 A 
ATOM      8  C   UNL     1      -3.983  13.258  21.737  0.00  0.00    +0.000 A 
ATOM      9  C   UNL     1      -4.642  12.892  20.561  0.00  0.00    +0.000 A 
ATOM     10  C   UNL     1      -3.949  12.301  19.433  0.00  0.00    +0.000 A 
ATOM     11  C   UNL     1      -2.475  12.234  19.483  0.00  0.00    +0.000 A 
ATOM     12  O   UNL     1      -4.788  11.938  18.348  0.00  0.00    +0.000 OA
ATOM     13  C   UNL     1      -6.326  12.025  18.478  0.00  0.00    +0.000 C 
ATOM     14  C   UNL     1      -6.988  12.680  17.252  0.00  0.00    +0.000 C 
ATOM     15  C   UNL     1      -6.910  10.607  18.631  0.00  0.00    +0.000 C 
ATOM     16  C   UNL     1      -6.832  12.816  19.611  0.00  0.00    +0.000 C 
ATOM     17  C   UNL     1      -6.067  13.259  20.583  0.00  0.00    +0.000 C 
ATOM     18  O   UNL     1      -4.720  13.747  22.777  0.00  0.00    +0.000 OA
ATOM     19  C   UNL     1      -4.053  13.788  24.037  0.00  0.00    +0.000 C 
ATOM     20  C   UNL     1      -4.070  12.365  24.603  0.00  0.00    +0.000 C 
ATOM     21  C   UNL     1      -2.682  14.473  23.911  0.00  0.00    +0.000 C 
ATOM     22  C   UNL     1      -2.830  15.920  23.395  0.00  0.00    +0.000 C 
ATOM     23  C   UNL     1      -1.814  13.677  22.949  0.00  0.00    +0.000 C 
ENDROOT
BRANCH  23  24
ATOM     24  O   UNL     1      -1.314  12.505  23.593  0.00  0.00    +0.000 OA
ATOM     25  H   UNL     1      -1.528  12.561  24.540  0.00  0.00    +0.000 HD
ENDBRANCH  23  24
BRANCH   1  26
ATOM     26  C   UNL     1      -0.111  10.690  19.205  0.00  0.00    +0.000 C 
BRANCH  26  28
ATOM     27  C   UNL     1       0.448   9.941  21.908  0.00  0.00    +0.000 C 
ATOM     28  C   UNL     1      -0.275   9.760  20.551  0.00  0.00    +0.000 C 
ENDBRANCH  26  28
ENDBRANCH   1  26
TORSDOF 3
ENDMDL
MODEL 8
REMARK VINA RESULT:      -6.4      0.679      1.004
REMARK  Name = 
REMARK  8 active torsions:
REMARK  status: ('A' for Active; 'I' for Inactive)
REMARK    1  A    between atoms: C_1  and  C_2
REMARK    2  A    between atoms: C_2  and  C_3
REMARK    3  A    between atoms: C_3  and  C_4
REMARK    4  A    between atoms: C_16  and  C_17
REMARK    5  A    between atoms: C_16  and  C_18
REMARK    6  A    between atoms: C_22  and  C_23
REMARK    7  A    between atoms: C_24  and  C_25
REMARK    8  A    between atoms: C_26  and  O_27
REMARK                            x       y       z     vdW  Elec       q    Type
REMARK                         _______ _______ _______ _____ _____    ______ ____
ROOT
ATOM      1  C   UNL     1       1.807   3.843  19.278  0.00  0.00    +0.000 A 
ATOM      2  C   UNL     1       1.408   3.002  18.293  0.00  0.00    +0.000 A 
ATOM      3  C   UNL     1       2.636   2.568  17.539  0.00  0.00    +0.000 A 
ATOM      4  O   UNL     1       3.035   1.426  17.407  0.00  0.00    +0.000 OA
ATOM      5  O   UNL     1       3.327   3.598  17.014  0.00  0.00    +0.000 OA
ATOM      6  C   UNL     1       3.638   4.592  17.980  0.00  0.00    +0.000 A 
ATOM      7  C   UNL     1       4.778   5.247  17.567  0.00  0.00    +0.000 A 
ATOM      8  C   UNL     1       4.709   6.614  17.445  0.00  0.00    +0.000 A 
ATOM      9  C   UNL     1       3.531   7.267  17.816  0.00  0.00    +0.000 A 
ATOM     10  C   UNL     1       2.460   6.593  18.525  0.00  0.00    +0.000 A 
ATOM     11  C   UNL     1       2.565   5.133  18.713  0.00  0.00    +0.000 A 
ATOM     12  O   UNL     1       1.366   7.426  18.874  0.00  0.00    +0.000 OA
ATOM     13  C   UNL     1       1.438   8.955  18.650  0.00  0.00    +0.000 C 
ATOM     14  C   UNL     1       0.157   9.520  18.009  0.00  0.00    +0.000 C 
ATOM     15  C   UNL     1       1.643   9.664  20.003  0.00  0.00    +0.000 C 
ATOM     16  C   UNL     1       2.511   9.425  17.759  0.00  0.00    +0.000 C 
ATOM     17  C   UNL     1       3.484   8.654  17.330  0.00  0.00    +0.000 C 
ATOM     18  O   UNL     1       5.696   7.338  16.839  0.00  0.00    +0.000 OA
ATOM     19  C   UNL     1       6.975   6.709  16.786  0.00  0.00    +0.000 C 
ATOM     20  C   UNL     1       7.612   6.865  18.169  0.00  0.00    +0.000 C 
ATOM     21  C   UNL     1       6.861   5.280  16.227  0.00  0.00    +0.000 C 
ATOM     22  C   UNL     1       6.267   5.287  14.803  0.00  0.00    +0.000 C 
ATOM     23  C   UNL     1       5.973   4.455  17.145  0.00  0.00    +0.000 C 
ENDROOT
BRANCH  23  24
ATOM     24  O   UNL     1       6.693   4.078  18.319  0.00  0.00    +0.000 OA
ATOM     25  H   UNL     1       7.312   3.365  18.082  0.00  0.00    +0.000 HD
ENDBRANCH  23  24
BRANCH   1  26
ATOM     26  C   UNL     1       2.450   2.903  20.464  0.00  0.00    +0.000 C 
BRANCH  26  28
ATOM     27  C   UNL     1       0.894   2.147  22.741  0.00  0.00    +0.000 C 
ATOM     28  C   UNL     1       2.048   2.920  22.059  0.00  0.00    +0.000 C 
ENDBRANCH  26  28
ENDBRANCH   1  26
TORSDOF 3
ENDMDL
MODEL 9
REMARK VINA RESULT:      -6.3      9.108     11.067
REMARK  Name = 
REMARK  8 active torsions:
REMARK  status: ('A' for Active; 'I' for Inactive)
REMARK    1  A    between atoms: C_1  and  C_2
REMARK    2  A    between atoms: C_2  and  C_3
REMARK    3  A    between atoms: C_3  and  C_4
REMARK    4  A    between atoms: C_16  and  C_17
REMARK    5  A    between atoms: C_16  and  C_18
REMARK    6  A    between atoms: C_22  and  C_23
REMARK    7  A    between atoms: C_24  and  C_25
REMARK    8  A    between atoms: C_26  and  O_27
REMARK                            x       y       z     vdW  Elec       q    Type
REMARK                         _______ _______ _______ _____ _____    ______ ____
ROOT
ATOM      1  C   UNL     1      10.850  12.027  20.335  0.00  0.00    +0.000 A 
ATOM      2  C   UNL     1      10.548  11.114  19.379  0.00  0.00    +0.000 A 
ATOM      3  C   UNL     1       9.934  11.853  18.221  0.00  0.00    +0.000 A 
ATOM      4  O   UNL     1      10.358  11.886  17.081  0.00  0.00    +0.000 OA
ATOM      5  O   UNL     1       8.831  12.547  18.561  0.00  0.00    +0.000 OA
ATOM      6  C   UNL     1       9.051  13.411  19.667  0.00  0.00    +0.000 A 
ATOM      7  C   UNL     1       8.160  14.458  19.575  0.00  0.00    +0.000 A 
ATOM      8  C   UNL     1       7.348  14.688  20.659  0.00  0.00    +0.000 A 
ATOM      9  C   UNL     1       7.520  13.915  21.810  0.00  0.00    +0.000 A 
ATOM     10  C   UNL     1       8.655  13.029  21.987  0.00  0.00    +0.000 A 
ATOM     11  C   UNL     1       9.565  12.831  20.842  0.00  0.00    +0.000 A 
ATOM     12  O   UNL     1       8.698  12.368  23.241  0.00  0.00    +0.000 OA
ATOM     13  C   UNL     1       7.692  12.731  24.358  0.00  0.00    +0.000 C 
ATOM     14  C   UNL     1       7.089  11.488  25.038  0.00  0.00    +0.000 C 
ATOM     15  C   UNL     1       8.403  13.564  25.441  0.00  0.00    +0.000 C 
ATOM     16  C   UNL     1       6.512  13.503  23.935  0.00  0.00    +0.000 C 
ATOM     17  C   UNL     1       6.391  14.043  22.744  0.00  0.00    +0.000 C 
ATOM     18  O   UNL     1       6.287  15.546  20.600  0.00  0.00    +0.000 OA
ATOM     19  C   UNL     1       6.348  16.528  19.568  0.00  0.00    +0.000 C 
ATOM     20  C   UNL     1       7.300  17.628  20.047  0.00  0.00    +0.000 C 
ATOM     21  C   UNL     1       6.660  15.878  18.209  0.00  0.00    +0.000 C 
ATOM     22  C   UNL     1       5.580  14.844  17.828  0.00  0.00    +0.000 C 
ATOM     23  C   UNL     1       8.016  15.195  18.283  0.00  0.00    +0.000 C 
ENDROOT
BRANCH  23  24
ATOM     24  O   UNL     1       9.061  16.164  18.206  0.00  0.00    +0.000 OA
ATOM     25  H   UNL     1       9.907  15.694  18.108  0.00  0.00    +0.000 HD
ENDBRANCH  23  24
BRANCH   1  26
ATOM     26  C   UNL     1      12.218  12.792  19.836  0.00  0.00    +0.000 C 
BRANCH  26  28
ATOM     27  C   UNL     1      12.273  14.770  17.771  0.00  0.00    +0.000 C 
ATOM     28  C   UNL     1      12.329  14.326  19.253  0.00  0.00    +0.000 C 
ENDBRANCH  26  28
ENDBRANCH   1  26
TORSDOF 3
ENDMDL
