MODEL 1
REMARK VINA RESULT:      -8.8      0.000      0.000
REMARK  Name = 
REMARK  5 active torsions:
REMARK  status: ('A' for Active; 'I' for Inactive)
REMARK    1  A    between atoms: C_2  and  C_3
REMARK    2  A    between atoms: C_3  and  S_4
REMARK    3  A    between atoms: S_4  and  C_5
REMARK    4  A    between atoms: N_11  and  C_12
REMARK    5  A    between atoms: C_25  and  C_26
REMARK                            x       y       z     vdW  Elec       q    Type
REMARK                         _______ _______ _______ _____ _____    ______ ____
ROOT
ATOM      1  S   UNL     1       2.365   7.137  19.085  0.00  0.00    +0.000 S 
ENDROOT
BRANCH   1   2
ATOM      2  C   UNL     1       3.292   6.062  18.043  0.00  0.00    +0.000 A 
ATOM      3  N   UNL     1       3.972   6.619  17.083  0.00  0.00    +0.000 NA
ATOM      4  C   UNL     1       4.825   5.802  16.395  0.00  0.00    +0.000 A 
ATOM      5  C   UNL     1       5.012   4.505  16.637  0.00  0.00    +0.000 A 
ATOM      6  C   UNL     1       4.239   3.845  17.708  0.00  0.00    +0.000 A 
ATOM      7  O   UNL     1       4.392   2.642  17.933  0.00  0.00    +0.000 OA
ATOM      8  N   UNL     1       3.352   4.702  18.373  0.00  0.00    +0.000 N 
ATOM      9  S   UNL     1       6.208   3.731  15.677  0.00  0.00    +0.000 S 
ATOM     10  C   UNL     1       6.314   5.171  14.560  0.00  0.00    +0.000 C 
ATOM     11  C   UNL     1       5.727   6.358  15.332  0.00  0.00    +0.000 C 
BRANCH   8  12
ATOM     12  C   UNL     1       2.549   4.112  19.393  0.00  0.00    +0.000 A 
ATOM     13  C   UNL     1       3.018   4.070  20.713  0.00  0.00    +0.000 A 
ATOM     14  C   UNL     1       2.248   3.485  21.718  0.00  0.00    +0.000 A 
ATOM     15  C   UNL     1       1.018   2.912  21.405  0.00  0.00    +0.000 A 
ATOM     16  C   UNL     1       0.553   2.927  20.090  0.00  0.00    +0.000 A 
ATOM     17  C   UNL     1       1.312   3.532  19.084  0.00  0.00    +0.000 A 
ENDBRANCH   8  12
ENDBRANCH   1   2
BRANCH   1  18
ATOM     18  C   UNL     1       2.303   8.649  18.092  0.00  0.00    +0.000 C 
BRANCH  18  20
ATOM     19  O   UNL     1       1.286  10.808  18.243  0.00  0.00    +0.000 OA
ATOM     20  C   UNL     1       1.474   9.719  18.779  0.00  0.00    +0.000 C 
ATOM     21  N   UNL     1       0.996   9.332  20.010  0.00  0.00    +0.000 N 
ATOM     22  C   UNL     1       0.123  10.081  20.784  0.00  0.00    +0.000 A 
ATOM     23  N   UNL     1      -0.556  11.102  20.251  0.00  0.00    +0.000 NA
ATOM     24  C   UNL     1      -1.359  11.806  21.073  0.00  0.00    +0.000 A 
ATOM     25  C   UNL     1      -1.523  11.537  22.414  0.00  0.00    +0.000 A 
ATOM     26  C   UNL     1      -0.803  10.441  22.849  0.00  0.00    +0.000 A 
ATOM     27  N   UNL     1       0.010   9.690  22.061  0.00  0.00    +0.000 NA
ATOM     28  H   UNL     1       1.405   8.548  20.497  0.00  0.00    +0.000 HD
BRANCH  25  29
ATOM     29  C   UNL     1      -2.365  12.350  23.271  0.00  0.00    +0.000 A 
ATOM     30  C   UNL     1      -2.305  13.654  23.728  0.00  0.00    +0.000 A 
ATOM     31  C   UNL     1      -3.430  13.844  24.567  0.00  0.00    +0.000 A 
ATOM     32  C   UNL     1      -4.107  12.650  24.572  0.00  0.00    +0.000 A 
ATOM     33  O   UNL     1      -3.473  11.740  23.789  0.00  0.00    +0.000 OA
ENDBRANCH  25  29
ENDBRANCH  18  20
ENDBRANCH   1  18
TORSDOF 5
ENDMDL
MODEL 2
REMARK VINA RESULT:      -8.5      2.716      3.239
REMARK  Name = 
REMARK  5 active torsions:
REMARK  status: ('A' for Active; 'I' for Inactive)
REMARK    1  A    between atoms: C_2  and  C_3
REMARK    2  A    between atoms: C_3  and  S_4
REMARK    3  A    between atoms: S_4  and  C_5
REMARK    4  A    between atoms: N_11  and  C_12
REMARK    5  A    between atoms: C_25  and  C_26
REMARK                            x       y       z     vdW  Elec       q    Type
REMARK                         _______ _______ _______ _____ _____    ______ ____
ROOT
ATOM      1  S   UNL     1       2.595   7.189  19.185  0.00  0.00    +0.000 S 
ENDROOT
BRANCH   1   2
ATOM      2  C   UNL     1       3.421   6.119  18.055  0.00  0.00    +0.000 A 
ATOM      3  N   UNL     1       4.112   6.686  17.110  0.00  0.00    +0.000 NA
ATOM      4  C   UNL     1       4.891   5.857  16.352  0.00  0.00    +0.000 A 
ATOM      5  C   UNL     1       4.996   4.539  16.513  0.00  0.00    +0.000 A 
ATOM      6  C   UNL     1       4.208   3.868  17.566  0.00  0.00    +0.000 A 
ATOM      7  O   UNL     1       4.285   2.647  17.717  0.00  0.00    +0.000 OA
ATOM      8  N   UNL     1       3.398   4.741  18.305  0.00  0.00    +0.000 N 
ATOM      9  S   UNL     1       6.112   3.747  15.475  0.00  0.00    +0.000 S 
ATOM     10  C   UNL     1       6.287   5.240  14.441  0.00  0.00    +0.000 C 
ATOM     11  C   UNL     1       5.802   6.415  15.297  0.00  0.00    +0.000 C 
BRANCH   8  12
ATOM     12  C   UNL     1       2.582   4.146  19.312  0.00  0.00    +0.000 A 
ATOM     13  C   UNL     1       3.069   4.022  20.620  0.00  0.00    +0.000 A 
ATOM     14  C   UNL     1       2.287   3.430  21.612  0.00  0.00    +0.000 A 
ATOM     15  C   UNL     1       1.025   2.932  21.296  0.00  0.00    +0.000 A 
ATOM     16  C   UNL     1       0.541   3.029  19.991  0.00  0.00    +0.000 A 
ATOM     17  C   UNL     1       1.314   3.641  19.000  0.00  0.00    +0.000 A 
ENDBRANCH   8  12
ENDBRANCH   1   2
BRANCH   1  18
ATOM     18  C   UNL     1       2.249   8.627  18.141  0.00  0.00    +0.000 C 
BRANCH  18  20
ATOM     19  O   UNL     1       0.864   9.738  19.744  0.00  0.00    +0.000 OA
ATOM     20  C   UNL     1       0.981   9.333  18.590  0.00  0.00    +0.000 C 
ATOM     21  N   UNL     1       0.038   9.445  17.596  0.00  0.00    +0.000 N 
ATOM     22  C   UNL     1      -1.153  10.146  17.718  0.00  0.00    +0.000 A 
ATOM     23  N   UNL     1      -1.332  11.017  18.715  0.00  0.00    +0.000 NA
ATOM     24  C   UNL     1      -2.528  11.634  18.791  0.00  0.00    +0.000 A 
ATOM     25  C   UNL     1      -3.564  11.424  17.908  0.00  0.00    +0.000 A 
ATOM     26  C   UNL     1      -3.258  10.532  16.898  0.00  0.00    +0.000 A 
ATOM     27  N   UNL     1      -2.066   9.894  16.769  0.00  0.00    +0.000 NA
ATOM     28  H   UNL     1       0.088   8.864  16.772  0.00  0.00    +0.000 HD
BRANCH  25  29
ATOM     29  C   UNL     1      -4.851  12.078  18.053  0.00  0.00    +0.000 A 
ATOM     30  C   UNL     1      -5.933  12.278  17.216  0.00  0.00    +0.000 A 
ATOM     31  C   UNL     1      -6.886  13.024  17.951  0.00  0.00    +0.000 A 
ATOM     32  C   UNL     1      -6.331  13.235  19.189  0.00  0.00    +0.000 A 
ATOM     33  O   UNL     1      -5.101  12.664  19.262  0.00  0.00    +0.000 OA
ENDBRANCH  25  29
ENDBRANCH  18  20
ENDBRANCH   1  18
TORSDOF 5
ENDMDL
MODEL 3
REMARK VINA RESULT:      -8.5      2.811      3.424
REMARK  Name = 
REMARK  5 active torsions:
REMARK  status: ('A' for Active; 'I' for Inactive)
REMARK    1  A    between atoms: C_2  and  C_3
REMARK    2  A    between atoms: C_3  and  S_4
REMARK    3  A    between atoms: S_4  and  C_5
REMARK    4  A    between atoms: N_11  and  C_12
REMARK    5  A    between atoms: C_25  and  C_26
REMARK                            x       y       z     vdW  Elec       q    Type
REMARK                         _______ _______ _______ _____ _____    ______ ____
ROOT
ATOM      1  S   UNL     1       2.600   7.111  19.223  0.00  0.00    +0.000 S 
ENDROOT
BRANCH   1   2
ATOM      2  C   UNL     1       3.426   6.062  18.074  0.00  0.00    +0.000 A 
ATOM      3  N   UNL     1       4.100   6.647  17.127  0.00  0.00    +0.000 NA
ATOM      4  C   UNL     1       4.880   5.835  16.352  0.00  0.00    +0.000 A 
ATOM      5  C   UNL     1       5.003   4.516  16.500  0.00  0.00    +0.000 A 
ATOM      6  C   UNL     1       4.234   3.826  17.554  0.00  0.00    +0.000 A 
ATOM      7  O   UNL     1       4.327   2.604  17.693  0.00  0.00    +0.000 OA
ATOM      8  N   UNL     1       3.422   4.682  18.310  0.00  0.00    +0.000 N 
ATOM      9  S   UNL     1       6.117   3.747  15.442  0.00  0.00    +0.000 S 
ATOM     10  C   UNL     1       6.263   5.253  14.420  0.00  0.00    +0.000 C 
ATOM     11  C   UNL     1       5.773   6.414  15.293  0.00  0.00    +0.000 C 
BRANCH   8  12
ATOM     12  C   UNL     1       2.625   4.067  19.321  0.00  0.00    +0.000 A 
ATOM     13  C   UNL     1       1.299   3.709  19.039  0.00  0.00    +0.000 A 
ATOM     14  C   UNL     1       0.504   3.119  20.022  0.00  0.00    +0.000 A 
ATOM     15  C   UNL     1       1.019   2.910  21.299  0.00  0.00    +0.000 A 
ATOM     16  C   UNL     1       2.329   3.286  21.596  0.00  0.00    +0.000 A 
ATOM     17  C   UNL     1       3.136   3.857  20.607  0.00  0.00    +0.000 A 
ENDBRANCH   8  12
ENDBRANCH   1   2
BRANCH   1  18
ATOM     18  C   UNL     1       2.321   8.598  18.228  0.00  0.00    +0.000 C 
BRANCH  18  20
ATOM     19  O   UNL     1       0.931   9.739  19.805  0.00  0.00    +0.000 OA
ATOM     20  C   UNL     1       1.052   9.312  18.659  0.00  0.00    +0.000 C 
ATOM     21  N   UNL     1       0.112   9.404  17.660  0.00  0.00    +0.000 N 
ATOM     22  C   UNL     1      -1.079  10.106  17.765  0.00  0.00    +0.000 A 
ATOM     23  N   UNL     1      -1.261  10.996  18.744  0.00  0.00    +0.000 NA
ATOM     24  C   UNL     1      -2.458  11.614  18.804  0.00  0.00    +0.000 A 
ATOM     25  C   UNL     1      -3.491  11.387  17.923  0.00  0.00    +0.000 A 
ATOM     26  C   UNL     1      -3.182  10.476  16.932  0.00  0.00    +0.000 A 
ATOM     27  N   UNL     1      -1.989   9.836  16.819  0.00  0.00    +0.000 NA
ATOM     28  H   UNL     1       0.165   8.807  16.848  0.00  0.00    +0.000 HD
BRANCH  25  29
ATOM     29  C   UNL     1      -4.779  12.043  18.052  0.00  0.00    +0.000 A 
ATOM     30  C   UNL     1      -5.490  12.574  19.112  0.00  0.00    +0.000 A 
ATOM     31  C   UNL     1      -6.713  13.055  18.583  0.00  0.00    +0.000 A 
ATOM     32  C   UNL     1      -6.675  12.790  17.237  0.00  0.00    +0.000 A 
ATOM     33  O   UNL     1      -5.508  12.181  16.904  0.00  0.00    +0.000 OA
ENDBRANCH  25  29
ENDBRANCH  18  20
ENDBRANCH   1  18
TORSDOF 5
ENDMDL
MODEL 4
REMARK VINA RESULT:      -8.5      3.425     10.013
REMARK  Name = 
REMARK  5 active torsions:
REMARK  status: ('A' for Active; 'I' for Inactive)
REMARK    1  A    between atoms: C_2  and  C_3
REMARK    2  A    between atoms: C_3  and  S_4
REMARK    3  A    between atoms: S_4  and  C_5
REMARK    4  A    between atoms: N_11  and  C_12
REMARK    5  A    between atoms: C_25  and  C_26
REMARK                            x       y       z     vdW  Elec       q    Type
REMARK                         _______ _______ _______ _____ _____    ______ ____
ROOT
ATOM      1  S   UNL     1      -0.356  12.303  21.288  0.00  0.00    +0.000 S 
ENDROOT
BRANCH   1   2
ATOM      2  C   UNL     1      -1.706  12.245  20.158  0.00  0.00    +0.000 A 
ATOM      3  N   UNL     1      -1.474  11.714  18.993  0.00  0.00    +0.000 NA
ATOM      4  C   UNL     1      -2.564  11.511  18.194  0.00  0.00    +0.000 A 
ATOM      5  C   UNL     1      -3.822  11.806  18.520  0.00  0.00    +0.000 A 
ATOM      6  C   UNL     1      -4.111  12.428  19.827  0.00  0.00    +0.000 A 
ATOM      7  O   UNL     1      -5.269  12.719  20.135  0.00  0.00    +0.000 OA
ATOM      8  N   UNL     1      -2.969  12.650  20.609  0.00  0.00    +0.000 N 
ATOM      9  S   UNL     1      -5.014  11.370  17.362  0.00  0.00    +0.000 S 
ATOM     10  C   UNL     1      -3.737  11.021  16.105  0.00  0.00    +0.000 C 
ATOM     11  C   UNL     1      -2.425  10.817  16.871  0.00  0.00    +0.000 C 
BRANCH   8  12
ATOM     12  C   UNL     1      -3.180  13.284  21.869  0.00  0.00    +0.000 A 
ATOM     13  C   UNL     1      -2.952  14.661  22.002  0.00  0.00    +0.000 A 
ATOM     14  C   UNL     1      -3.142  15.292  23.232  0.00  0.00    +0.000 A 
ATOM     15  C   UNL     1      -3.532  14.547  24.342  0.00  0.00    +0.000 A 
ATOM     16  C   UNL     1      -3.737  13.172  24.225  0.00  0.00    +0.000 A 
ATOM     17  C   UNL     1      -3.569  12.540  22.989  0.00  0.00    +0.000 A 
ENDBRANCH   8  12
ENDBRANCH   1   2
BRANCH   1  18
ATOM     18  C   UNL     1      -0.533  10.722  22.151  0.00  0.00    +0.000 C 
BRANCH  18  20
ATOM     19  O   UNL     1       1.088   8.987  22.446  0.00  0.00    +0.000 OA
ATOM     20  C   UNL     1       0.489   9.713  21.656  0.00  0.00    +0.000 C 
ATOM     21  N   UNL     1       0.649   9.725  20.290  0.00  0.00    +0.000 N 
ATOM     22  C   UNL     1       1.434   8.826  19.584  0.00  0.00    +0.000 A 
ATOM     23  N   UNL     1       1.854   7.693  20.154  0.00  0.00    +0.000 NA
ATOM     24  C   UNL     1       2.643   6.886  19.418  0.00  0.00    +0.000 A 
ATOM     25  C   UNL     1       3.034   7.154  18.125  0.00  0.00    +0.000 A 
ATOM     26  C   UNL     1       2.514   8.332  17.624  0.00  0.00    +0.000 A 
ATOM     27  N   UNL     1       1.706   9.174  18.318  0.00  0.00    +0.000 NA
ATOM     28  H   UNL     1       0.336  10.513  19.743  0.00  0.00    +0.000 HD
BRANCH  25  29
ATOM     29  C   UNL     1       3.921   6.276  17.385  0.00  0.00    +0.000 A 
ATOM     30  C   UNL     1       4.946   6.479  16.479  0.00  0.00    +0.000 A 
ATOM     31  C   UNL     1       5.407   5.198  16.091  0.00  0.00    +0.000 A 
ATOM     32  C   UNL     1       4.640   4.292  16.780  0.00  0.00    +0.000 A 
ATOM     33  O   UNL     1       3.739   4.935  17.569  0.00  0.00    +0.000 OA
ENDBRANCH  25  29
ENDBRANCH  18  20
ENDBRANCH   1  18
TORSDOF 5
ENDMDL
MODEL 5
REMARK VINA RESULT:      -8.3      0.929      1.398
REMARK  Name = 
REMARK  5 active torsions:
REMARK  status: ('A' for Active; 'I' for Inactive)
REMARK    1  A    between atoms: C_2  and  C_3
REMARK    2  A    between atoms: C_3  and  S_4
REMARK    3  A    between atoms: S_4  and  C_5
REMARK    4  A    between atoms: N_11  and  C_12
REMARK    5  A    between atoms: C_25  and  C_26
REMARK                            x       y       z     vdW  Elec       q    Type
REMARK                         _______ _______ _______ _____ _____    ______ ____
ROOT
ATOM      1  S   UNL     1       2.549   7.139  19.051  0.00  0.00    +0.000 S 
ENDROOT
BRANCH   1   2
ATOM      2  C   UNL     1       3.429   6.070  17.962  0.00  0.00    +0.000 A 
ATOM      3  N   UNL     1       4.119   6.636  17.015  0.00  0.00    +0.000 NA
ATOM      4  C   UNL     1       4.937   5.815  16.291  0.00  0.00    +0.000 A 
ATOM      5  C   UNL     1       5.081   4.505  16.486  0.00  0.00    +0.000 A 
ATOM      6  C   UNL     1       4.296   3.834  17.541  0.00  0.00    +0.000 A 
ATOM      7  O   UNL     1       4.409   2.620  17.723  0.00  0.00    +0.000 OA
ATOM      8  N   UNL     1       3.445   4.698  18.245  0.00  0.00    +0.000 N 
ATOM      9  S   UNL     1       6.240   3.725  15.487  0.00  0.00    +0.000 S 
ATOM     10  C   UNL     1       6.386   5.198  14.419  0.00  0.00    +0.000 C 
ATOM     11  C   UNL     1       5.848   6.377  15.239  0.00  0.00    +0.000 C 
BRANCH   8  12
ATOM     12  C   UNL     1       2.631   4.101  19.252  0.00  0.00    +0.000 A 
ATOM     13  C   UNL     1       1.350   3.635  18.926  0.00  0.00    +0.000 A 
ATOM     14  C   UNL     1       0.538   3.061  19.905  0.00  0.00    +0.000 A 
ATOM     15  C   UNL     1       0.990   2.974  21.219  0.00  0.00    +0.000 A 
ATOM     16  C   UNL     1       2.254   3.457  21.558  0.00  0.00    +0.000 A 
ATOM     17  C   UNL     1       3.079   4.014  20.576  0.00  0.00    +0.000 A 
ENDBRANCH   8  12
ENDBRANCH   1   2
BRANCH   1  18
ATOM     18  C   UNL     1       1.984   8.432  17.918  0.00  0.00    +0.000 C 
BRANCH  18  20
ATOM     19  O   UNL     1       1.960  10.795  18.289  0.00  0.00    +0.000 OA
ATOM     20  C   UNL     1       1.593   9.688  18.676  0.00  0.00    +0.000 C 
ATOM     21  N   UNL     1       0.826   9.436  19.790  0.00  0.00    +0.000 N 
ATOM     22  C   UNL     1       0.248  10.415  20.583  0.00  0.00    +0.000 A 
ATOM     23  N   UNL     1       0.145  11.674  20.146  0.00  0.00    +0.000 NA
ATOM     24  C   UNL     1      -0.395  12.579  20.987  0.00  0.00    +0.000 A 
ATOM     25  C   UNL     1      -0.847  12.285  22.254  0.00  0.00    +0.000 A 
ATOM     26  C   UNL     1      -0.726  10.950  22.588  0.00  0.00    +0.000 A 
ATOM     27  N   UNL     1      -0.201   9.996  21.775  0.00  0.00    +0.000 NA
ATOM     28  H   UNL     1       0.792   8.511  20.192  0.00  0.00    +0.000 HD
BRANCH  25  29
ATOM     29  C   UNL     1      -1.382  13.300  23.142  0.00  0.00    +0.000 A 
ATOM     30  C   UNL     1      -2.598  13.488  23.773  0.00  0.00    +0.000 A 
ATOM     31  C   UNL     1      -2.502  14.704  24.492  0.00  0.00    +0.000 A 
ATOM     32  C   UNL     1      -1.238  15.185  24.257  0.00  0.00    +0.000 A 
ATOM     33  O   UNL     1      -0.551  14.341  23.444  0.00  0.00    +0.000 OA
ENDBRANCH  25  29
ENDBRANCH  18  20
ENDBRANCH   1  18
TORSDOF 5
ENDMDL
MODEL 6
REMARK VINA RESULT:      -8.2      1.584      4.099
REMARK  Name = 
REMARK  5 active torsions:
REMARK  status: ('A' for Active; 'I' for Inactive)
REMARK    1  A    between atoms: C_2  and  C_3
REMARK    2  A    between atoms: C_3  and  S_4
REMARK    3  A    between atoms: S_4  and  C_5
REMARK    4  A    between atoms: N_11  and  C_12
REMARK    5  A    between atoms: C_25  and  C_26
REMARK                            x       y       z     vdW  Elec       q    Type
REMARK                         _______ _______ _______ _____ _____    ______ ____
ROOT
ATOM      1  S   UNL     1       4.261   7.291  18.020  0.00  0.00    +0.000 S 
ENDROOT
BRANCH   1   2
ATOM      2  C   UNL     1       3.796   5.706  18.632  0.00  0.00    +0.000 A 
ATOM      3  N   UNL     1       2.954   5.684  19.625  0.00  0.00    +0.000 NA
ATOM      4  C   UNL     1       2.464   4.457  19.974  0.00  0.00    +0.000 A 
ATOM      5  C   UNL     1       2.774   3.307  19.378  0.00  0.00    +0.000 A 
ATOM      6  C   UNL     1       3.741   3.301  18.262  0.00  0.00    +0.000 A 
ATOM      7  O   UNL     1       4.048   2.241  17.711  0.00  0.00    +0.000 OA
ATOM      8  N   UNL     1       4.248   4.570  17.949  0.00  0.00    +0.000 N 
ATOM      9  S   UNL     1       1.949   1.918  19.961  0.00  0.00    +0.000 S 
ATOM     10  C   UNL     1       1.310   2.841  21.401  0.00  0.00    +0.000 C 
ATOM     11  C   UNL     1       1.416   4.327  21.040  0.00  0.00    +0.000 C 
BRANCH   8  12
ATOM     12  C   UNL     1       5.217   4.623  16.904  0.00  0.00    +0.000 A 
ATOM     13  C   UNL     1       6.582   4.653  17.221  0.00  0.00    +0.000 A 
ATOM     14  C   UNL     1       7.540   4.718  16.209  0.00  0.00    +0.000 A 
ATOM     15  C   UNL     1       7.139   4.784  14.877  0.00  0.00    +0.000 A 
ATOM     16  C   UNL     1       5.783   4.779  14.553  0.00  0.00    +0.000 A 
ATOM     17  C   UNL     1       4.820   4.692  15.563  0.00  0.00    +0.000 A 
ENDBRANCH   8  12
ENDBRANCH   1   2
BRANCH   1  18
ATOM     18  C   UNL     1       2.742   7.823  17.191  0.00  0.00    +0.000 C 
BRANCH  18  20
ATOM     19  O   UNL     1       2.154  10.133  17.392  0.00  0.00    +0.000 OA
ATOM     20  C   UNL     1       2.123   9.015  17.900  0.00  0.00    +0.000 C 
ATOM     21  N   UNL     1       1.565   8.696  19.116  0.00  0.00    +0.000 N 
ATOM     22  C   UNL     1       0.841   9.579  19.903  0.00  0.00    +0.000 A 
ATOM     23  N   UNL     1       0.376  10.723  19.394  0.00  0.00    +0.000 NA
ATOM     24  C   UNL     1      -0.288  11.547  20.228  0.00  0.00    +0.000 A 
ATOM     25  C   UNL     1      -0.517  11.281  21.560  0.00  0.00    +0.000 A 
ATOM     26  C   UNL     1      -0.024  10.057  21.971  0.00  0.00    +0.000 A 
ATOM     27  N   UNL     1       0.640   9.185  21.169  0.00  0.00    +0.000 NA
ATOM     28  H   UNL     1       1.811   7.837  19.585  0.00  0.00    +0.000 HD
BRANCH  25  29
ATOM     29  C   UNL     1      -1.199  12.218  22.432  0.00  0.00    +0.000 A 
ATOM     30  C   UNL     1      -2.521  12.428  22.778  0.00  0.00    +0.000 A 
ATOM     31  C   UNL     1      -2.540  13.531  23.666  0.00  0.00    +0.000 A 
ATOM     32  C   UNL     1      -1.234  13.928  23.808  0.00  0.00    +0.000 A 
ATOM     33  O   UNL     1      -0.414  13.138  23.068  0.00  0.00    +0.000 OA
ENDBRANCH  25  29
ENDBRANCH  18  20
ENDBRANCH   1  18
TORSDOF 5
ENDMDL
MODEL 7
REMARK VINA RESULT:      -8.2      1.028      1.032
REMARK  Name = 
REMARK  5 active torsions:
REMARK  status: ('A' for Active; 'I' for Inactive)
REMARK    1  A    between atoms: C_2  and  C_3
REMARK    2  A    between atoms: C_3  and  S_4
REMARK    3  A    between atoms: S_4  and  C_5
REMARK    4  A    between atoms: N_11  and  C_12
REMARK    5  A    between atoms: C_25  and  C_26
REMARK                            x       y       z     vdW  Elec       q    Type
REMARK                         _______ _______ _______ _____ _____    ______ ____
ROOT
ATOM      1  S   UNL     1       1.933   7.123  18.786  0.00  0.00    +0.000 S 
ENDROOT
BRANCH   1   2
ATOM      2  C   UNL     1       3.441   6.311  18.374  0.00  0.00    +0.000 A 
ATOM      3  N   UNL     1       4.338   7.020  17.752  0.00  0.00    +0.000 NA
ATOM      4  C   UNL     1       5.565   6.439  17.598  0.00  0.00    +0.000 A 
ATOM      5  C   UNL     1       5.904   5.228  18.036  0.00  0.00    +0.000 A 
ATOM      6  C   UNL     1       4.900   4.395  18.728  0.00  0.00    +0.000 A 
ATOM      7  O   UNL     1       5.197   3.266  19.127  0.00  0.00    +0.000 OA
ATOM      8  N   UNL     1       3.645   5.007  18.843  0.00  0.00    +0.000 N 
ATOM      9  S   UNL     1       7.542   4.773  17.783  0.00  0.00    +0.000 S 
ATOM     10  C   UNL     1       7.817   6.197  16.674  0.00  0.00    +0.000 C 
ATOM     11  C   UNL     1       6.701   7.202  16.980  0.00  0.00    +0.000 C 
BRANCH   8  12
ATOM     12  C   UNL     1       2.621   4.236  19.469  0.00  0.00    +0.000 A 
ATOM     13  C   UNL     1       2.515   4.222  20.867  0.00  0.00    +0.000 A 
ATOM     14  C   UNL     1       1.526   3.462  21.492  0.00  0.00    +0.000 A 
ATOM     15  C   UNL     1       0.657   2.688  20.726  0.00  0.00    +0.000 A 
ATOM     16  C   UNL     1       0.771   2.676  19.336  0.00  0.00    +0.000 A 
ATOM     17  C   UNL     1       1.746   3.453  18.705  0.00  0.00    +0.000 A 
ENDBRANCH   8  12
ENDBRANCH   1   2
BRANCH   1  18
ATOM     18  C   UNL     1       2.177   8.752  18.036  0.00  0.00    +0.000 C 
BRANCH  18  20
ATOM     19  O   UNL     1       0.958  10.809  18.099  0.00  0.00    +0.000 OA
ATOM     20  C   UNL     1       1.300   9.796  18.705  0.00  0.00    +0.000 C 
ATOM     21  N   UNL     1       0.968   9.480  20.001  0.00  0.00    +0.000 N 
ATOM     22  C   UNL     1       0.088  10.210  20.786  0.00  0.00    +0.000 A 
ATOM     23  N   UNL     1      -0.734  11.107  20.235  0.00  0.00    +0.000 NA
ATOM     24  C   UNL     1      -1.536  11.804  21.065  0.00  0.00    +0.000 A 
ATOM     25  C   UNL     1      -1.560  11.644  22.432  0.00  0.00    +0.000 A 
ATOM     26  C   UNL     1      -0.698  10.667  22.890  0.00  0.00    +0.000 A 
ATOM     27  N   UNL     1       0.120   9.928  22.096  0.00  0.00    +0.000 NA
ATOM     28  H   UNL     1       1.493   8.787  20.512  0.00  0.00    +0.000 HD
BRANCH  25  29
ATOM     29  C   UNL     1      -2.409  12.448  23.292  0.00  0.00    +0.000 A 
ATOM     30  C   UNL     1      -2.336  13.735  23.790  0.00  0.00    +0.000 A 
ATOM     31  C   UNL     1      -3.479  13.923  24.605  0.00  0.00    +0.000 A 
ATOM     32  C   UNL     1      -4.179  12.744  24.555  0.00  0.00    +0.000 A 
ATOM     33  O   UNL     1      -3.543  11.845  23.761  0.00  0.00    +0.000 OA
ENDBRANCH  25  29
ENDBRANCH  18  20
ENDBRANCH   1  18
TORSDOF 5
ENDMDL
MODEL 8
REMARK VINA RESULT:      -8.2      3.201      3.663
REMARK  Name = 
REMARK  5 active torsions:
REMARK  status: ('A' for Active; 'I' for Inactive)
REMARK    1  A    between atoms: C_2  and  C_3
REMARK    2  A    between atoms: C_3  and  S_4
REMARK    3  A    between atoms: S_4  and  C_5
REMARK    4  A    between atoms: N_11  and  C_12
REMARK    5  A    between atoms: C_25  and  C_26
REMARK                            x       y       z     vdW  Elec       q    Type
REMARK                         _______ _______ _______ _____ _____    ______ ____
ROOT
ATOM      1  S   UNL     1       1.737   7.213  17.945  0.00  0.00    +0.000 S 
ENDROOT
BRANCH   1   2
ATOM      2  C   UNL     1       3.400   6.637  17.993  0.00  0.00    +0.000 A 
ATOM      3  N   UNL     1       4.315   7.449  17.549  0.00  0.00    +0.000 NA
ATOM      4  C   UNL     1       5.612   7.068  17.754  0.00  0.00    +0.000 A 
ATOM      5  C   UNL     1       5.997   5.952  18.370  0.00  0.00    +0.000 A 
ATOM      6  C   UNL     1       4.980   5.004  18.866  0.00  0.00    +0.000 A 
ATOM      7  O   UNL     1       5.323   3.960  19.426  0.00  0.00    +0.000 OA
ATOM      8  N   UNL     1       3.662   5.409  18.613  0.00  0.00    +0.000 N 
ATOM      9  S   UNL     1       7.692   5.757  18.570  0.00  0.00    +0.000 S 
ATOM     10  C   UNL     1       8.036   7.148  17.439  0.00  0.00    +0.000 C 
ATOM     11  C   UNL     1       6.745   7.973  17.369  0.00  0.00    +0.000 C 
BRANCH   8  12
ATOM     12  C   UNL     1       2.634   4.515  19.035  0.00  0.00    +0.000 A 
ATOM     13  C   UNL     1       2.192   4.539  20.365  0.00  0.00    +0.000 A 
ATOM     14  C   UNL     1       1.196   3.660  20.793  0.00  0.00    +0.000 A 
ATOM     15  C   UNL     1       0.657   2.734  19.904  0.00  0.00    +0.000 A 
ATOM     16  C   UNL     1       1.108   2.686  18.585  0.00  0.00    +0.000 A 
ATOM     17  C   UNL     1       2.091   3.579  18.146  0.00  0.00    +0.000 A 
ENDBRANCH   8  12
ENDBRANCH   1   2
BRANCH   1  18
ATOM     18  C   UNL     1       1.966   9.005  18.063  0.00  0.00    +0.000 C 
BRANCH  18  20
ATOM     19  O   UNL     1       0.607  10.229  19.606  0.00  0.00    +0.000 OA
ATOM     20  C   UNL     1       0.684   9.691  18.504  0.00  0.00    +0.000 C 
ATOM     21  N   UNL     1      -0.319   9.625  17.566  0.00  0.00    +0.000 N 
ATOM     22  C   UNL     1      -1.543  10.268  17.678  0.00  0.00    +0.000 A 
ATOM     23  N   UNL     1      -1.719  11.246  18.572  0.00  0.00    +0.000 NA
ATOM     24  C   UNL     1      -2.946  11.800  18.649  0.00  0.00    +0.000 A 
ATOM     25  C   UNL     1      -4.015  11.425  17.866  0.00  0.00    +0.000 A 
ATOM     26  C   UNL     1      -3.711  10.433  16.954  0.00  0.00    +0.000 A 
ATOM     27  N   UNL     1      -2.490   9.850  16.827  0.00  0.00    +0.000 NA
ATOM     28  H   UNL     1      -0.280   8.950  16.817  0.00  0.00    +0.000 HD
BRANCH  25  29
ATOM     29  C   UNL     1      -5.330  12.020  18.013  0.00  0.00    +0.000 A 
ATOM     30  C   UNL     1      -6.146  12.775  17.191  0.00  0.00    +0.000 A 
ATOM     31  C   UNL     1      -7.312  13.075  17.938  0.00  0.00    +0.000 A 
ATOM     32  C   UNL     1      -7.138  12.489  19.166  0.00  0.00    +0.000 A 
ATOM     33  O   UNL     1      -5.944  11.844  19.222  0.00  0.00    +0.000 OA
ENDBRANCH  25  29
ENDBRANCH  18  20
ENDBRANCH   1  18
TORSDOF 5
ENDMDL
MODEL 9
REMARK VINA RESULT:      -8.2      3.915     10.367
REMARK  Name = 
REMARK  5 active torsions:
REMARK  status: ('A' for Active; 'I' for Inactive)
REMARK    1  A    between atoms: C_2  and  C_3
REMARK    2  A    between atoms: C_3  and  S_4
REMARK    3  A    between atoms: S_4  and  C_5
REMARK    4  A    between atoms: N_11  and  C_12
REMARK    5  A    between atoms: C_25  and  C_26
REMARK                            x       y       z     vdW  Elec       q    Type
REMARK                         _______ _______ _______ _____ _____    ______ ____
ROOT
ATOM      1  S   UNL     1      -1.429  12.661  19.592  0.00  0.00    +0.000 S 
ENDROOT
BRANCH   1   2
ATOM      2  C   UNL     1      -3.118  12.458  20.048  0.00  0.00    +0.000 A 
ATOM      3  N   UNL     1      -3.488  12.989  21.177  0.00  0.00    +0.000 NA
ATOM      4  C   UNL     1      -4.831  12.982  21.435  0.00  0.00    +0.000 A 
ATOM      5  C   UNL     1      -5.767  12.486  20.628  0.00  0.00    +0.000 A 
ATOM      6  C   UNL     1      -5.372  11.860  19.351  0.00  0.00    +0.000 A 
ATOM      7  O   UNL     1      -6.228  11.384  18.601  0.00  0.00    +0.000 OA
ATOM      8  N   UNL     1      -3.988  11.856  19.130  0.00  0.00    +0.000 N 
ATOM      9  S   UNL     1      -7.389  12.681  21.159  0.00  0.00    +0.000 S 
ATOM     10  C   UNL     1      -6.836  13.208  22.817  0.00  0.00    +0.000 C 
ATOM     11  C   UNL     1      -5.377  13.653  22.661  0.00  0.00    +0.000 C 
BRANCH   8  12
ATOM     12  C   UNL     1      -3.541  11.230  17.929  0.00  0.00    +0.000 A 
ATOM     13  C   UNL     1      -4.092  11.611  16.698  0.00  0.00    +0.000 A 
ATOM     14  C   UNL     1      -3.673  10.997  15.517  0.00  0.00    +0.000 A 
ATOM     15  C   UNL     1      -2.724   9.978  15.563  0.00  0.00    +0.000 A 
ATOM     16  C   UNL     1      -2.189   9.575  16.786  0.00  0.00    +0.000 A 
ATOM     17  C   UNL     1      -2.590  10.203  17.969  0.00  0.00    +0.000 A 
ENDBRANCH   8  12
ENDBRANCH   1   2
BRANCH   1  18
ATOM     18  C   UNL     1      -0.581  12.293  21.148  0.00  0.00    +0.000 C 
BRANCH  18  20
ATOM     19  O   UNL     1       0.724  10.484  22.010  0.00  0.00    +0.000 OA
ATOM     20  C   UNL     1       0.293  11.059  21.013  0.00  0.00    +0.000 C 
ATOM     21  N   UNL     1       0.530  10.698  19.708  0.00  0.00    +0.000 N 
ATOM     22  C   UNL     1       1.200   9.548  19.320  0.00  0.00    +0.000 A 
ATOM     23  N   UNL     1       1.402   8.552  20.188  0.00  0.00    +0.000 NA
ATOM     24  C   UNL     1       2.093   7.480  19.750  0.00  0.00    +0.000 A 
ATOM     25  C   UNL     1       2.594   7.351  18.473  0.00  0.00    +0.000 A 
ATOM     26  C   UNL     1       2.296   8.422  17.652  0.00  0.00    +0.000 A 
ATOM     27  N   UNL     1       1.594   9.518  18.039  0.00  0.00    +0.000 NA
ATOM     28  H   UNL     1       0.378  11.355  18.957  0.00  0.00    +0.000 HD
BRANCH  25  29
ATOM     29  C   UNL     1       3.370   6.198  18.058  0.00  0.00    +0.000 A 
ATOM     30  C   UNL     1       3.465   4.889  18.495  0.00  0.00    +0.000 A 
ATOM     31  C   UNL     1       4.435   4.256  17.681  0.00  0.00    +0.000 A 
ATOM     32  C   UNL     1       4.873   5.212  16.799  0.00  0.00    +0.000 A 
ATOM     33  O   UNL     1       4.232   6.390  17.016  0.00  0.00    +0.000 OA
ENDBRANCH  25  29
ENDBRANCH  18  20
ENDBRANCH   1  18
TORSDOF 5
ENDMDL
