MODEL 1
REMARK VINA RESULT:      -6.8      0.000      0.000
REMARK  Name = 
REMARK  4 active torsions:
REMARK  status: ('A' for Active; 'I' for Inactive)
REMARK    1  A    between atoms: C_6  and  C_7
REMARK    2  A    between atoms: C_7  and  N_8
REMARK    3  A    between atoms: C_13  and  C_14
REMARK    4  A    between atoms: C_14  and  N_15
REMARK                            x       y       z     vdW  Elec       q    Type
REMARK                         _______ _______ _______ _____ _____    ______ ____
ROOT
ATOM      1  N   UNL     1       3.839   4.415  18.934  0.00  0.00    +0.000 NA
ATOM      2  C   UNL     1       3.841   3.335  19.933  0.00  0.00    +0.000 C 
ATOM      3  C   UNL     1       2.563   2.498  20.013  0.00  0.00    +0.000 C 
ATOM      4  C   UNL     1       1.313   3.359  19.999  0.00  0.00    +0.000 C 
ATOM      5  C   UNL     1       1.361   4.276  18.785  0.00  0.00    +0.000 C 
ATOM      6  C   UNL     1       2.581   5.218  18.825  0.00  0.00    +0.000 C 
ENDROOT
BRANCH   1   7
ATOM      7  C   UNL     1       5.034   5.276  19.081  0.00  0.00    +0.000 C 
BRANCH   7  13
ATOM      8 CL   UNL     1       4.805   6.616  15.955  0.00  0.00    +0.000 Cl
ATOM      9  C   UNL     1       5.981   5.627  16.700  0.00  0.00    +0.000 A 
ATOM     10  S   UNL     1       7.389   5.160  15.871  0.00  0.00    +0.000 S 
ATOM     11  N   UNL     1       7.984   4.308  17.186  0.00  0.00    +0.000 NA
ATOM     12  N   UNL     1       7.172   4.346  18.230  0.00  0.00    +0.000 NA
ATOM     13  C   UNL     1       6.018   5.097  17.971  0.00  0.00    +0.000 A 
ENDBRANCH   7  13
ENDBRANCH   1   7
BRANCH   6  14
ATOM     14  C   UNL     1       2.392   6.364  19.864  0.00  0.00    +0.000 C 
BRANCH  14  15
ATOM     15  N   UNL     1       2.158   7.689  19.299  0.00  0.00    +0.000 N 
ATOM     16  C   UNL     1       2.369   8.081  18.006  0.00  0.00    +0.000 A 
ATOM     17  C   UNL     1       1.780   9.324  17.877  0.00  0.00    +0.000 A 
ATOM     18  C   UNL     1       1.250   9.599  19.146  0.00  0.00    +0.000 A 
ATOM     19  N   UNL     1       1.478   8.610  20.019  0.00  0.00    +0.000 NA
ENDBRANCH  14  15
ENDBRANCH   6  14
TORSDOF 4
ENDMDL
MODEL 2
REMARK VINA RESULT:      -6.7      1.261      1.261
REMARK  Name = 
REMARK  4 active torsions:
REMARK  status: ('A' for Active; 'I' for Inactive)
REMARK    1  A    between atoms: C_6  and  C_7
REMARK    2  A    between atoms: C_7  and  N_8
REMARK    3  A    between atoms: C_13  and  C_14
REMARK    4  A    between atoms: C_14  and  N_15
REMARK                            x       y       z     vdW  Elec       q    Type
REMARK                         _______ _______ _______ _____ _____    ______ ____
ROOT
ATOM      1  N   UNL     1       3.752   3.984  18.571  0.00  0.00    +0.000 NA
ATOM      2  C   UNL     1       3.774   2.904  19.570  0.00  0.00    +0.000 C 
ATOM      3  C   UNL     1       2.434   2.217  19.841  0.00  0.00    +0.000 C 
ATOM      4  C   UNL     1       1.301   3.215  19.998  0.00  0.00    +0.000 C 
ATOM      5  C   UNL     1       1.278   4.129  18.781  0.00  0.00    +0.000 C 
ATOM      6  C   UNL     1       2.590   4.926  18.636  0.00  0.00    +0.000 C 
ENDROOT
BRANCH   1   7
ATOM      7  C   UNL     1       5.045   4.702  18.536  0.00  0.00    +0.000 C 
BRANCH   7  13
ATOM      8 CL   UNL     1       7.486   6.811  17.435  0.00  0.00    +0.000 Cl
ATOM      9  C   UNL     1       6.682   5.497  16.697  0.00  0.00    +0.000 A 
ATOM     10  S   UNL     1       7.083   4.990  15.126  0.00  0.00    +0.000 S 
ATOM     11  N   UNL     1       5.965   3.742  15.150  0.00  0.00    +0.000 NA
ATOM     12  N   UNL     1       5.288   3.683  16.286  0.00  0.00    +0.000 NA
ATOM     13  C   UNL     1       5.684   4.681  17.185  0.00  0.00    +0.000 A 
ENDBRANCH   7  13
ENDBRANCH   1   7
BRANCH   6  14
ATOM     14  C   UNL     1       2.684   6.078  19.680  0.00  0.00    +0.000 C 
BRANCH  14  15
ATOM     15  N   UNL     1       2.385   7.412  19.169  0.00  0.00    +0.000 N 
ATOM     16  C   UNL     1       2.585   7.870  17.896  0.00  0.00    +0.000 A 
ATOM     17  C   UNL     1       1.933   9.084  17.813  0.00  0.00    +0.000 A 
ATOM     18  C   UNL     1       1.378   9.276  19.086  0.00  0.00    +0.000 A 
ATOM     19  N   UNL     1       1.651   8.264  19.920  0.00  0.00    +0.000 NA
ENDBRANCH  14  15
ENDBRANCH   6  14
TORSDOF 4
ENDMDL
MODEL 3
REMARK VINA RESULT:      -6.7      2.729      4.519
REMARK  Name = 
REMARK  4 active torsions:
REMARK  status: ('A' for Active; 'I' for Inactive)
REMARK    1  A    between atoms: C_6  and  C_7
REMARK    2  A    between atoms: C_7  and  N_8
REMARK    3  A    between atoms: C_13  and  C_14
REMARK    4  A    between atoms: C_14  and  N_15
REMARK                            x       y       z     vdW  Elec       q    Type
REMARK                         _______ _______ _______ _____ _____    ______ ____
ROOT
ATOM      1  N   UNL     1       5.451   4.821  16.808  0.00  0.00    +0.000 NA
ATOM      2  C   UNL     1       4.909   6.054  16.215  0.00  0.00    +0.000 C 
ATOM      3  C   UNL     1       4.407   7.106  17.205  0.00  0.00    +0.000 C 
ATOM      4  C   UNL     1       3.559   6.497  18.308  0.00  0.00    +0.000 C 
ATOM      5  C   UNL     1       4.345   5.371  18.966  0.00  0.00    +0.000 C 
ATOM      6  C   UNL     1       4.692   4.251  17.965  0.00  0.00    +0.000 C 
ENDROOT
BRANCH   1   7
ATOM      7  C   UNL     1       5.718   3.804  15.766  0.00  0.00    +0.000 C 
BRANCH   7  13
ATOM      8 CL   UNL     1       5.242   3.207  12.444  0.00  0.00    +0.000 Cl
ATOM      9  C   UNL     1       6.402   4.129  13.293  0.00  0.00    +0.000 A 
ATOM     10  S   UNL     1       7.598   5.011  12.470  0.00  0.00    +0.000 S 
ATOM     11  N   UNL     1       8.256   5.612  13.889  0.00  0.00    +0.000 NA
ATOM     12  N   UNL     1       7.624   5.178  14.969  0.00  0.00    +0.000 NA
ATOM     13  C   UNL     1       6.560   4.327  14.648  0.00  0.00    +0.000 A 
ENDBRANCH   7  13
ENDBRANCH   1   7
BRANCH   6  14
ATOM     14  C   UNL     1       3.448   3.378  17.622  0.00  0.00    +0.000 C 
BRANCH  14  15
ATOM     15  N   UNL     1       2.565   3.077  18.745  0.00  0.00    +0.000 N 
ATOM     16  C   UNL     1       2.909   2.480  19.926  0.00  0.00    +0.000 A 
ATOM     17  C   UNL     1       1.825   2.630  20.767  0.00  0.00    +0.000 A 
ATOM     18  C   UNL     1       0.875   3.321  20.001  0.00  0.00    +0.000 A 
ATOM     19  N   UNL     1       1.316   3.595  18.766  0.00  0.00    +0.000 NA
ENDBRANCH  14  15
ENDBRANCH   6  14
TORSDOF 4
ENDMDL
MODEL 4
REMARK VINA RESULT:      -6.5      2.666      5.212
REMARK  Name = 
REMARK  4 active torsions:
REMARK  status: ('A' for Active; 'I' for Inactive)
REMARK    1  A    between atoms: C_6  and  C_7
REMARK    2  A    between atoms: C_7  and  N_8
REMARK    3  A    between atoms: C_13  and  C_14
REMARK    4  A    between atoms: C_14  and  N_15
REMARK                            x       y       z     vdW  Elec       q    Type
REMARK                         _______ _______ _______ _____ _____    ______ ____
ROOT
ATOM      1  N   UNL     1       2.794   4.958  18.889  0.00  0.00    +0.000 NA
ATOM      2  C   UNL     1       1.714   4.356  18.091  0.00  0.00    +0.000 C 
ATOM      3  C   UNL     1       1.539   2.844  18.237  0.00  0.00    +0.000 C 
ATOM      4  C   UNL     1       2.865   2.107  18.183  0.00  0.00    +0.000 C 
ATOM      5  C   UNL     1       3.805   2.710  19.217  0.00  0.00    +0.000 C 
ATOM      6  C   UNL     1       4.084   4.200  18.939  0.00  0.00    +0.000 C 
ENDROOT
BRANCH   1   7
ATOM      7  C   UNL     1       2.999   6.377  18.522  0.00  0.00    +0.000 C 
BRANCH   7  13
ATOM      8 CL   UNL     1       1.980   9.515  17.668  0.00  0.00    +0.000 Cl
ATOM      9  C   UNL     1       1.776   8.585  19.086  0.00  0.00    +0.000 A 
ATOM     10  S   UNL     1       0.888   9.179  20.407  0.00  0.00    +0.000 S 
ATOM     11  N   UNL     1       1.113   7.778  21.299  0.00  0.00    +0.000 NA
ATOM     12  N   UNL     1       1.835   6.873  20.656  0.00  0.00    +0.000 NA
ATOM     13  C   UNL     1       2.225   7.318  19.387  0.00  0.00    +0.000 A 
ENDBRANCH   7  13
ENDBRANCH   1   7
BRANCH   6  14
ATOM     14  C   UNL     1       5.053   4.392  17.735  0.00  0.00    +0.000 C 
BRANCH  14  15
ATOM     15  N   UNL     1       6.270   5.144  18.023  0.00  0.00    +0.000 N 
ATOM     16  C   UNL     1       6.709   6.273  17.390  0.00  0.00    +0.000 A 
ATOM     17  C   UNL     1       7.750   6.765  18.152  0.00  0.00    +0.000 A 
ATOM     18  C   UNL     1       7.868   5.862  19.217  0.00  0.00    +0.000 A 
ATOM     19  N   UNL     1       6.972   4.869  19.146  0.00  0.00    +0.000 NA
ENDBRANCH  14  15
ENDBRANCH   6  14
TORSDOF 4
ENDMDL
MODEL 5
REMARK VINA RESULT:      -6.5      3.551      6.298
REMARK  Name = 
REMARK  4 active torsions:
REMARK  status: ('A' for Active; 'I' for Inactive)
REMARK    1  A    between atoms: C_6  and  C_7
REMARK    2  A    between atoms: C_7  and  N_8
REMARK    3  A    between atoms: C_13  and  C_14
REMARK    4  A    between atoms: C_14  and  N_15
REMARK                            x       y       z     vdW  Elec       q    Type
REMARK                         _______ _______ _______ _____ _____    ______ ____
ROOT
ATOM      1  N   UNL     1       5.230   4.955  17.421  0.00  0.00    +0.000 NA
ATOM      2  C   UNL     1       5.744   4.601  18.753  0.00  0.00    +0.000 C 
ATOM      3  C   UNL     1       6.707   5.608  19.386  0.00  0.00    +0.000 C 
ATOM      4  C   UNL     1       7.754   6.095  18.401  0.00  0.00    +0.000 C 
ATOM      5  C   UNL     1       7.053   6.626  17.159  0.00  0.00    +0.000 C 
ATOM      6  C   UNL     1       6.219   5.534  16.459  0.00  0.00    +0.000 C 
ENDROOT
BRANCH   1   7
ATOM      7  C   UNL     1       4.474   3.829  16.827  0.00  0.00    +0.000 C 
BRANCH   7  13
ATOM      8 CL   UNL     1       2.014   5.860  18.028  0.00  0.00    +0.000 Cl
ATOM      9  C   UNL     1       2.286   4.179  18.161  0.00  0.00    +0.000 A 
ATOM     10  S   UNL     1       1.193   3.174  18.987  0.00  0.00    +0.000 S 
ATOM     11  N   UNL     1       2.083   1.792  18.662  0.00  0.00    +0.000 NA
ATOM     12  N   UNL     1       3.178   2.043  17.961  0.00  0.00    +0.000 NA
ATOM     13  C   UNL     1       3.312   3.404  17.665  0.00  0.00    +0.000 A 
ENDBRANCH   7  13
ENDBRANCH   1   7
BRANCH   6  14
ATOM     14  C   UNL     1       7.121   4.523  15.692  0.00  0.00    +0.000 C 
BRANCH  14  15
ATOM     15  N   UNL     1       6.920   4.474  14.247  0.00  0.00    +0.000 N 
ATOM     16  C   UNL     1       7.668   5.102  13.290  0.00  0.00    +0.000 A 
ATOM     17  C   UNL     1       7.271   4.573  12.078  0.00  0.00    +0.000 A 
ATOM     18  C   UNL     1       6.275   3.642  12.406  0.00  0.00    +0.000 A 
ATOM     19  N   UNL     1       6.052   3.577  13.725  0.00  0.00    +0.000 NA
ENDBRANCH  14  15
ENDBRANCH   6  14
TORSDOF 4
ENDMDL
MODEL 6
REMARK VINA RESULT:      -6.4      2.796      5.200
REMARK  Name = 
REMARK  4 active torsions:
REMARK  status: ('A' for Active; 'I' for Inactive)
REMARK    1  A    between atoms: C_6  and  C_7
REMARK    2  A    between atoms: C_7  and  N_8
REMARK    3  A    between atoms: C_13  and  C_14
REMARK    4  A    between atoms: C_14  and  N_15
REMARK                            x       y       z     vdW  Elec       q    Type
REMARK                         _______ _______ _______ _____ _____    ______ ____
ROOT
ATOM      1  N   UNL     1       2.696   5.224  18.671  0.00  0.00    +0.000 NA
ATOM      2  C   UNL     1       1.670   4.523  17.882  0.00  0.00    +0.000 C 
ATOM      3  C   UNL     1       1.250   3.148  18.405  0.00  0.00    +0.000 C 
ATOM      4  C   UNL     1       2.442   2.300  18.808  0.00  0.00    +0.000 C 
ATOM      5  C   UNL     1       3.296   3.087  19.792  0.00  0.00    +0.000 C 
ATOM      6  C   UNL     1       3.834   4.391  19.170  0.00  0.00    +0.000 C 
ENDROOT
BRANCH   1   7
ATOM      7  C   UNL     1       3.165   6.440  17.971  0.00  0.00    +0.000 C 
BRANCH   7  13
ATOM      8 CL   UNL     1       1.586   6.973  20.944  0.00  0.00    +0.000 Cl
ATOM      9  C   UNL     1       1.755   7.934  19.543  0.00  0.00    +0.000 A 
ATOM     10  S   UNL     1       1.100   9.500  19.466  0.00  0.00    +0.000 S 
ATOM     11  N   UNL     1       1.677   9.759  17.915  0.00  0.00    +0.000 NA
ATOM     12  N   UNL     1       2.341   8.719  17.435  0.00  0.00    +0.000 NA
ATOM     13  C   UNL     1       2.396   7.663  18.353  0.00  0.00    +0.000 A 
ENDBRANCH   7  13
ENDBRANCH   1   7
BRANCH   6  14
ATOM     14  C   UNL     1       4.992   4.116  18.165  0.00  0.00    +0.000 C 
BRANCH  14  15
ATOM     15  N   UNL     1       6.217   4.874  18.397  0.00  0.00    +0.000 N 
ATOM     16  C   UNL     1       6.829   5.736  17.530  0.00  0.00    +0.000 A 
ATOM     17  C   UNL     1       7.795   6.400  18.259  0.00  0.00    +0.000 A 
ATOM     18  C   UNL     1       7.694   5.865  19.551  0.00  0.00    +0.000 A 
ATOM     19  N   UNL     1       6.738   4.933  19.644  0.00  0.00    +0.000 NA
ENDBRANCH  14  15
ENDBRANCH   6  14
TORSDOF 4
ENDMDL
MODEL 7
REMARK VINA RESULT:      -6.4      3.032      5.587
REMARK  Name = 
REMARK  4 active torsions:
REMARK  status: ('A' for Active; 'I' for Inactive)
REMARK    1  A    between atoms: C_6  and  C_7
REMARK    2  A    between atoms: C_7  and  N_8
REMARK    3  A    between atoms: C_13  and  C_14
REMARK    4  A    between atoms: C_14  and  N_15
REMARK                            x       y       z     vdW  Elec       q    Type
REMARK                         _______ _______ _______ _____ _____    ______ ____
ROOT
ATOM      1  N   UNL     1       4.204   5.976  17.566  0.00  0.00    +0.000 NA
ATOM      2  C   UNL     1       5.591   6.447  17.712  0.00  0.00    +0.000 C 
ATOM      3  C   UNL     1       6.568   5.990  16.627  0.00  0.00    +0.000 C 
ATOM      4  C   UNL     1       6.421   4.513  16.309  0.00  0.00    +0.000 C 
ATOM      5  C   UNL     1       4.964   4.225  15.972  0.00  0.00    +0.000 C 
ATOM      6  C   UNL     1       4.027   4.548  17.153  0.00  0.00    +0.000 C 
ENDROOT
BRANCH   1   7
ATOM      7  C   UNL     1       3.402   6.309  18.765  0.00  0.00    +0.000 C 
BRANCH   7  13
ATOM      8 CL   UNL     1       1.328   7.693  21.089  0.00  0.00    +0.000 Cl
ATOM      9  C   UNL     1       1.771   8.173  19.511  0.00  0.00    +0.000 A 
ATOM     10  S   UNL     1       1.181   9.614  18.832  0.00  0.00    +0.000 S 
ATOM     11  N   UNL     1       2.035   9.394  17.407  0.00  0.00    +0.000 NA
ATOM     12  N   UNL     1       2.747   8.278  17.405  0.00  0.00    +0.000 NA
ATOM     13  C   UNL     1       2.608   7.564  18.601  0.00  0.00    +0.000 A 
ENDBRANCH   7  13
ENDBRANCH   1   7
BRANCH   6  14
ATOM     14  C   UNL     1       4.128   3.478  18.280  0.00  0.00    +0.000 C 
BRANCH  14  15
ATOM     15  N   UNL     1       2.853   3.001  18.807  0.00  0.00    +0.000 N 
ATOM     16  C   UNL     1       2.420   3.071  20.102  0.00  0.00    +0.000 A 
ATOM     17  C   UNL     1       1.081   2.734  20.082  0.00  0.00    +0.000 A 
ATOM     18  C   UNL     1       0.801   2.471  18.734  0.00  0.00    +0.000 A 
ATOM     19  N   UNL     1       1.876   2.628  17.949  0.00  0.00    +0.000 NA
ENDBRANCH  14  15
ENDBRANCH   6  14
TORSDOF 4
ENDMDL
MODEL 8
REMARK VINA RESULT:      -6.3      2.818      4.620
REMARK  Name = 
REMARK  4 active torsions:
REMARK  status: ('A' for Active; 'I' for Inactive)
REMARK    1  A    between atoms: C_6  and  C_7
REMARK    2  A    between atoms: C_7  and  N_8
REMARK    3  A    between atoms: C_13  and  C_14
REMARK    4  A    between atoms: C_14  and  N_15
REMARK                            x       y       z     vdW  Elec       q    Type
REMARK                         _______ _______ _______ _____ _____    ______ ____
ROOT
ATOM      1  N   UNL     1       4.620   4.263  17.621  0.00  0.00    +0.000 NA
ATOM      2  C   UNL     1       5.405   3.825  16.456  0.00  0.00    +0.000 C 
ATOM      3  C   UNL     1       6.843   4.344  16.386  0.00  0.00    +0.000 C 
ATOM      4  C   UNL     1       6.932   5.826  16.701  0.00  0.00    +0.000 C 
ATOM      5  C   UNL     1       6.259   6.086  18.041  0.00  0.00    +0.000 C 
ATOM      6  C   UNL     1       4.767   5.698  18.019  0.00  0.00    +0.000 C 
ENDROOT
BRANCH   1   7
ATOM      7  C   UNL     1       3.200   3.869  17.483  0.00  0.00    +0.000 C 
BRANCH   7  13
ATOM      8 CL   UNL     1       4.572   2.091  20.048  0.00  0.00    +0.000 Cl
ATOM      9  C   UNL     1       3.065   2.875  19.868  0.00  0.00    +0.000 A 
ATOM     10  S   UNL     1       1.930   2.900  21.131  0.00  0.00    +0.000 S 
ATOM     11  N   UNL     1       0.836   3.811  20.248  0.00  0.00    +0.000 NA
ATOM     12  N   UNL     1       1.276   4.101  19.033  0.00  0.00    +0.000 NA
ATOM     13  C   UNL     1       2.551   3.573  18.796  0.00  0.00    +0.000 A 
ENDBRANCH   7  13
ENDBRANCH   1   7
BRANCH   6  14
ATOM     14  C   UNL     1       3.913   6.733  17.227  0.00  0.00    +0.000 C 
BRANCH  14  15
ATOM     15  N   UNL     1       2.892   7.428  18.004  0.00  0.00    +0.000 N 
ATOM     16  C   UNL     1       2.535   7.183  19.301  0.00  0.00    +0.000 A 
ATOM     17  C   UNL     1       1.723   8.232  19.685  0.00  0.00    +0.000 A 
ATOM     18  C   UNL     1       1.642   9.052  18.550  0.00  0.00    +0.000 A 
ATOM     19  N   UNL     1       2.348   8.569  17.520  0.00  0.00    +0.000 NA
ENDBRANCH  14  15
ENDBRANCH   6  14
TORSDOF 4
ENDMDL
MODEL 9
REMARK VINA RESULT:      -6.3      2.805      5.228
REMARK  Name = 
REMARK  4 active torsions:
REMARK  status: ('A' for Active; 'I' for Inactive)
REMARK    1  A    between atoms: C_6  and  C_7
REMARK    2  A    between atoms: C_7  and  N_8
REMARK    3  A    between atoms: C_13  and  C_14
REMARK    4  A    between atoms: C_14  and  N_15
REMARK                            x       y       z     vdW  Elec       q    Type
REMARK                         _______ _______ _______ _____ _____    ______ ____
ROOT
ATOM      1  N   UNL     1       2.977   4.553  18.460  0.00  0.00    +0.000 NA
ATOM      2  C   UNL     1       2.079   3.684  17.682  0.00  0.00    +0.000 C 
ATOM      3  C   UNL     1       2.113   2.197  18.041  0.00  0.00    +0.000 C 
ATOM      4  C   UNL     1       3.531   1.679  18.199  0.00  0.00    +0.000 C 
ATOM      5  C   UNL     1       4.269   2.560  19.198  0.00  0.00    +0.000 C 
ATOM      6  C   UNL     1       4.353   4.024  18.720  0.00  0.00    +0.000 C 
ENDROOT
BRANCH   1   7
ATOM      7  C   UNL     1       3.008   5.922  17.899  0.00  0.00    +0.000 C 
BRANCH   7  13
ATOM      8 CL   UNL     1       2.012   5.409  21.118  0.00  0.00    +0.000 Cl
ATOM      9  C   UNL     1       1.950   6.778  20.099  0.00  0.00    +0.000 A 
ATOM     10  S   UNL     1       1.337   8.261  20.656  0.00  0.00    +0.000 S 
ATOM     11  N   UNL     1       1.630   9.029  19.195  0.00  0.00    +0.000 NA
ATOM     12  N   UNL     1       2.166   8.223  18.292  0.00  0.00    +0.000 NA
ATOM     13  C   UNL     1       2.356   6.929  18.791  0.00  0.00    +0.000 A 
ENDBRANCH   7  13
ENDBRANCH   1   7
BRANCH   6  14
ATOM     14  C   UNL     1       5.396   4.199  17.577  0.00  0.00    +0.000 C 
BRANCH  14  15
ATOM     15  N   UNL     1       6.483   5.131  17.858  0.00  0.00    +0.000 N 
ATOM     16  C   UNL     1       6.741   6.311  17.219  0.00  0.00    +0.000 A 
ATOM     17  C   UNL     1       7.696   6.962  17.975  0.00  0.00    +0.000 A 
ATOM     18  C   UNL     1       7.955   6.092  19.044  0.00  0.00    +0.000 A 
ATOM     19  N   UNL     1       7.223   4.972  18.979  0.00  0.00    +0.000 NA
ENDBRANCH  14  15
ENDBRANCH   6  14
TORSDOF 4
ENDMDL
