MODEL 1
REMARK VINA RESULT:      -7.1      0.000      0.000
REMARK  Name = 
REMARK  6 active torsions:
REMARK  status: ('A' for Active; 'I' for Inactive)
REMARK    1  A    between atoms: C_2  and  C_4
REMARK    2  A    between atoms: C_5  and  N_6
REMARK    3  A    between atoms: C_7  and  C_9
REMARK    4  A    between atoms: N_20  and  C_21
REMARK    5  A    between atoms: C_21  and  N_23
REMARK    6  A    between atoms: N_23  and  C_24
REMARK                            x       y       z     vdW  Elec       q    Type
REMARK                         _______ _______ _______ _____ _____    ______ ____
ROOT
ATOM      1  C   UNL     1       0.983   8.728  20.433  0.00  0.00    +0.000 A 
ATOM      2  C   UNL     1       0.934   9.713  19.450  0.00  0.00    +0.000 A 
ATOM      3  S   UNL     1       1.739   9.263  18.018  0.00  0.00    +0.000 S 
ATOM      4  C   UNL     1       2.330   7.832  18.726  0.00  0.00    +0.000 A 
ATOM      5  C   UNL     1       1.855   7.652  20.015  0.00  0.00    +0.000 A 
ATOM      6  C   UNL     1       2.166   6.393  20.783  0.00  0.00    +0.000 C 
ATOM      7  C   UNL     1       3.290   5.598  20.101  0.00  0.00    +0.000 C 
ATOM      8  N   UNL     1       3.111   5.549  18.638  0.00  0.00    +0.000 N 
ATOM      9  C   UNL     1       3.215   6.871  17.977  0.00  0.00    +0.000 C 
ENDROOT
BRANCH   1  11
ATOM     10  N   UNL     1       0.684   9.516  22.667  0.00  0.00    +0.000 N 
ATOM     11  C   UNL     1       0.196   8.724  21.662  0.00  0.00    +0.000 C 
ATOM     12  O   UNL     1      -0.917   8.207  21.760  0.00  0.00    +0.000 OA
ATOM     13  H   UNL     1       0.080   9.675  23.457  0.00  0.00    +0.000 HD
ATOM     14  H   UNL     1       1.471  10.121  22.517  0.00  0.00    +0.000 HD
ENDBRANCH   1  11
BRANCH   2  15
ATOM     15  N   UNL     1       0.349  10.959  19.395  0.00  0.00    +0.000 N 
ATOM     16  C   UNL     1       0.836  11.986  20.194  0.00  0.00    +0.000 C 
ATOM     17  O   UNL     1       1.778  11.863  20.978  0.00  0.00    +0.000 OA
ATOM     18  H   UNL     1      -0.089  11.202  18.520  0.00  0.00    +0.000 HD
BRANCH  16  19
ATOM     19  C   UNL     1       0.176  13.329  20.077  0.00  0.00    +0.000 A 
ATOM     20  C   UNL     1      -0.680  13.711  21.121  0.00  0.00    +0.000 A 
ATOM     21  C   UNL     1      -1.360  14.933  21.088  0.00  0.00    +0.000 A 
ATOM     22  C   UNL     1      -1.174  15.795  20.012  0.00  0.00    +0.000 A 
ATOM     23  C   UNL     1      -0.309  15.441  18.977  0.00  0.00    +0.000 A 
ATOM     24  C   UNL     1       0.371  14.211  19.006  0.00  0.00    +0.000 A 
ENDBRANCH  16  19
ENDBRANCH   2  15
BRANCH   8  25
ATOM     25  C   UNL     1       2.826   4.396  17.903  0.00  0.00    +0.000 C 
ATOM     26  S   UNL     1       1.238   3.950  17.539  0.00  0.00    +0.000 S 
BRANCH  25  27
ATOM     27  N   UNL     1       3.946   3.689  17.483  0.00  0.00    +0.000 N 
ATOM     28  H   UNL     1       3.989   2.703  17.686  0.00  0.00    +0.000 HD
BRANCH  27  29
ATOM     29  C   UNL     1       5.060   4.181  16.757  0.00  0.00    +0.000 A 
ATOM     30  C   UNL     1       6.247   4.465  17.443  0.00  0.00    +0.000 A 
ATOM     31  C   UNL     1       7.391   4.869  16.740  0.00  0.00    +0.000 A 
ATOM     32  C   UNL     1       7.366   4.953  15.348  0.00  0.00    +0.000 A 
ATOM     33  C   UNL     1       6.191   4.661  14.662  0.00  0.00    +0.000 A 
ATOM     34  C   UNL     1       5.044   4.286  15.365  0.00  0.00    +0.000 A 
ENDBRANCH  27  29
ENDBRANCH  25  27
ENDBRANCH   8  25
TORSDOF 6
ENDMDL
MODEL 2
REMARK VINA RESULT:      -7.0      0.198      1.239
REMARK  Name = 
REMARK  6 active torsions:
REMARK  status: ('A' for Active; 'I' for Inactive)
REMARK    1  A    between atoms: C_2  and  C_4
REMARK    2  A    between atoms: C_5  and  N_6
REMARK    3  A    between atoms: C_7  and  C_9
REMARK    4  A    between atoms: N_20  and  C_21
REMARK    5  A    between atoms: C_21  and  N_23
REMARK    6  A    between atoms: N_23  and  C_24
REMARK                            x       y       z     vdW  Elec       q    Type
REMARK                         _______ _______ _______ _____ _____    ______ ____
ROOT
ATOM      1  C   UNL     1       0.979   8.730  20.463  0.00  0.00    +0.000 A 
ATOM      2  C   UNL     1       0.895   9.706  19.473  0.00  0.00    +0.000 A 
ATOM      3  S   UNL     1       1.684   9.259  18.030  0.00  0.00    +0.000 S 
ATOM      4  C   UNL     1       2.313   7.845  18.739  0.00  0.00    +0.000 A 
ATOM      5  C   UNL     1       1.864   7.666  20.038  0.00  0.00    +0.000 A 
ATOM      6  C   UNL     1       2.211   6.419  20.809  0.00  0.00    +0.000 C 
ATOM      7  C   UNL     1       3.338   5.640  20.114  0.00  0.00    +0.000 C 
ATOM      8  N   UNL     1       3.135   5.577  18.655  0.00  0.00    +0.000 N 
ATOM      9  C   UNL     1       3.203   6.894  17.983  0.00  0.00    +0.000 C 
ENDROOT
BRANCH   1  11
ATOM     10  N   UNL     1       0.728   9.496  22.710  0.00  0.00    +0.000 N 
ATOM     11  C   UNL     1       0.213   8.721  21.705  0.00  0.00    +0.000 C 
ATOM     12  O   UNL     1      -0.904   8.216  21.816  0.00  0.00    +0.000 OA
ATOM     13  H   UNL     1       0.139   9.652  23.512  0.00  0.00    +0.000 HD
ATOM     14  H   UNL     1       1.519  10.092  22.553  0.00  0.00    +0.000 HD
ENDBRANCH   1  11
BRANCH   2  15
ATOM     15  N   UNL     1       0.286  10.940  19.419  0.00  0.00    +0.000 N 
ATOM     16  C   UNL     1       0.776  11.986  20.192  0.00  0.00    +0.000 C 
ATOM     17  O   UNL     1       1.741  11.890  20.950  0.00  0.00    +0.000 OA
ATOM     18  H   UNL     1      -0.180  11.164  18.553  0.00  0.00    +0.000 HD
BRANCH  16  19
ATOM     19  C   UNL     1       0.089  13.316  20.076  0.00  0.00    +0.000 A 
ATOM     20  C   UNL     1       0.659  14.251  19.197  0.00  0.00    +0.000 A 
ATOM     21  C   UNL     1       0.105  15.526  19.042  0.00  0.00    +0.000 A 
ATOM     22  C   UNL     1      -1.037  15.872  19.755  0.00  0.00    +0.000 A 
ATOM     23  C   UNL     1      -1.628  14.947  20.615  0.00  0.00    +0.000 A 
ATOM     24  C   UNL     1      -1.071  13.667  20.777  0.00  0.00    +0.000 A 
ENDBRANCH  16  19
ENDBRANCH   2  15
BRANCH   8  25
ATOM     25  C   UNL     1       2.858   4.413  17.934  0.00  0.00    +0.000 C 
ATOM     26  S   UNL     1       1.286   4.021  17.457  0.00  0.00    +0.000 S 
BRANCH  25  27
ATOM     27  N   UNL     1       3.976   3.646  17.626  0.00  0.00    +0.000 N 
ATOM     28  H   UNL     1       4.005   2.694  17.955  0.00  0.00    +0.000 HD
BRANCH  27  29
ATOM     29  C   UNL     1       5.107   4.030  16.861  0.00  0.00    +0.000 A 
ATOM     30  C   UNL     1       4.989   4.112  15.469  0.00  0.00    +0.000 A 
ATOM     31  C   UNL     1       6.063   4.574  14.695  0.00  0.00    +0.000 A 
ATOM     32  C   UNL     1       7.243   4.991  15.309  0.00  0.00    +0.000 A 
ATOM     33  C   UNL     1       7.360   4.922  16.694  0.00  0.00    +0.000 A 
ATOM     34  C   UNL     1       6.300   4.436  17.462  0.00  0.00    +0.000 A 
ENDBRANCH  27  29
ENDBRANCH  25  27
ENDBRANCH   8  25
TORSDOF 6
ENDMDL
MODEL 3
REMARK VINA RESULT:      -7.0      2.158      3.274
REMARK  Name = 
REMARK  6 active torsions:
REMARK  status: ('A' for Active; 'I' for Inactive)
REMARK    1  A    between atoms: C_2  and  C_4
REMARK    2  A    between atoms: C_5  and  N_6
REMARK    3  A    between atoms: C_7  and  C_9
REMARK    4  A    between atoms: N_20  and  C_21
REMARK    5  A    between atoms: C_21  and  N_23
REMARK    6  A    between atoms: N_23  and  C_24
REMARK                            x       y       z     vdW  Elec       q    Type
REMARK                         _______ _______ _______ _____ _____    ______ ____
ROOT
ATOM      1  C   UNL     1       1.766   8.290  19.016  0.00  0.00    +0.000 A 
ATOM      2  C   UNL     1       1.557   8.591  20.359  0.00  0.00    +0.000 A 
ATOM      3  S   UNL     1       1.835   7.263  21.389  0.00  0.00    +0.000 S 
ATOM      4  C   UNL     1       2.058   6.208  20.072  0.00  0.00    +0.000 A 
ATOM      5  C   UNL     1       2.004   6.871  18.856  0.00  0.00    +0.000 A 
ATOM      6  C   UNL     1       2.288   6.144  17.567  0.00  0.00    +0.000 C 
ATOM      7  C   UNL     1       2.279   4.623  17.783  0.00  0.00    +0.000 C 
ATOM      8  N   UNL     1       2.987   4.244  19.019  0.00  0.00    +0.000 N 
ATOM      9  C   UNL     1       2.341   4.741  20.256  0.00  0.00    +0.000 C 
ENDROOT
BRANCH   1  11
ATOM     10  N   UNL     1       0.635   9.796  17.549  0.00  0.00    +0.000 N 
ATOM     11  C   UNL     1       1.838   9.267  17.934  0.00  0.00    +0.000 C 
ATOM     12  O   UNL     1       2.892   9.735  17.504  0.00  0.00    +0.000 OA
ATOM     13  H   UNL     1       0.663  10.594  16.935  0.00  0.00    +0.000 HD
ATOM     14  H   UNL     1      -0.209   9.588  18.051  0.00  0.00    +0.000 HD
ENDBRANCH   1  11
BRANCH   2  15
ATOM     15  N   UNL     1       1.198   9.746  21.019  0.00  0.00    +0.000 N 
ATOM     16  C   UNL     1      -0.077  10.271  20.846  0.00  0.00    +0.000 C 
ATOM     17  O   UNL     1      -0.936   9.771  20.120  0.00  0.00    +0.000 OA
ATOM     18  H   UNL     1       1.671   9.920  21.892  0.00  0.00    +0.000 HD
BRANCH  16  19
ATOM     19  C   UNL     1      -0.424  11.517  21.608  0.00  0.00    +0.000 A 
ATOM     20  C   UNL     1       0.264  12.689  21.257  0.00  0.00    +0.000 A 
ATOM     21  C   UNL     1       0.027  13.894  21.928  0.00  0.00    +0.000 A 
ATOM     22  C   UNL     1      -0.915  13.939  22.949  0.00  0.00    +0.000 A 
ATOM     23  C   UNL     1      -1.623  12.789  23.295  0.00  0.00    +0.000 A 
ATOM     24  C   UNL     1      -1.384  11.576  22.625  0.00  0.00    +0.000 A 
ENDBRANCH  16  19
ENDBRANCH   2  15
BRANCH   8  25
ATOM     25  C   UNL     1       4.183   3.523  19.070  0.00  0.00    +0.000 C 
ATOM     26  S   UNL     1       4.460   2.352  20.255  0.00  0.00    +0.000 S 
BRANCH  25  27
ATOM     27  N   UNL     1       5.084   3.832  18.058  0.00  0.00    +0.000 N 
ATOM     28  H   UNL     1       5.071   3.270  17.222  0.00  0.00    +0.000 HD
BRANCH  27  29
ATOM     29  C   UNL     1       6.032   4.887  18.033  0.00  0.00    +0.000 A 
ATOM     30  C   UNL     1       5.881   5.914  17.094  0.00  0.00    +0.000 A 
ATOM     31  C   UNL     1       6.751   7.014  17.104  0.00  0.00    +0.000 A 
ATOM     32  C   UNL     1       7.747   7.112  18.074  0.00  0.00    +0.000 A 
ATOM     33  C   UNL     1       7.893   6.098  19.016  0.00  0.00    +0.000 A 
ATOM     34  C   UNL     1       7.045   4.989  18.988  0.00  0.00    +0.000 A 
ENDBRANCH  27  29
ENDBRANCH  25  27
ENDBRANCH   8  25
TORSDOF 6
ENDMDL
MODEL 4
REMARK VINA RESULT:      -7.0      5.882      8.497
REMARK  Name = 
REMARK  6 active torsions:
REMARK  status: ('A' for Active; 'I' for Inactive)
REMARK    1  A    between atoms: C_2  and  C_4
REMARK    2  A    between atoms: C_5  and  N_6
REMARK    3  A    between atoms: C_7  and  C_9
REMARK    4  A    between atoms: N_20  and  C_21
REMARK    5  A    between atoms: C_21  and  N_23
REMARK    6  A    between atoms: N_23  and  C_24
REMARK                            x       y       z     vdW  Elec       q    Type
REMARK                         _______ _______ _______ _____ _____    ______ ____
ROOT
ATOM      1  C   UNL     1      -0.719  12.179  21.651  0.00  0.00    +0.000 A 
ATOM      2  C   UNL     1      -0.518  13.557  21.674  0.00  0.00    +0.000 A 
ATOM      3  S   UNL     1      -0.688  14.280  20.140  0.00  0.00    +0.000 S 
ATOM      4  C   UNL     1      -0.848  12.767  19.377  0.00  0.00    +0.000 A 
ATOM      5  C   UNL     1      -0.856  11.721  20.285  0.00  0.00    +0.000 A 
ATOM      6  C   UNL     1      -1.100  10.305  19.830  0.00  0.00    +0.000 C 
ATOM      7  C   UNL     1      -0.979  10.192  18.302  0.00  0.00    +0.000 C 
ATOM      8  N   UNL     1      -1.644  11.316  17.619  0.00  0.00    +0.000 N 
ATOM      9  C   UNL     1      -1.023  12.633  17.887  0.00  0.00    +0.000 C 
ENDROOT
BRANCH   1  11
ATOM     10  N   UNL     1      -2.102  11.388  23.429  0.00  0.00    +0.000 N 
ATOM     11  C   UNL     1      -0.873  11.330  22.827  0.00  0.00    +0.000 C 
ATOM     12  O   UNL     1      -0.049  10.483  23.172  0.00  0.00    +0.000 OA
ATOM     13  H   UNL     1      -2.301  10.691  24.129  0.00  0.00    +0.000 HD
ATOM     14  H   UNL     1      -2.857  11.906  23.019  0.00  0.00    +0.000 HD
ENDBRANCH   1  11
BRANCH   2  15
ATOM     15  N   UNL     1      -0.236  14.450  22.685  0.00  0.00    +0.000 N 
ATOM     16  C   UNL     1      -1.265  14.945  23.475  0.00  0.00    +0.000 C 
ATOM     17  O   UNL     1      -2.450  14.641  23.335  0.00  0.00    +0.000 OA
ATOM     18  H   UNL     1       0.686  14.381  23.089  0.00  0.00    +0.000 HD
BRANCH  16  19
ATOM     19  C   UNL     1      -0.898  15.895  24.578  0.00  0.00    +0.000 A 
ATOM     20  C   UNL     1      -0.300  17.107  24.200  0.00  0.00    +0.000 A 
ATOM     21  C   UNL     1       0.100  18.045  25.158  0.00  0.00    +0.000 A 
ATOM     22  C   UNL     1      -0.111  17.783  26.508  0.00  0.00    +0.000 A 
ATOM     23  C   UNL     1      -0.725  16.594  26.898  0.00  0.00    +0.000 A 
ATOM     24  C   UNL     1      -1.123  15.648  25.938  0.00  0.00    +0.000 A 
ENDBRANCH  16  19
ENDBRANCH   2  15
BRANCH   8  25
ATOM     25  C   UNL     1      -2.784  11.206  16.819  0.00  0.00    +0.000 C 
ATOM     26  S   UNL     1      -2.838  10.160  15.494  0.00  0.00    +0.000 S 
BRANCH  25  27
ATOM     27  N   UNL     1      -3.852  11.997  17.227  0.00  0.00    +0.000 N 
ATOM     28  H   UNL     1      -4.044  12.841  16.711  0.00  0.00    +0.000 HD
BRANCH  27  29
ATOM     29  C   UNL     1      -4.757  11.749  18.291  0.00  0.00    +0.000 A 
ATOM     30  C   UNL     1      -4.592  12.438  19.498  0.00  0.00    +0.000 A 
ATOM     31  C   UNL     1      -5.521  12.280  20.535  0.00  0.00    +0.000 A 
ATOM     32  C   UNL     1      -6.638  11.464  20.358  0.00  0.00    +0.000 A 
ATOM     33  C   UNL     1      -6.811  10.785  19.156  0.00  0.00    +0.000 A 
ATOM     34  C   UNL     1      -5.870  10.922  18.133  0.00  0.00    +0.000 A 
ENDBRANCH  27  29
ENDBRANCH  25  27
ENDBRANCH   8  25
TORSDOF 6
ENDMDL
MODEL 5
REMARK VINA RESULT:      -6.9      2.191      3.439
REMARK  Name = 
REMARK  6 active torsions:
REMARK  status: ('A' for Active; 'I' for Inactive)
REMARK    1  A    between atoms: C_2  and  C_4
REMARK    2  A    between atoms: C_5  and  N_6
REMARK    3  A    between atoms: C_7  and  C_9
REMARK    4  A    between atoms: N_20  and  C_21
REMARK    5  A    between atoms: C_21  and  N_23
REMARK    6  A    between atoms: N_23  and  C_24
REMARK                            x       y       z     vdW  Elec       q    Type
REMARK                         _______ _______ _______ _____ _____    ______ ____
ROOT
ATOM      1  C   UNL     1       2.333   7.095  19.556  0.00  0.00    +0.000 A 
ATOM      2  C   UNL     1       1.836   8.085  18.711  0.00  0.00    +0.000 A 
ATOM      3  S   UNL     1       2.709   8.216  17.254  0.00  0.00    +0.000 S 
ATOM      4  C   UNL     1       3.878   7.097  17.782  0.00  0.00    +0.000 A 
ATOM      5  C   UNL     1       3.568   6.562  19.022  0.00  0.00    +0.000 A 
ATOM      6  C   UNL     1       4.413   5.469  19.623  0.00  0.00    +0.000 C 
ATOM      7  C   UNL     1       5.746   5.330  18.873  0.00  0.00    +0.000 C 
ATOM      8  N   UNL     1       5.559   5.403  17.412  0.00  0.00    +0.000 N 
ATOM      9  C   UNL     1       5.065   6.716  16.936  0.00  0.00    +0.000 C 
ENDROOT
BRANCH   1  11
ATOM     10  N   UNL     1       1.486   7.513  21.748  0.00  0.00    +0.000 N 
ATOM     11  C   UNL     1       1.664   6.592  20.750  0.00  0.00    +0.000 C 
ATOM     12  O   UNL     1       1.128   5.486  20.820  0.00  0.00    +0.000 OA
ATOM     13  H   UNL     1       0.878   7.252  22.507  0.00  0.00    +0.000 HD
ATOM     14  H   UNL     1       1.718   8.480  21.610  0.00  0.00    +0.000 HD
ENDBRANCH   1  11
BRANCH   2  15
ATOM     15  N   UNL     1       0.772   8.955  18.807  0.00  0.00    +0.000 N 
ATOM     16  C   UNL     1       0.789   9.963  19.762  0.00  0.00    +0.000 C 
ATOM     17  O   UNL     1       1.709  10.142  20.560  0.00  0.00    +0.000 OA
ATOM     18  H   UNL     1       0.253   9.111  17.956  0.00  0.00    +0.000 HD
BRANCH  16  19
ATOM     19  C   UNL     1      -0.385  10.898  19.806  0.00  0.00    +0.000 A 
ATOM     20  C   UNL     1      -1.290  10.834  18.735  0.00  0.00    +0.000 A 
ATOM     21  C   UNL     1      -2.400  11.683  18.676  0.00  0.00    +0.000 A 
ATOM     22  C   UNL     1      -2.623  12.597  19.699  0.00  0.00    +0.000 A 
ATOM     23  C   UNL     1      -1.746  12.658  20.782  0.00  0.00    +0.000 A 
ATOM     24  C   UNL     1      -0.628  11.808  20.842  0.00  0.00    +0.000 A 
ENDBRANCH  16  19
ENDBRANCH   2  15
BRANCH   8  25
ATOM     25  C   UNL     1       5.770   4.348  16.522  0.00  0.00    +0.000 C 
ATOM     26  S   UNL     1       6.744   4.526  15.153  0.00  0.00    +0.000 S 
BRANCH  25  27
ATOM     27  N   UNL     1       5.145   3.159  16.881  0.00  0.00    +0.000 N 
ATOM     28  H   UNL     1       5.664   2.301  16.784  0.00  0.00    +0.000 HD
BRANCH  27  29
ATOM     29  C   UNL     1       3.840   2.991  17.410  0.00  0.00    +0.000 A 
ATOM     30  C   UNL     1       3.651   2.118  18.488  0.00  0.00    +0.000 A 
ATOM     31  C   UNL     1       2.389   2.000  19.088  0.00  0.00    +0.000 A 
ATOM     32  C   UNL     1       1.323   2.779  18.640  0.00  0.00    +0.000 A 
ATOM     33  C   UNL     1       1.510   3.656  17.576  0.00  0.00    +0.000 A 
ATOM     34  C   UNL     1       2.760   3.753  16.961  0.00  0.00    +0.000 A 
ENDBRANCH  27  29
ENDBRANCH  25  27
ENDBRANCH   8  25
TORSDOF 6
ENDMDL
MODEL 6
REMARK VINA RESULT:      -6.9      3.543      9.336
REMARK  Name = 
REMARK  6 active torsions:
REMARK  status: ('A' for Active; 'I' for Inactive)
REMARK    1  A    between atoms: C_2  and  C_4
REMARK    2  A    between atoms: C_5  and  N_6
REMARK    3  A    between atoms: C_7  and  C_9
REMARK    4  A    between atoms: N_20  and  C_21
REMARK    5  A    between atoms: C_21  and  N_23
REMARK    6  A    between atoms: N_23  and  C_24
REMARK                            x       y       z     vdW  Elec       q    Type
REMARK                         _______ _______ _______ _____ _____    ______ ____
ROOT
ATOM      1  C   UNL     1       0.930  11.544  20.494  0.00  0.00    +0.000 A 
ATOM      2  C   UNL     1       0.943  10.161  20.661  0.00  0.00    +0.000 A 
ATOM      3  S   UNL     1      -0.277   9.608  21.714  0.00  0.00    +0.000 S 
ATOM      4  C   UNL     1      -0.733  11.196  22.121  0.00  0.00    +0.000 A 
ATOM      5  C   UNL     1      -0.023  12.145  21.403  0.00  0.00    +0.000 A 
ATOM      6  C   UNL     1      -0.349  13.611  21.527  0.00  0.00    +0.000 C 
ATOM      7  C   UNL     1      -1.256  13.869  22.741  0.00  0.00    +0.000 C 
ATOM      8  N   UNL     1      -2.326  12.860  22.845  0.00  0.00    +0.000 N 
ATOM      9  C   UNL     1      -1.832  11.489  23.108  0.00  0.00    +0.000 C 
ENDROOT
BRANCH   1  11
ATOM     10  N   UNL     1       1.188  12.199  18.213  0.00  0.00    +0.000 N 
ATOM     11  C   UNL     1       1.687  12.279  19.486  0.00  0.00    +0.000 C 
ATOM     12  O   UNL     1       2.597  13.063  19.751  0.00  0.00    +0.000 OA
ATOM     13  H   UNL     1       1.577  12.829  17.531  0.00  0.00    +0.000 HD
ATOM     14  H   UNL     1       0.313  11.745  18.025  0.00  0.00    +0.000 HD
ENDBRANCH   1  11
BRANCH   2  15
ATOM     15  N   UNL     1       1.722   9.157  20.130  0.00  0.00    +0.000 N 
ATOM     16  C   UNL     1       1.549   8.779  18.804  0.00  0.00    +0.000 C 
ATOM     17  O   UNL     1       0.723   9.285  18.044  0.00  0.00    +0.000 OA
ATOM     18  H   UNL     1       2.633   9.039  20.545  0.00  0.00    +0.000 HD
BRANCH  16  19
ATOM     19  C   UNL     1       2.441   7.696  18.269  0.00  0.00    +0.000 A 
ATOM     20  C   UNL     1       2.112   6.375  18.610  0.00  0.00    +0.000 A 
ATOM     21  C   UNL     1       2.899   5.301  18.180  0.00  0.00    +0.000 A 
ATOM     22  C   UNL     1       4.017   5.540  17.389  0.00  0.00    +0.000 A 
ATOM     23  C   UNL     1       4.345   6.845  17.023  0.00  0.00    +0.000 A 
ATOM     24  C   UNL     1       3.559   7.926  17.457  0.00  0.00    +0.000 A 
ENDBRANCH  16  19
ENDBRANCH   2  15
BRANCH   8  25
ATOM     25  C   UNL     1      -3.688  13.116  22.676  0.00  0.00    +0.000 C 
ATOM     26  S   UNL     1      -4.774  13.018  23.967  0.00  0.00    +0.000 S 
BRANCH  25  27
ATOM     27  N   UNL     1      -4.050  13.481  21.384  0.00  0.00    +0.000 N 
ATOM     28  H   UNL     1      -4.182  14.460  21.187  0.00  0.00    +0.000 HD
BRANCH  27  29
ATOM     29  C   UNL     1      -4.233  12.632  20.263  0.00  0.00    +0.000 A 
ATOM     30  C   UNL     1      -5.531  12.251  19.904  0.00  0.00    +0.000 A 
ATOM     31  C   UNL     1      -5.750  11.486  18.750  0.00  0.00    +0.000 A 
ATOM     32  C   UNL     1      -4.679  11.132  17.930  0.00  0.00    +0.000 A 
ATOM     33  C   UNL     1      -3.388  11.518  18.278  0.00  0.00    +0.000 A 
ATOM     34  C   UNL     1      -3.169  12.256  19.443  0.00  0.00    +0.000 A 
ENDBRANCH  27  29
ENDBRANCH  25  27
ENDBRANCH   8  25
TORSDOF 6
ENDMDL
MODEL 7
REMARK VINA RESULT:      -6.9      2.122      3.177
REMARK  Name = 
REMARK  6 active torsions:
REMARK  status: ('A' for Active; 'I' for Inactive)
REMARK    1  A    between atoms: C_2  and  C_4
REMARK    2  A    between atoms: C_5  and  N_6
REMARK    3  A    between atoms: C_7  and  C_9
REMARK    4  A    between atoms: N_20  and  C_21
REMARK    5  A    between atoms: C_21  and  N_23
REMARK    6  A    between atoms: N_23  and  C_24
REMARK                            x       y       z     vdW  Elec       q    Type
REMARK                         _______ _______ _______ _____ _____    ______ ____
ROOT
ATOM      1  C   UNL     1       1.144  10.379  19.660  0.00  0.00    +0.000 A 
ATOM      2  C   UNL     1       0.760  10.372  20.999  0.00  0.00    +0.000 A 
ATOM      3  S   UNL     1       1.000   8.861  21.750  0.00  0.00    +0.000 S 
ATOM      4  C   UNL     1       1.442   8.129  20.278  0.00  0.00    +0.000 A 
ATOM      5  C   UNL     1       1.488   9.040  19.235  0.00  0.00    +0.000 A 
ATOM      6  C   UNL     1       1.966   8.623  17.868  0.00  0.00    +0.000 C 
ATOM      7  C   UNL     1       2.029   7.092  17.752  0.00  0.00    +0.000 C 
ATOM      8  N   UNL     1       2.610   6.479  18.960  0.00  0.00    +0.000 N 
ATOM      9  C   UNL     1       1.794   6.669  20.181  0.00  0.00    +0.000 C 
ENDROOT
BRANCH   1  11
ATOM     10  N   UNL     1       0.142  11.947  18.164  0.00  0.00    +0.000 N 
ATOM     11  C   UNL     1       1.279  11.571  18.829  0.00  0.00    +0.000 C 
ATOM     12  O   UNL     1       2.266  12.306  18.842  0.00  0.00    +0.000 OA
ATOM     13  H   UNL     1       0.149  12.855  17.726  0.00  0.00    +0.000 HD
ATOM     14  H   UNL     1      -0.732  11.483  18.325  0.00  0.00    +0.000 HD
ENDBRANCH   1  11
BRANCH   2  15
ATOM     15  N   UNL     1       0.253  11.340  21.837  0.00  0.00    +0.000 N 
ATOM     16  C   UNL     1      -1.017  11.854  21.610  0.00  0.00    +0.000 C 
ATOM     17  O   UNL     1      -1.747  11.502  20.683  0.00  0.00    +0.000 OA
ATOM     18  H   UNL     1       0.602  11.330  22.784  0.00  0.00    +0.000 HD
BRANCH  16  19
ATOM     19  C   UNL     1      -1.530  12.889  22.568  0.00  0.00    +0.000 A 
ATOM     20  C   UNL     1      -0.709  14.004  22.798  0.00  0.00    +0.000 A 
ATOM     21  C   UNL     1      -1.091  15.008  23.694  0.00  0.00    +0.000 A 
ATOM     22  C   UNL     1      -2.308  14.913  24.359  0.00  0.00    +0.000 A 
ATOM     23  C   UNL     1      -3.145  13.822  24.125  0.00  0.00    +0.000 A 
ATOM     24  C   UNL     1      -2.763  12.809  23.228  0.00  0.00    +0.000 A 
ENDBRANCH  16  19
ENDBRANCH   2  15
BRANCH   8  25
ATOM     25  C   UNL     1       3.835   5.808  19.009  0.00  0.00    +0.000 C 
ATOM     26  S   UNL     1       4.019   4.362  19.862  0.00  0.00    +0.000 S 
BRANCH  25  27
ATOM     27  N   UNL     1       4.852   6.414  18.280  0.00  0.00    +0.000 N 
ATOM     28  H   UNL     1       5.152   7.335  18.557  0.00  0.00    +0.000 HD
BRANCH  27  29
ATOM     29  C   UNL     1       5.567   5.878  17.179  0.00  0.00    +0.000 A 
ATOM     30  C   UNL     1       6.752   5.172  17.417  0.00  0.00    +0.000 A 
ATOM     31  C   UNL     1       7.433   4.556  16.357  0.00  0.00    +0.000 A 
ATOM     32  C   UNL     1       6.913   4.609  15.064  0.00  0.00    +0.000 A 
ATOM     33  C   UNL     1       5.729   5.300  14.826  0.00  0.00    +0.000 A 
ATOM     34  C   UNL     1       5.067   5.937  15.877  0.00  0.00    +0.000 A 
ENDBRANCH  27  29
ENDBRANCH  25  27
ENDBRANCH   8  25
TORSDOF 6
ENDMDL
MODEL 8
REMARK VINA RESULT:      -6.9      3.908      9.848
REMARK  Name = 
REMARK  6 active torsions:
REMARK  status: ('A' for Active; 'I' for Inactive)
REMARK    1  A    between atoms: C_2  and  C_4
REMARK    2  A    between atoms: C_5  and  N_6
REMARK    3  A    between atoms: C_7  and  C_9
REMARK    4  A    between atoms: N_20  and  C_21
REMARK    5  A    between atoms: C_21  and  N_23
REMARK    6  A    between atoms: N_23  and  C_24
REMARK                            x       y       z     vdW  Elec       q    Type
REMARK                         _______ _______ _______ _____ _____    ______ ____
ROOT
ATOM      1  C   UNL     1       0.602  11.942  20.591  0.00  0.00    +0.000 A 
ATOM      2  C   UNL     1       0.647  10.588  20.914  0.00  0.00    +0.000 A 
ATOM      3  S   UNL     1      -0.583  10.122  21.997  0.00  0.00    +0.000 S 
ATOM      4  C   UNL     1      -1.091  11.733  22.211  0.00  0.00    +0.000 A 
ATOM      5  C   UNL     1      -0.389  12.614  21.405  0.00  0.00    +0.000 A 
ATOM      6  C   UNL     1      -0.756  14.074  21.355  0.00  0.00    +0.000 C 
ATOM      7  C   UNL     1      -1.698  14.442  22.512  0.00  0.00    +0.000 C 
ATOM      8  N   UNL     1      -2.744  13.421  22.707  0.00  0.00    +0.000 N 
ATOM      9  C   UNL     1      -2.221  12.103  23.135  0.00  0.00    +0.000 C 
ENDROOT
BRANCH   1  11
ATOM     10  N   UNL     1       0.773  12.543  18.287  0.00  0.00    +0.000 N 
ATOM     11  C   UNL     1       1.364  12.580  19.522  0.00  0.00    +0.000 C 
ATOM     12  O   UNL     1       2.370  13.262  19.713  0.00  0.00    +0.000 OA
ATOM     13  H   UNL     1       1.181  13.120  17.569  0.00  0.00    +0.000 HD
ATOM     14  H   UNL     1      -0.156  12.186  18.165  0.00  0.00    +0.000 HD
ENDBRANCH   1  11
BRANCH   2  15
ATOM     15  N   UNL     1       1.465   9.553  20.517  0.00  0.00    +0.000 N 
ATOM     16  C   UNL     1       1.345   9.032  19.235  0.00  0.00    +0.000 C 
ATOM     17  O   UNL     1       0.534   9.434  18.400  0.00  0.00    +0.000 OA
ATOM     18  H   UNL     1       2.364   9.503  20.970  0.00  0.00    +0.000 HD
BRANCH  16  19
ATOM     19  C   UNL     1       2.277   7.922  18.846  0.00  0.00    +0.000 A 
ATOM     20  C   UNL     1       2.368   6.831  19.724  0.00  0.00    +0.000 A 
ATOM     21  C   UNL     1       3.229   5.761  19.460  0.00  0.00    +0.000 A 
ATOM     22  C   UNL     1       3.998   5.766  18.302  0.00  0.00    +0.000 A 
ATOM     23  C   UNL     1       3.903   6.832  17.408  0.00  0.00    +0.000 A 
ATOM     24  C   UNL     1       3.042   7.910  17.673  0.00  0.00    +0.000 A 
ENDBRANCH  16  19
ENDBRANCH   2  15
BRANCH   8  25
ATOM     25  C   UNL     1      -4.108  13.616  22.482  0.00  0.00    +0.000 C 
ATOM     26  S   UNL     1      -4.828  15.133  22.671  0.00  0.00    +0.000 S 
BRANCH  25  27
ATOM     27  N   UNL     1      -4.791  12.479  22.065  0.00  0.00    +0.000 N 
ATOM     28  H   UNL     1      -4.874  11.711  22.712  0.00  0.00    +0.000 HD
BRANCH  27  29
ATOM     29  C   UNL     1      -5.433  12.261  20.820  0.00  0.00    +0.000 A 
ATOM     30  C   UNL     1      -4.693  12.399  19.640  0.00  0.00    +0.000 A 
ATOM     31  C   UNL     1      -5.278  12.104  18.400  0.00  0.00    +0.000 A 
ATOM     32  C   UNL     1      -6.589  11.634  18.337  0.00  0.00    +0.000 A 
ATOM     33  C   UNL     1      -7.325  11.485  19.509  0.00  0.00    +0.000 A 
ATOM     34  C   UNL     1      -6.750  11.806  20.740  0.00  0.00    +0.000 A 
ENDBRANCH  27  29
ENDBRANCH  25  27
ENDBRANCH   8  25
TORSDOF 6
ENDMDL
MODEL 9
REMARK VINA RESULT:      -6.9      2.778      4.242
REMARK  Name = 
REMARK  6 active torsions:
REMARK  status: ('A' for Active; 'I' for Inactive)
REMARK    1  A    between atoms: C_2  and  C_4
REMARK    2  A    between atoms: C_5  and  N_6
REMARK    3  A    between atoms: C_7  and  C_9
REMARK    4  A    between atoms: N_20  and  C_21
REMARK    5  A    between atoms: C_21  and  N_23
REMARK    6  A    between atoms: N_23  and  C_24
REMARK                            x       y       z     vdW  Elec       q    Type
REMARK                         _______ _______ _______ _____ _____    ______ ____
ROOT
ATOM      1  C   UNL     1       1.023  10.849  19.754  0.00  0.00    +0.000 A 
ATOM      2  C   UNL     1       0.591  10.668  21.066  0.00  0.00    +0.000 A 
ATOM      3  S   UNL     1       0.845   9.083  21.636  0.00  0.00    +0.000 S 
ATOM      4  C   UNL     1       1.361   8.548  20.104  0.00  0.00    +0.000 A 
ATOM      5  C   UNL     1       1.420   9.580  19.183  0.00  0.00    +0.000 A 
ATOM      6  C   UNL     1       1.960   9.346  17.795  0.00  0.00    +0.000 C 
ATOM      7  C   UNL     1       2.068   7.842  17.496  0.00  0.00    +0.000 C 
ATOM      8  N   UNL     1       2.622   7.098  18.642  0.00  0.00    +0.000 N 
ATOM      9  C   UNL     1       1.757   7.118  19.844  0.00  0.00    +0.000 C 
ENDROOT
BRANCH   1  11
ATOM     10  N   UNL     1       0.069  12.519  18.340  0.00  0.00    +0.000 N 
ATOM     11  C   UNL     1       1.156  12.136  19.080  0.00  0.00    +0.000 C 
ATOM     12  O   UNL     1       2.079  12.924  19.285  0.00  0.00    +0.000 OA
ATOM     13  H   UNL     1       0.054  13.470  18.009  0.00  0.00    +0.000 HD
ATOM     14  H   UNL     1      -0.781  11.986  18.351  0.00  0.00    +0.000 HD
ENDBRANCH   1  11
BRANCH   2  15
ATOM     15  N   UNL     1       0.027  11.514  21.995  0.00  0.00    +0.000 N 
ATOM     16  C   UNL     1      -1.244  12.028  21.778  0.00  0.00    +0.000 C 
ATOM     17  O   UNL     1      -1.927  11.783  20.783  0.00  0.00    +0.000 OA
ATOM     18  H   UNL     1       0.337  11.392  22.947  0.00  0.00    +0.000 HD
BRANCH  16  19
ATOM     19  C   UNL     1      -1.821  12.926  22.834  0.00  0.00    +0.000 A 
ATOM     20  C   UNL     1      -1.016  13.989  23.274  0.00  0.00    +0.000 A 
ATOM     21  C   UNL     1      -1.457  14.862  24.273  0.00  0.00    +0.000 A 
ATOM     22  C   UNL     1      -2.718  14.689  24.833  0.00  0.00    +0.000 A 
ATOM     23  C   UNL     1      -3.538  13.651  24.392  0.00  0.00    +0.000 A 
ATOM     24  C   UNL     1      -3.096  12.769  23.391  0.00  0.00    +0.000 A 
ENDBRANCH  16  19
ENDBRANCH   2  15
BRANCH   8  25
ATOM     25  C   UNL     1       3.862   6.456  18.658  0.00  0.00    +0.000 C 
ATOM     26  S   UNL     1       5.150   6.996  17.708  0.00  0.00    +0.000 S 
BRANCH  25  27
ATOM     27  N   UNL     1       3.941   5.378  19.532  0.00  0.00    +0.000 N 
ATOM     28  H   UNL     1       4.546   5.459  20.334  0.00  0.00    +0.000 HD
BRANCH  27  29
ATOM     29  C   UNL     1       3.237   4.149  19.459  0.00  0.00    +0.000 A 
ATOM     30  C   UNL     1       2.530   3.703  20.582  0.00  0.00    +0.000 A 
ATOM     31  C   UNL     1       1.753   2.538  20.511  0.00  0.00    +0.000 A 
ATOM     32  C   UNL     1       1.648   1.837  19.310  0.00  0.00    +0.000 A 
ATOM     33  C   UNL     1       2.340   2.284  18.189  0.00  0.00    +0.000 A 
ATOM     34  C   UNL     1       3.136   3.428  18.268  0.00  0.00    +0.000 A 
ENDBRANCH  27  29
ENDBRANCH  25  27
ENDBRANCH   8  25
TORSDOF 6
ENDMDL
