MODEL 1
REMARK VINA RESULT:      -8.8      0.000      0.000
REMARK  Name = 
REMARK  4 active torsions:
REMARK  status: ('A' for Active; 'I' for Inactive)
REMARK    1  A    between atoms: C_1  and  N_2
REMARK    2  A    between atoms: C_6  and  C_8
REMARK    3  A    between atoms: C_13  and  C_14
REMARK    4  A    between atoms: C_15  and  N_16
REMARK                            x       y       z     vdW  Elec       q    Type
REMARK                         _______ _______ _______ _____ _____    ______ ____
ROOT
ATOM      1  C   UNL     1       2.292   6.489  18.933  0.00  0.00    +0.000 A 
ATOM      2  C   UNL     1       1.990   6.668  20.292  0.00  0.00    +0.000 A 
ATOM      3  C   UNL     1       1.475   7.868  20.781  0.00  0.00    +0.000 A 
ATOM      4  C   UNL     1       1.401   8.912  19.869  0.00  0.00    +0.000 A 
ATOM      5  N   UNL     1       1.016  10.215  20.013  0.00  0.00    +0.000 N 
ATOM      6  C   UNL     1       1.158  10.847  18.802  0.00  0.00    +0.000 A 
ATOM      7  N   UNL     1       1.600   9.997  17.887  0.00  0.00    +0.000 NA
ATOM      8  C   UNL     1       1.775   8.803  18.536  0.00  0.00    +0.000 A 
ATOM      9  C   UNL     1       2.235   7.575  18.045  0.00  0.00    +0.000 A 
ATOM     10  H   UNL     1       0.737  10.668  20.873  0.00  0.00    +0.000 HD
ENDROOT
BRANCH   6  11
ATOM     11  C   UNL     1       0.826  12.226  18.691  0.00  0.00    +0.000 A 
ATOM     12  C   UNL     1       1.802  13.121  18.391  0.00  0.00    +0.000 A 
ATOM     13  C   UNL     1       1.481  14.570  18.455  0.00  0.00    +0.000 A 
ATOM     14  C   UNL     1       2.437  15.577  18.237  0.00  0.00    +0.000 A 
ATOM     15  C   UNL     1       2.118  16.922  18.424  0.00  0.00    +0.000 A 
ATOM     16  C   UNL     1       0.827  17.298  18.781  0.00  0.00    +0.000 A 
ATOM     17  C   UNL     1      -0.153  16.323  18.941  0.00  0.00    +0.000 A 
ATOM     18  C   UNL     1       0.177  14.977  18.794  0.00  0.00    +0.000 A 
ATOM     19  N   UNL     1      -0.813  14.016  18.999  0.00  0.00    +0.000 N 
ATOM     20  C   UNL     1      -0.584  12.676  18.942  0.00  0.00    +0.000 A 
ATOM     21  O   UNL     1      -1.509  11.878  19.085  0.00  0.00    +0.000 OA
ATOM     22  H   UNL     1      -1.763  14.299  19.200  0.00  0.00    +0.000 HD
BRANCH  12  23
ATOM     23  N   UNL     1       3.110  12.767  18.052  0.00  0.00    +0.000 N 
ATOM     24  H   UNL     1       3.140  12.356  17.106  0.00  0.00    +0.000 HD
ATOM     25  H   UNL     1       3.543  12.127  18.706  0.00  0.00    +0.000 HD
ENDBRANCH  12  23
ENDBRANCH   6  11
BRANCH   1  31
ATOM     26  C   UNL     1       7.144   4.959  15.008  0.00  0.00    +0.000 C 
ATOM     27  N   UNL     1       6.374   4.787  16.235  0.00  0.00    +0.000 NA
ATOM     28  C   UNL     1       5.222   3.879  16.028  0.00  0.00    +0.000 C 
ATOM     29  C   UNL     1       4.364   3.707  17.303  0.00  0.00    +0.000 C 
ATOM     30  N   UNL     1       3.995   5.002  17.880  0.00  0.00    +0.000 N 
ATOM     31  C   UNL     1       2.710   5.164  18.395  0.00  0.00    +0.000 C 
ATOM     32  O   UNL     1       1.886   4.255  18.421  0.00  0.00    +0.000 OA
ATOM     33  C   UNL     1       5.159   5.879  18.082  0.00  0.00    +0.000 C 
ATOM     34  C   UNL     1       5.899   6.085  16.749  0.00  0.00    +0.000 C 
ENDBRANCH   1  31
TORSDOF 3
ENDMDL
MODEL 2
REMARK VINA RESULT:      -8.0      2.823      3.875
REMARK  Name = 
REMARK  4 active torsions:
REMARK  status: ('A' for Active; 'I' for Inactive)
REMARK    1  A    between atoms: C_1  and  N_2
REMARK    2  A    between atoms: C_6  and  C_8
REMARK    3  A    between atoms: C_13  and  C_14
REMARK    4  A    between atoms: C_15  and  N_16
REMARK                            x       y       z     vdW  Elec       q    Type
REMARK                         _______ _______ _______ _____ _____    ______ ____
ROOT
ATOM      1  C   UNL     1       2.583   7.007  19.021  0.00  0.00    +0.000 A 
ATOM      2  C   UNL     1       2.262   7.671  17.829  0.00  0.00    +0.000 A 
ATOM      3  C   UNL     1       1.635   8.917  17.824  0.00  0.00    +0.000 A 
ATOM      4  C   UNL     1       1.236   9.398  19.064  0.00  0.00    +0.000 A 
ATOM      5  N   UNL     1       0.554  10.527  19.420  0.00  0.00    +0.000 N 
ATOM      6  C   UNL     1       0.382  10.520  20.782  0.00  0.00    +0.000 A 
ATOM      7  N   UNL     1       0.941   9.443  21.312  0.00  0.00    +0.000 NA
ATOM      8  C   UNL     1       1.454   8.730  20.260  0.00  0.00    +0.000 A 
ATOM      9  C   UNL     1       2.137   7.507  20.256  0.00  0.00    +0.000 A 
ATOM     10  H   UNL     1       0.175  11.225  18.792  0.00  0.00    +0.000 HD
ENDROOT
BRANCH   6  11
ATOM     11  C   UNL     1      -0.312  11.596  21.404  0.00  0.00    +0.000 A 
ATOM     12  C   UNL     1      -1.137  11.336  22.451  0.00  0.00    +0.000 A 
ATOM     13  C   UNL     1      -1.989  12.433  22.973  0.00  0.00    +0.000 A 
ATOM     14  C   UNL     1      -2.930  12.250  24.002  0.00  0.00    +0.000 A 
ATOM     15  C   UNL     1      -3.792  13.281  24.378  0.00  0.00    +0.000 A 
ATOM     16  C   UNL     1      -3.701  14.532  23.776  0.00  0.00    +0.000 A 
ATOM     17  C   UNL     1      -2.736  14.755  22.799  0.00  0.00    +0.000 A 
ATOM     18  C   UNL     1      -1.903  13.713  22.394  0.00  0.00    +0.000 A 
ATOM     19  N   UNL     1      -0.970  13.952  21.385  0.00  0.00    +0.000 N 
ATOM     20  C   UNL     1      -0.153  12.991  20.874  0.00  0.00    +0.000 A 
ATOM     21  O   UNL     1       0.682  13.274  20.016  0.00  0.00    +0.000 OA
ATOM     22  H   UNL     1      -0.870  14.879  20.993  0.00  0.00    +0.000 HD
BRANCH  12  23
ATOM     23  N   UNL     1      -1.260  10.082  23.056  0.00  0.00    +0.000 N 
ATOM     24  H   UNL     1      -2.025   9.544  22.621  0.00  0.00    +0.000 HD
ATOM     25  H   UNL     1      -1.408  10.125  24.057  0.00  0.00    +0.000 HD
ENDBRANCH  12  23
ENDBRANCH   6  11
BRANCH   1  31
ATOM     26  C   UNL     1       6.516   4.579  14.557  0.00  0.00    +0.000 C 
ATOM     27  N   UNL     1       6.213   4.988  15.923  0.00  0.00    +0.000 NA
ATOM     28  C   UNL     1       5.536   3.906  16.674  0.00  0.00    +0.000 C 
ATOM     29  C   UNL     1       5.167   4.323  18.117  0.00  0.00    +0.000 C 
ATOM     30  N   UNL     1       4.441   5.596  18.138  0.00  0.00    +0.000 N 
ATOM     31  C   UNL     1       3.374   5.743  19.022  0.00  0.00    +0.000 C 
ATOM     32  O   UNL     1       3.041   4.866  19.813  0.00  0.00    +0.000 OA
ATOM     33  C   UNL     1       5.140   6.654  17.392  0.00  0.00    +0.000 C 
ATOM     34  C   UNL     1       5.378   6.203  15.940  0.00  0.00    +0.000 C 
ENDBRANCH   1  31
TORSDOF 3
ENDMDL
MODEL 3
REMARK VINA RESULT:      -8.0      2.502      9.429
REMARK  Name = 
REMARK  4 active torsions:
REMARK  status: ('A' for Active; 'I' for Inactive)
REMARK    1  A    between atoms: C_1  and  N_2
REMARK    2  A    between atoms: C_6  and  C_8
REMARK    3  A    between atoms: C_13  and  C_14
REMARK    4  A    between atoms: C_15  and  N_16
REMARK                            x       y       z     vdW  Elec       q    Type
REMARK                         _______ _______ _______ _____ _____    ______ ____
ROOT
ATOM      1  C   UNL     1      -0.757  11.148  21.575  0.00  0.00    +0.000 A 
ATOM      2  C   UNL     1      -0.497  10.465  22.773  0.00  0.00    +0.000 A 
ATOM      3  C   UNL     1       0.371   9.375  22.828  0.00  0.00    +0.000 A 
ATOM      4  C   UNL     1       0.859   8.928  21.607  0.00  0.00    +0.000 A 
ATOM      5  N   UNL     1       1.661   7.871  21.285  0.00  0.00    +0.000 N 
ATOM      6  C   UNL     1       1.824   7.847  19.922  0.00  0.00    +0.000 A 
ATOM      7  N   UNL     1       1.172   8.855  19.362  0.00  0.00    +0.000 NA
ATOM      8  C   UNL     1       0.554   9.520  20.388  0.00  0.00    +0.000 A 
ATOM      9  C   UNL     1      -0.271  10.651  20.355  0.00  0.00    +0.000 A 
ATOM     10  H   UNL     1       2.027   7.176  21.923  0.00  0.00    +0.000 HD
ENDROOT
BRANCH   6  11
ATOM     11  C   UNL     1       2.620   6.826  19.331  0.00  0.00    +0.000 A 
ATOM     12  C   UNL     1       3.369   7.119  18.237  0.00  0.00    +0.000 A 
ATOM     13  C   UNL     1       4.051   6.009  17.525  0.00  0.00    +0.000 A 
ATOM     14  C   UNL     1       4.787   6.194  16.341  0.00  0.00    +0.000 A 
ATOM     15  C   UNL     1       5.311   5.106  15.644  0.00  0.00    +0.000 A 
ATOM     16  C   UNL     1       5.159   3.813  16.136  0.00  0.00    +0.000 A 
ATOM     17  C   UNL     1       4.488   3.611  17.338  0.00  0.00    +0.000 A 
ATOM     18  C   UNL     1       3.930   4.694  18.013  0.00  0.00    +0.000 A 
ATOM     19  N   UNL     1       3.228   4.460  19.196  0.00  0.00    +0.000 N 
ATOM     20  C   UNL     1       2.593   5.437  19.899  0.00  0.00    +0.000 A 
ATOM     21  O   UNL     1       2.029   5.175  20.961  0.00  0.00    +0.000 OA
ATOM     22  H   UNL     1       3.172   3.525  19.578  0.00  0.00    +0.000 HD
BRANCH  12  23
ATOM     23  N   UNL     1       3.517   8.406  17.713  0.00  0.00    +0.000 N 
ATOM     24  H   UNL     1       3.019   9.095  18.298  0.00  0.00    +0.000 HD
ATOM     25  H   UNL     1       3.206   8.495  16.754  0.00  0.00    +0.000 HD
ENDBRANCH  12  23
ENDBRANCH   6  11
BRANCH   1  31
ATOM     26  C   UNL     1       0.908  17.222  22.853  0.00  0.00    +0.000 C 
ATOM     27  N   UNL     1       0.305  16.201  22.003  0.00  0.00    +0.000 NA
ATOM     28  C   UNL     1      -1.107  15.952  22.377  0.00  0.00    +0.000 C 
ATOM     29  C   UNL     1      -1.763  14.846  21.518  0.00  0.00    +0.000 C 
ATOM     30  N   UNL     1      -0.941  13.634  21.484  0.00  0.00    +0.000 N 
ATOM     31  C   UNL     1      -1.574  12.394  21.548  0.00  0.00    +0.000 C 
ATOM     32  O   UNL     1      -2.794  12.273  21.593  0.00  0.00    +0.000 OA
ATOM     33  C   UNL     1       0.452  13.910  21.102  0.00  0.00    +0.000 C 
ATOM     34  C   UNL     1       1.066  14.941  22.066  0.00  0.00    +0.000 C 
ENDBRANCH   1  31
TORSDOF 3
ENDMDL
MODEL 4
REMARK VINA RESULT:      -7.9      3.794     10.226
REMARK  Name = 
REMARK  4 active torsions:
REMARK  status: ('A' for Active; 'I' for Inactive)
REMARK    1  A    between atoms: C_1  and  N_2
REMARK    2  A    between atoms: C_6  and  C_8
REMARK    3  A    between atoms: C_13  and  C_14
REMARK    4  A    between atoms: C_15  and  N_16
REMARK                            x       y       z     vdW  Elec       q    Type
REMARK                         _______ _______ _______ _____ _____    ______ ____
ROOT
ATOM      1  C   UNL     1      -1.209  12.537  21.969  0.00  0.00    +0.000 A 
ATOM      2  C   UNL     1      -1.698  12.753  20.672  0.00  0.00    +0.000 A 
ATOM      3  C   UNL     1      -1.357  11.919  19.607  0.00  0.00    +0.000 A 
ATOM      4  C   UNL     1      -0.407  10.945  19.881  0.00  0.00    +0.000 A 
ATOM      5  N   UNL     1       0.196  10.017  19.080  0.00  0.00    +0.000 N 
ATOM      6  C   UNL     1       1.094   9.305  19.837  0.00  0.00    +0.000 A 
ATOM      7  N   UNL     1       1.076   9.729  21.092  0.00  0.00    +0.000 NA
ATOM      8  C   UNL     1       0.169  10.755  21.130  0.00  0.00    +0.000 A 
ATOM      9  C   UNL     1      -0.227  11.561  22.204  0.00  0.00    +0.000 A 
ATOM     10  H   UNL     1       0.063   9.905  18.083  0.00  0.00    +0.000 HD
ENDROOT
BRANCH   6  11
ATOM     11  C   UNL     1       1.861   8.275  19.225  0.00  0.00    +0.000 A 
ATOM     12  C   UNL     1       2.055   7.108  19.892  0.00  0.00    +0.000 A 
ATOM     13  C   UNL     1       3.002   6.115  19.325  0.00  0.00    +0.000 A 
ATOM     14  C   UNL     1       3.331   4.912  19.973  0.00  0.00    +0.000 A 
ATOM     15  C   UNL     1       4.315   4.065  19.460  0.00  0.00    +0.000 A 
ATOM     16  C   UNL     1       4.955   4.371  18.263  0.00  0.00    +0.000 A 
ATOM     17  C   UNL     1       4.602   5.526  17.572  0.00  0.00    +0.000 A 
ATOM     18  C   UNL     1       3.649   6.392  18.106  0.00  0.00    +0.000 A 
ATOM     19  N   UNL     1       3.341   7.563  17.412  0.00  0.00    +0.000 N 
ATOM     20  C   UNL     1       2.473   8.504  17.874  0.00  0.00    +0.000 A 
ATOM     21  O   UNL     1       2.207   9.494  17.194  0.00  0.00    +0.000 OA
ATOM     22  H   UNL     1       3.768   7.749  16.514  0.00  0.00    +0.000 HD
BRANCH  12  23
ATOM     23  N   UNL     1       1.439   6.789  21.105  0.00  0.00    +0.000 N 
ATOM     24  H   UNL     1       1.004   5.855  21.055  0.00  0.00    +0.000 HD
ATOM     25  H   UNL     1       0.746   7.465  21.401  0.00  0.00    +0.000 HD
ENDBRANCH  12  23
ENDBRANCH   6  11
BRANCH   1  31
ATOM     26  C   UNL     1      -6.960  15.172  23.096  0.00  0.00    +0.000 C 
ATOM     27  N   UNL     1      -5.819  14.352  23.485  0.00  0.00    +0.000 NA
ATOM     28  C   UNL     1      -4.737  15.176  24.074  0.00  0.00    +0.000 C 
ATOM     29  C   UNL     1      -3.497  14.338  24.462  0.00  0.00    +0.000 C 
ATOM     30  N   UNL     1      -3.053  13.491  23.352  0.00  0.00    +0.000 N 
ATOM     31  C   UNL     1      -1.685  13.346  23.127  0.00  0.00    +0.000 C 
ATOM     32  O   UNL     1      -0.835  13.866  23.843  0.00  0.00    +0.000 OA
ATOM     33  C   UNL     1      -4.144  12.679  22.794  0.00  0.00    +0.000 C 
ATOM     34  C   UNL     1      -5.296  13.591  22.336  0.00  0.00    +0.000 C 
ENDBRANCH   1  31
TORSDOF 3
ENDMDL
MODEL 5
REMARK VINA RESULT:      -7.9      2.806      3.960
REMARK  Name = 
REMARK  4 active torsions:
REMARK  status: ('A' for Active; 'I' for Inactive)
REMARK    1  A    between atoms: C_1  and  N_2
REMARK    2  A    between atoms: C_6  and  C_8
REMARK    3  A    between atoms: C_13  and  C_14
REMARK    4  A    between atoms: C_15  and  N_16
REMARK                            x       y       z     vdW  Elec       q    Type
REMARK                         _______ _______ _______ _____ _____    ______ ____
ROOT
ATOM      1  C   UNL     1       2.583   7.315  19.007  0.00  0.00    +0.000 A 
ATOM      2  C   UNL     1       2.657   8.132  17.868  0.00  0.00    +0.000 A 
ATOM      3  C   UNL     1       1.978   9.347  17.787  0.00  0.00    +0.000 A 
ATOM      4  C   UNL     1       1.126   9.636  18.845  0.00  0.00    +0.000 A 
ATOM      5  N   UNL     1       0.276  10.683  19.062  0.00  0.00    +0.000 N 
ATOM      6  C   UNL     1      -0.369  10.479  20.256  0.00  0.00    +0.000 A 
ATOM      7  N   UNL     1       0.047   9.354  20.819  0.00  0.00    +0.000 NA
ATOM      8  C   UNL     1       0.955   8.812  19.948  0.00  0.00    +0.000 A 
ATOM      9  C   UNL     1       1.688   7.623  20.044  0.00  0.00    +0.000 A 
ATOM     10  H   UNL     1       0.093  11.451  18.429  0.00  0.00    +0.000 HD
ENDROOT
BRANCH   6  11
ATOM     11  C   UNL     1      -1.321  11.435  20.708  0.00  0.00    +0.000 A 
ATOM     12  C   UNL     1      -1.550  11.565  22.040  0.00  0.00    +0.000 A 
ATOM     13  C   UNL     1      -2.668  12.433  22.488  0.00  0.00    +0.000 A 
ATOM     14  C   UNL     1      -3.036  12.576  23.838  0.00  0.00    +0.000 A 
ATOM     15  C   UNL     1      -4.167  13.307  24.200  0.00  0.00    +0.000 A 
ATOM     16  C   UNL     1      -4.927  13.957  23.233  0.00  0.00    +0.000 A 
ATOM     17  C   UNL     1      -4.547  13.881  21.896  0.00  0.00    +0.000 A 
ATOM     18  C   UNL     1      -3.442  13.116  21.531  0.00  0.00    +0.000 A 
ATOM     19  N   UNL     1      -3.105  13.025  20.180  0.00  0.00    +0.000 N 
ATOM     20  C   UNL     1      -2.084  12.257  19.710  0.00  0.00    +0.000 A 
ATOM     21  O   UNL     1      -1.806  12.254  18.511  0.00  0.00    +0.000 OA
ATOM     22  H   UNL     1      -3.627  13.547  19.489  0.00  0.00    +0.000 HD
BRANCH  12  23
ATOM     23  N   UNL     1      -0.813  10.906  23.027  0.00  0.00    +0.000 N 
ATOM     24  H   UNL     1       0.188  10.884  22.778  0.00  0.00    +0.000 HD
ATOM     25  H   UNL     1      -1.130   9.963  23.213  0.00  0.00    +0.000 HD
ENDBRANCH  12  23
ENDBRANCH   6  11
BRANCH   1  31
ATOM     26  C   UNL     1       6.326   4.355  14.703  0.00  0.00    +0.000 C 
ATOM     27  N   UNL     1       6.091   4.955  16.011  0.00  0.00    +0.000 NA
ATOM     28  C   UNL     1       5.500   3.979  16.956  0.00  0.00    +0.000 C 
ATOM     29  C   UNL     1       5.204   4.597  18.342  0.00  0.00    +0.000 C 
ATOM     30  N   UNL     1       4.435   5.839  18.222  0.00  0.00    +0.000 N 
ATOM     31  C   UNL     1       3.418   6.088  19.143  0.00  0.00    +0.000 C 
ATOM     32  O   UNL     1       3.165   5.330  20.074  0.00  0.00    +0.000 OA
ATOM     33  C   UNL     1       5.049   6.792  17.285  0.00  0.00    +0.000 C 
ATOM     34  C   UNL     1       5.215   6.136  15.903  0.00  0.00    +0.000 C 
ENDBRANCH   1  31
TORSDOF 3
ENDMDL
MODEL 6
REMARK VINA RESULT:      -7.8      1.958      9.163
REMARK  Name = 
REMARK  4 active torsions:
REMARK  status: ('A' for Active; 'I' for Inactive)
REMARK    1  A    between atoms: C_1  and  N_2
REMARK    2  A    between atoms: C_6  and  C_8
REMARK    3  A    between atoms: C_13  and  C_14
REMARK    4  A    between atoms: C_15  and  N_16
REMARK                            x       y       z     vdW  Elec       q    Type
REMARK                         _______ _______ _______ _____ _____    ______ ____
ROOT
ATOM      1  C   UNL     1      -0.745  11.034  21.562  0.00  0.00    +0.000 A 
ATOM      2  C   UNL     1      -0.417  10.366  22.751  0.00  0.00    +0.000 A 
ATOM      3  C   UNL     1       0.490   9.308  22.778  0.00  0.00    +0.000 A 
ATOM      4  C   UNL     1       0.948   8.873  21.541  0.00  0.00    +0.000 A 
ATOM      5  N   UNL     1       1.776   7.843  21.193  0.00  0.00    +0.000 N 
ATOM      6  C   UNL     1       1.889   7.819  19.826  0.00  0.00    +0.000 A 
ATOM      7  N   UNL     1       1.182   8.801  19.286  0.00  0.00    +0.000 NA
ATOM      8  C   UNL     1       0.579   9.448  20.333  0.00  0.00    +0.000 A 
ATOM      9  C   UNL     1      -0.287  10.548  20.326  0.00  0.00    +0.000 A 
ATOM     10  H   UNL     1       2.189   7.165  21.821  0.00  0.00    +0.000 HD
ENDROOT
BRANCH   6  11
ATOM     11  C   UNL     1       2.699   6.824  19.209  0.00  0.00    +0.000 A 
ATOM     12  C   UNL     1       3.449   7.157  18.127  0.00  0.00    +0.000 A 
ATOM     13  C   UNL     1       4.146   6.075  17.387  0.00  0.00    +0.000 A 
ATOM     14  C   UNL     1       4.885   6.302  16.212  0.00  0.00    +0.000 A 
ATOM     15  C   UNL     1       5.423   5.240  15.486  0.00  0.00    +0.000 A 
ATOM     16  C   UNL     1       5.284   3.932  15.940  0.00  0.00    +0.000 A 
ATOM     17  C   UNL     1       4.611   3.688  17.133  0.00  0.00    +0.000 A 
ATOM     18  C   UNL     1       4.038   4.745  17.836  0.00  0.00    +0.000 A 
ATOM     19  N   UNL     1       3.334   4.470  19.009  0.00  0.00    +0.000 N 
ATOM     20  C   UNL     1       2.685   5.419  19.737  0.00  0.00    +0.000 A 
ATOM     21  O   UNL     1       2.121   5.121  20.789  0.00  0.00    +0.000 OA
ATOM     22  H   UNL     1       3.287   3.524  19.365  0.00  0.00    +0.000 HD
BRANCH  12  23
ATOM     23  N   UNL     1       3.585   8.459  17.641  0.00  0.00    +0.000 N 
ATOM     24  H   UNL     1       3.540   9.141  18.414  0.00  0.00    +0.000 HD
ATOM     25  H   UNL     1       2.899   8.707  16.938  0.00  0.00    +0.000 HD
ENDBRANCH  12  23
ENDBRANCH   6  11
BRANCH   1  31
ATOM     26  C   UNL     1       0.254  16.816  18.944  0.00  0.00    +0.000 C 
ATOM     27  N   UNL     1      -0.554  15.623  19.164  0.00  0.00    +0.000 NA
ATOM     28  C   UNL     1      -1.361  15.736  20.401  0.00  0.00    +0.000 C 
ATOM     29  C   UNL     1      -2.201  14.469  20.681  0.00  0.00    +0.000 C 
ATOM     30  N   UNL     1      -1.379  13.257  20.625  0.00  0.00    +0.000 N 
ATOM     31  C   UNL     1      -1.607  12.250  21.561  0.00  0.00    +0.000 C 
ATOM     32  O   UNL     1      -2.494  12.317  22.406  0.00  0.00    +0.000 OA
ATOM     33  C   UNL     1      -0.595  13.166  19.384  0.00  0.00    +0.000 C 
ATOM     34  C   UNL     1       0.290  14.415  19.230  0.00  0.00    +0.000 C 
ENDBRANCH   1  31
TORSDOF 3
ENDMDL
MODEL 7
REMARK VINA RESULT:      -7.8      3.446      9.830
REMARK  Name = 
REMARK  4 active torsions:
REMARK  status: ('A' for Active; 'I' for Inactive)
REMARK    1  A    between atoms: C_1  and  N_2
REMARK    2  A    between atoms: C_6  and  C_8
REMARK    3  A    between atoms: C_13  and  C_14
REMARK    4  A    between atoms: C_15  and  N_16
REMARK                            x       y       z     vdW  Elec       q    Type
REMARK                         _______ _______ _______ _____ _____    ______ ____
ROOT
ATOM      1  C   UNL     1      -1.541  11.804  21.847  0.00  0.00    +0.000 A 
ATOM      2  C   UNL     1      -1.880  12.134  20.526  0.00  0.00    +0.000 A 
ATOM      3  C   UNL     1      -1.368  11.433  19.435  0.00  0.00    +0.000 A 
ATOM      4  C   UNL     1      -0.407  10.475  19.730  0.00  0.00    +0.000 A 
ATOM      5  N   UNL     1       0.339   9.663  18.922  0.00  0.00    +0.000 N 
ATOM      6  C   UNL     1       1.176   8.914  19.712  0.00  0.00    +0.000 A 
ATOM      7  N   UNL     1       0.983   9.202  20.991  0.00  0.00    +0.000 NA
ATOM      8  C   UNL     1       0.024  10.180  21.016  0.00  0.00    +0.000 A 
ATOM      9  C   UNL     1      -0.543  10.851  22.106  0.00  0.00    +0.000 A 
ATOM     10  H   UNL     1       0.334   9.652  17.911  0.00  0.00    +0.000 HD
ENDROOT
BRANCH   6  11
ATOM     11  C   UNL     1       2.067   7.987  19.103  0.00  0.00    +0.000 A 
ATOM     12  C   UNL     1       2.337   6.815  19.733  0.00  0.00    +0.000 A 
ATOM     13  C   UNL     1       3.401   5.940  19.180  0.00  0.00    +0.000 A 
ATOM     14  C   UNL     1       3.810   4.745  19.797  0.00  0.00    +0.000 A 
ATOM     15  C   UNL     1       4.893   4.017  19.306  0.00  0.00    +0.000 A 
ATOM     16  C   UNL     1       5.561   4.433  18.158  0.00  0.00    +0.000 A 
ATOM     17  C   UNL     1       5.135   5.579  17.493  0.00  0.00    +0.000 A 
ATOM     18  C   UNL     1       4.079   6.328  18.009  0.00  0.00    +0.000 A 
ATOM     19  N   UNL     1       3.696   7.495  17.346  0.00  0.00    +0.000 N 
ATOM     20  C   UNL     1       2.721   8.331  17.796  0.00  0.00    +0.000 A 
ATOM     21  O   UNL     1       2.397   9.321  17.142  0.00  0.00    +0.000 OA
ATOM     22  H   UNL     1       4.147   7.759  16.480  0.00  0.00    +0.000 HD
BRANCH  12  23
ATOM     23  N   UNL     1       1.695   6.388  20.898  0.00  0.00    +0.000 N 
ATOM     24  H   UNL     1       0.759   6.013  20.679  0.00  0.00    +0.000 HD
ATOM     25  H   UNL     1       1.608   7.108  21.604  0.00  0.00    +0.000 HD
ENDBRANCH  12  23
ENDBRANCH   6  11
BRANCH   1  31
ATOM     26  C   UNL     1       0.172  17.054  25.133  0.00  0.00    +0.000 C 
ATOM     27  N   UNL     1      -0.797  16.256  24.390  0.00  0.00    +0.000 NA
ATOM     28  C   UNL     1      -1.486  15.284  25.271  0.00  0.00    +0.000 C 
ATOM     29  C   UNL     1      -2.494  14.397  24.505  0.00  0.00    +0.000 C 
ATOM     30  N   UNL     1      -1.880  13.787  23.322  0.00  0.00    +0.000 N 
ATOM     31  C   UNL     1      -2.197  12.466  23.010  0.00  0.00    +0.000 C 
ATOM     32  O   UNL     1      -3.000  11.804  23.661  0.00  0.00    +0.000 OA
ATOM     33  C   UNL     1      -1.212  14.775  22.462  0.00  0.00    +0.000 C 
ATOM     34  C   UNL     1      -0.153  15.544  23.272  0.00  0.00    +0.000 C 
ENDBRANCH   1  31
TORSDOF 3
ENDMDL
MODEL 8
REMARK VINA RESULT:      -7.8      2.924      9.754
REMARK  Name = 
REMARK  4 active torsions:
REMARK  status: ('A' for Active; 'I' for Inactive)
REMARK    1  A    between atoms: C_1  and  N_2
REMARK    2  A    between atoms: C_6  and  C_8
REMARK    3  A    between atoms: C_13  and  C_14
REMARK    4  A    between atoms: C_15  and  N_16
REMARK                            x       y       z     vdW  Elec       q    Type
REMARK                         _______ _______ _______ _____ _____    ______ ____
ROOT
ATOM      1  C   UNL     1      -1.136  11.318  21.072  0.00  0.00    +0.000 A 
ATOM      2  C   UNL     1      -0.796  10.802  22.331  0.00  0.00    +0.000 A 
ATOM      3  C   UNL     1       0.156   9.793  22.483  0.00  0.00    +0.000 A 
ATOM      4  C   UNL     1       0.648   9.244  21.306  0.00  0.00    +0.000 A 
ATOM      5  N   UNL     1       1.523   8.219  21.082  0.00  0.00    +0.000 N 
ATOM      6  C   UNL     1       1.655   8.048  19.727  0.00  0.00    +0.000 A 
ATOM      7  N   UNL     1       0.914   8.933  19.076  0.00  0.00    +0.000 NA
ATOM      8  C   UNL     1       0.270   9.665  20.039  0.00  0.00    +0.000 A 
ATOM      9  C   UNL     1      -0.641  10.719  19.902  0.00  0.00    +0.000 A 
ATOM     10  H   UNL     1       1.956   7.634  21.785  0.00  0.00    +0.000 HD
ENDROOT
BRANCH   6  11
ATOM     11  C   UNL     1       2.514   7.028  19.232  0.00  0.00    +0.000 A 
ATOM     12  C   UNL     1       3.293   7.284  18.150  0.00  0.00    +0.000 A 
ATOM     13  C   UNL     1       4.047   6.162  17.535  0.00  0.00    +0.000 A 
ATOM     14  C   UNL     1       4.821   6.304  16.370  0.00  0.00    +0.000 A 
ATOM     15  C   UNL     1       5.415   5.198  15.763  0.00  0.00    +0.000 A 
ATOM     16  C   UNL     1       5.296   3.933  16.330  0.00  0.00    +0.000 A 
ATOM     17  C   UNL     1       4.587   3.777  17.518  0.00  0.00    +0.000 A 
ATOM     18  C   UNL     1       3.960   4.876  18.101  0.00  0.00    +0.000 A 
ATOM     19  N   UNL     1       3.222   4.686  19.270  0.00  0.00    +0.000 N 
ATOM     20  C   UNL     1       2.521   5.677  19.886  0.00  0.00    +0.000 A 
ATOM     21  O   UNL     1       1.927   5.458  20.941  0.00  0.00    +0.000 OA
ATOM     22  H   UNL     1       3.189   3.775  19.709  0.00  0.00    +0.000 HD
BRANCH  12  23
ATOM     23  N   UNL     1       3.410   8.541  17.551  0.00  0.00    +0.000 N 
ATOM     24  H   UNL     1       4.074   9.131  18.075  0.00  0.00    +0.000 HD
ATOM     25  H   UNL     1       2.530   9.032  17.457  0.00  0.00    +0.000 HD
ENDBRANCH  12  23
ENDBRANCH   6  11
BRANCH   1  31
ATOM     26  C   UNL     1      -2.368  16.134  25.145  0.00  0.00    +0.000 C 
ATOM     27  N   UNL     1      -1.995  15.618  23.833  0.00  0.00    +0.000 NA
ATOM     28  C   UNL     1      -3.190  15.298  23.018  0.00  0.00    +0.000 C 
ATOM     29  C   UNL     1      -2.826  14.713  21.633  0.00  0.00    +0.000 C 
ATOM     30  N   UNL     1      -1.881  13.599  21.753  0.00  0.00    +0.000 N 
ATOM     31  C   UNL     1      -2.048  12.488  20.929  0.00  0.00    +0.000 C 
ATOM     32  O   UNL     1      -2.930  12.419  20.079  0.00  0.00    +0.000 OA
ATOM     33  C   UNL     1      -0.701  13.948  22.560  0.00  0.00    +0.000 C 
ATOM     34  C   UNL     1      -1.141  14.422  23.956  0.00  0.00    +0.000 C 
ENDBRANCH   1  31
TORSDOF 3
ENDMDL
MODEL 9
REMARK VINA RESULT:      -7.6      5.262      7.611
REMARK  Name = 
REMARK  4 active torsions:
REMARK  status: ('A' for Active; 'I' for Inactive)
REMARK    1  A    between atoms: C_1  and  N_2
REMARK    2  A    between atoms: C_6  and  C_8
REMARK    3  A    between atoms: C_13  and  C_14
REMARK    4  A    between atoms: C_15  and  N_16
REMARK                            x       y       z     vdW  Elec       q    Type
REMARK                         _______ _______ _______ _____ _____    ______ ____
ROOT
ATOM      1  C   UNL     1       5.584  15.326  19.380  0.00  0.00    +0.000 A 
ATOM      2  C   UNL     1       5.446  15.072  20.753  0.00  0.00    +0.000 A 
ATOM      3  C   UNL     1       4.346  14.389  21.270  0.00  0.00    +0.000 A 
ATOM      4  C   UNL     1       3.338  14.091  20.363  0.00  0.00    +0.000 A 
ATOM      5  N   UNL     1       2.117  13.499  20.528  0.00  0.00    +0.000 N 
ATOM      6  C   UNL     1       1.482  13.467  19.312  0.00  0.00    +0.000 A 
ATOM      7  N   UNL     1       2.253  13.996  18.373  0.00  0.00    +0.000 NA
ATOM      8  C   UNL     1       3.395  14.405  19.012  0.00  0.00    +0.000 A 
ATOM      9  C   UNL     1       4.532  15.038  18.496  0.00  0.00    +0.000 A 
ATOM     10  H   UNL     1       1.710  13.194  21.402  0.00  0.00    +0.000 HD
ENDROOT
BRANCH   6  11
ATOM     11  C   UNL     1       0.180  12.900  19.219  0.00  0.00    +0.000 A 
ATOM     12  C   UNL     1       0.013  11.724  18.562  0.00  0.00    +0.000 A 
ATOM     13  C   UNL     1      -1.367  11.236  18.316  0.00  0.00    +0.000 A 
ATOM     14  C   UNL     1      -1.651  10.072  17.581  0.00  0.00    +0.000 A 
ATOM     15  C   UNL     1      -2.964   9.717  17.275  0.00  0.00    +0.000 A 
ATOM     16  C   UNL     1      -4.029  10.485  17.739  0.00  0.00    +0.000 A 
ATOM     17  C   UNL     1      -3.776  11.608  18.521  0.00  0.00    +0.000 A 
ATOM     18  C   UNL     1      -2.462  11.984  18.791  0.00  0.00    +0.000 A 
ATOM     19  N   UNL     1      -2.234  13.136  19.544  0.00  0.00    +0.000 N 
ATOM     20  C   UNL     1      -0.993  13.626  19.813  0.00  0.00    +0.000 A 
ATOM     21  O   UNL     1      -0.855  14.621  20.523  0.00  0.00    +0.000 OA
ATOM     22  H   UNL     1      -3.012  13.656  19.927  0.00  0.00    +0.000 HD
BRANCH  12  23
ATOM     23  N   UNL     1       1.066  10.948  18.069  0.00  0.00    +0.000 N 
ATOM     24  H   UNL     1       1.862  10.959  18.726  0.00  0.00    +0.000 HD
ATOM     25  H   UNL     1       1.387  11.231  17.152  0.00  0.00    +0.000 HD
ENDBRANCH  12  23
ENDBRANCH   6  11
BRANCH   1  31
ATOM     26  C   UNL     1      11.207  12.607  17.871  0.00  0.00    +0.000 C 
ATOM     27  N   UNL     1      10.050  13.436  17.556  0.00  0.00    +0.000 NA
ATOM     28  C   UNL     1      10.245  14.832  18.012  0.00  0.00    +0.000 C 
ATOM     29  C   UNL     1       9.018  15.728  17.724  0.00  0.00    +0.000 C 
ATOM     30  N   UNL     1       7.780  15.117  18.216  0.00  0.00    +0.000 N 
ATOM     31  C   UNL     1       6.825  15.933  18.819  0.00  0.00    +0.000 C 
ATOM     32  O   UNL     1       6.958  17.148  18.921  0.00  0.00    +0.000 OA
ATOM     33  C   UNL     1       7.609  13.735  17.742  0.00  0.00    +0.000 C 
ATOM     34  C   UNL     1       8.822  12.884  18.156  0.00  0.00    +0.000 C 
ENDBRANCH   1  31
TORSDOF 3
ENDMDL
