MODEL 1
REMARK VINA RESULT:      -8.6      0.000      0.000
REMARK  Name = 
REMARK  9 active torsions:
REMARK  status: ('A' for Active; 'I' for Inactive)
REMARK    1  A    between atoms: C_2  and  C_3
REMARK    2  A    between atoms: C_2  and  C_21
REMARK    3  A    between atoms: C_4  and  C_5
REMARK    4  A    between atoms: C_8  and  O_9
REMARK    5  A    between atoms: C_16  and  O_17
REMARK    6  A    between atoms: C_24  and  O_25
REMARK    7  A    between atoms: O_25  and  C_26
REMARK    8  A    between atoms: C_26  and  C_27
REMARK    9  A    between atoms: C_27  and  N_28
REMARK                            x       y       z     vdW  Elec       q    Type
REMARK                         _______ _______ _______ _____ _____    ______ ____
ROOT
ATOM      1  C   UNL     1      -1.892  11.726  18.835  0.00  0.00    +0.000 C 
ATOM      2  C   UNL     1      -2.626  12.375  19.782  0.00  0.00    +0.000 C 
ATOM      3  C   UNL     1      -4.116  12.582  19.709  0.00  0.00    +0.000 C 
ATOM      4  C   UNL     1      -4.831  12.055  18.473  0.00  0.00    +0.000 C 
ATOM      5  C   UNL     1      -3.969  11.400  17.431  0.00  0.00    +0.000 A 
ATOM      6  C   UNL     1      -4.614  10.966  16.249  0.00  0.00    +0.000 A 
ATOM      7  C   UNL     1      -3.903  10.300  15.264  0.00  0.00    +0.000 A 
ATOM      8  C   UNL     1      -2.575   9.996  15.464  0.00  0.00    +0.000 A 
ATOM      9  C   UNL     1      -1.958  10.368  16.663  0.00  0.00    +0.000 A 
ATOM     10  C   UNL     1      -2.597  11.160  17.636  0.00  0.00    +0.000 A 
ENDROOT
BRANCH   2  11
ATOM     11  C   UNL     1      -2.070  12.968  21.030  0.00  0.00    +0.000 A 
ATOM     12  C   UNL     1      -1.908  12.185  22.181  0.00  0.00    +0.000 A 
ATOM     13  C   UNL     1      -1.462  12.766  23.375  0.00  0.00    +0.000 A 
ATOM     14  C   UNL     1      -1.184  14.130  23.415  0.00  0.00    +0.000 A 
ATOM     15  C   UNL     1      -1.319  14.915  22.277  0.00  0.00    +0.000 A 
ATOM     16  C   UNL     1      -1.749  14.334  21.083  0.00  0.00    +0.000 A 
BRANCH  14  17
ATOM     17  O   UNL     1      -0.786  14.741  24.567  0.00  0.00    +0.000 OA
ATOM     18  H   UNL     1      -0.192  15.472  24.336  0.00  0.00    +0.000 HD
ENDBRANCH  14  17
ENDBRANCH   2  11
BRANCH   1  20
ATOM     19  O   UNL     1       0.337  12.543  19.228  0.00  0.00    +0.000 OA
ATOM     20  C   UNL     1      -0.410  11.567  19.110  0.00  0.00    +0.000 C 
BRANCH  20  21
ATOM     21  C   UNL     1       0.240  10.272  19.402  0.00  0.00    +0.000 A 
ATOM     22  C   UNL     1       1.011   9.773  18.349  0.00  0.00    +0.000 A 
ATOM     23  C   UNL     1       1.774   8.631  18.512  0.00  0.00    +0.000 A 
ATOM     24  C   UNL     1       1.786   7.947  19.732  0.00  0.00    +0.000 A 
ATOM     25  C   UNL     1       1.001   8.430  20.786  0.00  0.00    +0.000 A 
ATOM     26  C   UNL     1       0.199   9.576  20.617  0.00  0.00    +0.000 A 
BRANCH  24  27
ATOM     27  O   UNL     1       2.531   6.809  19.965  0.00  0.00    +0.000 OA
BRANCH  27  28
ATOM     28  C   UNL     1       1.919   5.950  20.940  0.00  0.00    +0.000 C 
BRANCH  28  29
ATOM     29  C   UNL     1       1.293   4.681  20.361  0.00  0.00    +0.000 C 
BRANCH  29  30
ATOM     30  N   UNL     1       2.278   3.924  19.548  0.00  0.00    +0.000 NA
ATOM     31  C   UNL     1       3.082   2.986  20.349  0.00  0.00    +0.000 C 
ATOM     32  C   UNL     1       4.114   2.242  19.501  0.00  0.00    +0.000 C 
ATOM     33  C   UNL     1       3.454   1.518  18.340  0.00  0.00    +0.000 C 
ATOM     34  C   UNL     1       2.590   2.490  17.545  0.00  0.00    +0.000 C 
ATOM     35  C   UNL     1       1.598   3.231  18.452  0.00  0.00    +0.000 C 
ENDBRANCH  29  30
ENDBRANCH  28  29
ENDBRANCH  27  28
ENDBRANCH  24  27
ENDBRANCH  20  21
ENDBRANCH   1  20
BRANCH   7  36
ATOM     36  O   UNL     1      -4.482   9.890  14.102  0.00  0.00    +0.000 OA
ATOM     37  H   UNL     1      -4.934  10.646  13.695  0.00  0.00    +0.000 HD
ENDBRANCH   7  36
TORSDOF 9
ENDMDL
MODEL 2
REMARK VINA RESULT:      -8.5      1.850      2.098
REMARK  Name = 
REMARK  9 active torsions:
REMARK  status: ('A' for Active; 'I' for Inactive)
REMARK    1  A    between atoms: C_2  and  C_3
REMARK    2  A    between atoms: C_2  and  C_21
REMARK    3  A    between atoms: C_4  and  C_5
REMARK    4  A    between atoms: C_8  and  O_9
REMARK    5  A    between atoms: C_16  and  O_17
REMARK    6  A    between atoms: C_24  and  O_25
REMARK    7  A    between atoms: O_25  and  C_26
REMARK    8  A    between atoms: C_26  and  C_27
REMARK    9  A    between atoms: C_27  and  N_28
REMARK                            x       y       z     vdW  Elec       q    Type
REMARK                         _______ _______ _______ _____ _____    ______ ____
ROOT
ATOM      1  C   UNL     1      -1.906  11.724  18.875  0.00  0.00    +0.000 C 
ATOM      2  C   UNL     1      -2.643  12.382  19.814  0.00  0.00    +0.000 C 
ATOM      3  C   UNL     1      -4.130  12.600  19.727  0.00  0.00    +0.000 C 
ATOM      4  C   UNL     1      -4.838  12.076  18.486  0.00  0.00    +0.000 C 
ATOM      5  C   UNL     1      -3.973  11.411  17.454  0.00  0.00    +0.000 A 
ATOM      6  C   UNL     1      -4.611  10.978  16.267  0.00  0.00    +0.000 A 
ATOM      7  C   UNL     1      -3.897  10.304  15.291  0.00  0.00    +0.000 A 
ATOM      8  C   UNL     1      -2.573   9.990  15.503  0.00  0.00    +0.000 A 
ATOM      9  C   UNL     1      -1.963  10.361  16.707  0.00  0.00    +0.000 A 
ATOM     10  C   UNL     1      -2.604  11.160  17.671  0.00  0.00    +0.000 A 
ENDROOT
BRANCH   2  11
ATOM     11  C   UNL     1      -2.093  12.973  21.065  0.00  0.00    +0.000 A 
ATOM     12  C   UNL     1      -2.001  12.208  22.236  0.00  0.00    +0.000 A 
ATOM     13  C   UNL     1      -1.560  12.792  23.430  0.00  0.00    +0.000 A 
ATOM     14  C   UNL     1      -1.218  14.143  23.451  0.00  0.00    +0.000 A 
ATOM     15  C   UNL     1      -1.283  14.908  22.294  0.00  0.00    +0.000 A 
ATOM     16  C   UNL     1      -1.708  14.324  21.100  0.00  0.00    +0.000 A 
BRANCH  14  17
ATOM     17  O   UNL     1      -0.822  14.757  24.602  0.00  0.00    +0.000 OA
ATOM     18  H   UNL     1       0.147  14.760  24.629  0.00  0.00    +0.000 HD
ENDBRANCH  14  17
ENDBRANCH   2  11
BRANCH   1  20
ATOM     19  O   UNL     1       0.341  12.520  19.206  0.00  0.00    +0.000 OA
ATOM     20  C   UNL     1      -0.428  11.554  19.164  0.00  0.00    +0.000 C 
BRANCH  20  21
ATOM     21  C   UNL     1       0.193  10.272  19.557  0.00  0.00    +0.000 A 
ATOM     22  C   UNL     1       1.046   9.733  18.590  0.00  0.00    +0.000 A 
ATOM     23  C   UNL     1       1.790   8.598  18.858  0.00  0.00    +0.000 A 
ATOM     24  C   UNL     1       1.701   7.963  20.100  0.00  0.00    +0.000 A 
ATOM     25  C   UNL     1       0.836   8.486  21.068  0.00  0.00    +0.000 A 
ATOM     26  C   UNL     1       0.053   9.624  20.790  0.00  0.00    +0.000 A 
BRANCH  24  27
ATOM     27  O   UNL     1       2.423   6.834  20.436  0.00  0.00    +0.000 OA
BRANCH  27  28
ATOM     28  C   UNL     1       2.779   6.055  19.285  0.00  0.00    +0.000 C 
BRANCH  28  29
ATOM     29  C   UNL     1       4.088   5.277  19.427  0.00  0.00    +0.000 C 
BRANCH  29  30
ATOM     30  N   UNL     1       4.751   5.106  18.109  0.00  0.00    +0.000 NA
ATOM     31  C   UNL     1       4.639   6.298  17.253  0.00  0.00    +0.000 C 
ATOM     32  C   UNL     1       5.296   6.092  15.888  0.00  0.00    +0.000 C 
ATOM     33  C   UNL     1       6.751   5.678  16.034  0.00  0.00    +0.000 C 
ATOM     34  C   UNL     1       6.857   4.471  16.958  0.00  0.00    +0.000 C 
ATOM     35  C   UNL     1       6.152   4.724  18.297  0.00  0.00    +0.000 C 
ENDBRANCH  29  30
ENDBRANCH  28  29
ENDBRANCH  27  28
ENDBRANCH  24  27
ENDBRANCH  20  21
ENDBRANCH   1  20
BRANCH   7  36
ATOM     36  O   UNL     1      -4.469   9.895  14.125  0.00  0.00    +0.000 OA
ATOM     37  H   UNL     1      -5.429  10.022  14.187  0.00  0.00    +0.000 HD
ENDBRANCH   7  36
TORSDOF 9
ENDMDL
MODEL 3
REMARK VINA RESULT:      -8.4      0.818      1.422
REMARK  Name = 
REMARK  9 active torsions:
REMARK  status: ('A' for Active; 'I' for Inactive)
REMARK    1  A    between atoms: C_2  and  C_3
REMARK    2  A    between atoms: C_2  and  C_21
REMARK    3  A    between atoms: C_4  and  C_5
REMARK    4  A    between atoms: C_8  and  O_9
REMARK    5  A    between atoms: C_16  and  O_17
REMARK    6  A    between atoms: C_24  and  O_25
REMARK    7  A    between atoms: O_25  and  C_26
REMARK    8  A    between atoms: C_26  and  C_27
REMARK    9  A    between atoms: C_27  and  N_28
REMARK                            x       y       z     vdW  Elec       q    Type
REMARK                         _______ _______ _______ _____ _____    ______ ____
ROOT
ATOM      1  C   UNL     1      -2.005  11.758  18.788  0.00  0.00    +0.000 C 
ATOM      2  C   UNL     1      -2.787  12.361  19.727  0.00  0.00    +0.000 C 
ATOM      3  C   UNL     1      -4.284  12.498  19.627  0.00  0.00    +0.000 C 
ATOM      4  C   UNL     1      -4.949  11.952  18.372  0.00  0.00    +0.000 C 
ATOM      5  C   UNL     1      -4.037  11.351  17.340  0.00  0.00    +0.000 A 
ATOM      6  C   UNL     1      -4.639  10.900  16.141  0.00  0.00    +0.000 A 
ATOM      7  C   UNL     1      -3.878  10.280  15.163  0.00  0.00    +0.000 A 
ATOM      8  C   UNL     1      -2.541  10.038  15.385  0.00  0.00    +0.000 A 
ATOM      9  C   UNL     1      -1.965  10.424  16.601  0.00  0.00    +0.000 A 
ATOM     10  C   UNL     1      -2.659  11.173  17.569  0.00  0.00    +0.000 A 
ENDROOT
BRANCH   2  11
ATOM     11  C   UNL     1      -2.284  12.965  20.992  0.00  0.00    +0.000 A 
ATOM     12  C   UNL     1      -2.024  14.340  21.073  0.00  0.00    +0.000 A 
ATOM     13  C   UNL     1      -1.474  14.888  22.239  0.00  0.00    +0.000 A 
ATOM     14  C   UNL     1      -1.180  14.058  23.318  0.00  0.00    +0.000 A 
ATOM     15  C   UNL     1      -1.453  12.697  23.261  0.00  0.00    +0.000 A 
ATOM     16  C   UNL     1      -2.015  12.152  22.106  0.00  0.00    +0.000 A 
BRANCH  14  17
ATOM     17  O   UNL     1      -0.609  14.547  24.455  0.00  0.00    +0.000 OA
ATOM     18  H   UNL     1      -1.128  15.310  24.755  0.00  0.00    +0.000 HD
ENDBRANCH  14  17
ENDBRANCH   2  11
BRANCH   1  20
ATOM     19  O   UNL     1       0.169  12.675  19.260  0.00  0.00    +0.000 OA
ATOM     20  C   UNL     1      -0.524  11.666  19.090  0.00  0.00    +0.000 C 
BRANCH  20  21
ATOM     21  C   UNL     1       0.188  10.397  19.349  0.00  0.00    +0.000 A 
ATOM     22  C   UNL     1       1.030   9.994  18.309  0.00  0.00    +0.000 A 
ATOM     23  C   UNL     1       1.850   8.890  18.452  0.00  0.00    +0.000 A 
ATOM     24  C   UNL     1       1.851   8.149  19.638  0.00  0.00    +0.000 A 
ATOM     25  C   UNL     1       0.997   8.535  20.678  0.00  0.00    +0.000 A 
ATOM     26  C   UNL     1       0.138   9.642  20.527  0.00  0.00    +0.000 A 
BRANCH  24  27
ATOM     27  O   UNL     1       2.651   7.044  19.850  0.00  0.00    +0.000 OA
BRANCH  27  28
ATOM     28  C   UNL     1       2.976   6.366  18.627  0.00  0.00    +0.000 C 
BRANCH  28  29
ATOM     29  C   UNL     1       1.960   5.305  18.201  0.00  0.00    +0.000 C 
BRANCH  29  30
ATOM     30  N   UNL     1       2.057   4.100  19.063  0.00  0.00    +0.000 NA
ATOM     31  C   UNL     1       3.427   3.847  19.541  0.00  0.00    +0.000 C 
ATOM     32  C   UNL     1       3.514   2.584  20.397  0.00  0.00    +0.000 C 
ATOM     33  C   UNL     1       2.546   2.643  21.567  0.00  0.00    +0.000 C 
ATOM     34  C   UNL     1       1.140   2.949  21.062  0.00  0.00    +0.000 C 
ATOM     35  C   UNL     1       1.120   4.206  20.183  0.00  0.00    +0.000 C 
ENDBRANCH  29  30
ENDBRANCH  28  29
ENDBRANCH  27  28
ENDBRANCH  24  27
ENDBRANCH  20  21
ENDBRANCH   1  20
BRANCH   7  36
ATOM     36  O   UNL     1      -4.415   9.857  13.986  0.00  0.00    +0.000 OA
ATOM     37  H   UNL     1      -4.624   8.912  14.060  0.00  0.00    +0.000 HD
ENDBRANCH   7  36
TORSDOF 9
ENDMDL
MODEL 4
REMARK VINA RESULT:      -8.3      0.670      1.031
REMARK  Name = 
REMARK  9 active torsions:
REMARK  status: ('A' for Active; 'I' for Inactive)
REMARK    1  A    between atoms: C_2  and  C_3
REMARK    2  A    between atoms: C_2  and  C_21
REMARK    3  A    between atoms: C_4  and  C_5
REMARK    4  A    between atoms: C_8  and  O_9
REMARK    5  A    between atoms: C_16  and  O_17
REMARK    6  A    between atoms: C_24  and  O_25
REMARK    7  A    between atoms: O_25  and  C_26
REMARK    8  A    between atoms: C_26  and  C_27
REMARK    9  A    between atoms: C_27  and  N_28
REMARK                            x       y       z     vdW  Elec       q    Type
REMARK                         _______ _______ _______ _____ _____    ______ ____
ROOT
ATOM      1  C   UNL     1      -1.844  11.775  18.943  0.00  0.00    +0.000 C 
ATOM      2  C   UNL     1      -2.582  12.447  19.870  0.00  0.00    +0.000 C 
ATOM      3  C   UNL     1      -4.068  12.671  19.775  0.00  0.00    +0.000 C 
ATOM      4  C   UNL     1      -4.774  12.136  18.537  0.00  0.00    +0.000 C 
ATOM      5  C   UNL     1      -3.906  11.454  17.516  0.00  0.00    +0.000 A 
ATOM      6  C   UNL     1      -4.542  11.011  16.332  0.00  0.00    +0.000 A 
ATOM      7  C   UNL     1      -3.827  10.321  15.367  0.00  0.00    +0.000 A 
ATOM      8  C   UNL     1      -2.505  10.004  15.588  0.00  0.00    +0.000 A 
ATOM      9  C   UNL     1      -1.899  10.386  16.791  0.00  0.00    +0.000 A 
ATOM     10  C   UNL     1      -2.541  11.200  17.743  0.00  0.00    +0.000 A 
ENDROOT
BRANCH   2  11
ATOM     11  C   UNL     1      -2.035  13.051  21.117  0.00  0.00    +0.000 A 
ATOM     12  C   UNL     1      -1.893  12.282  22.280  0.00  0.00    +0.000 A 
ATOM     13  C   UNL     1      -1.456  12.874  23.471  0.00  0.00    +0.000 A 
ATOM     14  C   UNL     1      -1.166  14.237  23.497  0.00  0.00    +0.000 A 
ATOM     15  C   UNL     1      -1.281  15.008  22.347  0.00  0.00    +0.000 A 
ATOM     16  C   UNL     1      -1.703  14.415  21.156  0.00  0.00    +0.000 A 
BRANCH  14  17
ATOM     17  O   UNL     1      -0.776  14.858  24.646  0.00  0.00    +0.000 OA
ATOM     18  H   UNL     1      -1.414  15.560  24.846  0.00  0.00    +0.000 HD
ENDBRANCH  14  17
ENDBRANCH   2  11
BRANCH   1  20
ATOM     19  O   UNL     1       0.403  12.565  19.281  0.00  0.00    +0.000 OA
ATOM     20  C   UNL     1      -0.369  11.601  19.240  0.00  0.00    +0.000 C 
BRANCH  20  21
ATOM     21  C   UNL     1       0.246  10.319  19.643  0.00  0.00    +0.000 A 
ATOM     22  C   UNL     1       1.095   9.768  18.680  0.00  0.00    +0.000 A 
ATOM     23  C   UNL     1       1.833   8.631  18.956  0.00  0.00    +0.000 A 
ATOM     24  C   UNL     1       1.743   8.006  20.204  0.00  0.00    +0.000 A 
ATOM     25  C   UNL     1       0.880   8.542  21.168  0.00  0.00    +0.000 A 
ATOM     26  C   UNL     1       0.103   9.682  20.882  0.00  0.00    +0.000 A 
BRANCH  24  27
ATOM     27  O   UNL     1       2.458   6.877  20.549  0.00  0.00    +0.000 OA
BRANCH  27  28
ATOM     28  C   UNL     1       1.628   5.708  20.615  0.00  0.00    +0.000 C 
BRANCH  28  29
ATOM     29  C   UNL     1       2.374   4.420  20.968  0.00  0.00    +0.000 C 
BRANCH  29  30
ATOM     30  N   UNL     1       2.871   3.741  19.745  0.00  0.00    +0.000 NA
ATOM     31  C   UNL     1       1.873   3.710  18.663  0.00  0.00    +0.000 C 
ATOM     32  C   UNL     1       2.389   2.976  17.424  0.00  0.00    +0.000 C 
ATOM     33  C   UNL     1       3.691   3.582  16.928  0.00  0.00    +0.000 C 
ATOM     34  C   UNL     1       4.699   3.651  18.068  0.00  0.00    +0.000 C 
ATOM     35  C   UNL     1       4.116   4.366  19.294  0.00  0.00    +0.000 C 
ENDBRANCH  29  30
ENDBRANCH  28  29
ENDBRANCH  27  28
ENDBRANCH  24  27
ENDBRANCH  20  21
ENDBRANCH   1  20
BRANCH   7  36
ATOM     36  O   UNL     1      -4.395   9.902  14.203  0.00  0.00    +0.000 OA
ATOM     37  H   UNL     1      -4.806  10.664  13.764  0.00  0.00    +0.000 HD
ENDBRANCH   7  36
TORSDOF 9
ENDMDL
MODEL 5
REMARK VINA RESULT:      -8.2      1.788      2.223
REMARK  Name = 
REMARK  9 active torsions:
REMARK  status: ('A' for Active; 'I' for Inactive)
REMARK    1  A    between atoms: C_2  and  C_3
REMARK    2  A    between atoms: C_2  and  C_21
REMARK    3  A    between atoms: C_4  and  C_5
REMARK    4  A    between atoms: C_8  and  O_9
REMARK    5  A    between atoms: C_16  and  O_17
REMARK    6  A    between atoms: C_24  and  O_25
REMARK    7  A    between atoms: O_25  and  C_26
REMARK    8  A    between atoms: C_26  and  C_27
REMARK    9  A    between atoms: C_27  and  N_28
REMARK                            x       y       z     vdW  Elec       q    Type
REMARK                         _______ _______ _______ _____ _____    ______ ____
ROOT
ATOM      1  C   UNL     1      -2.006  12.012  18.950  0.00  0.00    +0.000 C 
ATOM      2  C   UNL     1      -2.799  12.547  19.920  0.00  0.00    +0.000 C 
ATOM      3  C   UNL     1      -4.304  12.564  19.876  0.00  0.00    +0.000 C 
ATOM      4  C   UNL     1      -4.969  11.972  18.641  0.00  0.00    +0.000 C 
ATOM      5  C   UNL     1      -4.051  11.448  17.574  0.00  0.00    +0.000 A 
ATOM      6  C   UNL     1      -4.658  10.955  16.394  0.00  0.00    +0.000 A 
ATOM      7  C   UNL     1      -3.886  10.401  15.386  0.00  0.00    +0.000 A 
ATOM      8  C   UNL     1      -2.527  10.265  15.559  0.00  0.00    +0.000 A 
ATOM      9  C   UNL     1      -1.940  10.692  16.755  0.00  0.00    +0.000 A 
ATOM     10  C   UNL     1      -2.656  11.380  17.752  0.00  0.00    +0.000 A 
ENDROOT
BRANCH   2  11
ATOM     11  C   UNL     1      -2.300  13.185  21.170  0.00  0.00    +0.000 A 
ATOM     12  C   UNL     1      -2.111  14.572  21.238  0.00  0.00    +0.000 A 
ATOM     13  C   UNL     1      -1.565  15.157  22.387  0.00  0.00    +0.000 A 
ATOM     14  C   UNL     1      -1.203  14.351  23.464  0.00  0.00    +0.000 A 
ATOM     15  C   UNL     1      -1.404  12.977  23.421  0.00  0.00    +0.000 A 
ATOM     16  C   UNL     1      -1.962  12.395  22.282  0.00  0.00    +0.000 A 
BRANCH  14  17
ATOM     17  O   UNL     1      -0.632  14.877  24.585  0.00  0.00    +0.000 OA
ATOM     18  H   UNL     1      -1.114  15.685  24.823  0.00  0.00    +0.000 HD
ENDBRANCH  14  17
ENDBRANCH   2  11
BRANCH   1  20
ATOM     19  O   UNL     1       0.095  13.094  19.398  0.00  0.00    +0.000 OA
ATOM     20  C   UNL     1      -0.512  12.037  19.199  0.00  0.00    +0.000 C 
BRANCH  20  21
ATOM     21  C   UNL     1       0.317  10.825  19.367  0.00  0.00    +0.000 A 
ATOM     22  C   UNL     1       0.093  10.145  20.568  0.00  0.00    +0.000 A 
ATOM     23  C   UNL     1       0.707   8.931  20.817  0.00  0.00    +0.000 A 
ATOM     24  C   UNL     1       1.569   8.361  19.876  0.00  0.00    +0.000 A 
ATOM     25  C   UNL     1       1.814   9.044  18.679  0.00  0.00    +0.000 A 
ATOM     26  C   UNL     1       1.214  10.295  18.432  0.00  0.00    +0.000 A 
BRANCH  24  27
ATOM     27  O   UNL     1       2.206   7.149  20.056  0.00  0.00    +0.000 OA
BRANCH  27  28
ATOM     28  C   UNL     1       2.682   6.596  18.819  0.00  0.00    +0.000 C 
BRANCH  28  29
ATOM     29  C   UNL     1       3.521   5.327  18.974  0.00  0.00    +0.000 C 
BRANCH  29  30
ATOM     30  N   UNL     1       4.872   5.508  18.385  0.00  0.00    +0.000 NA
ATOM     31  C   UNL     1       5.955   5.258  19.350  0.00  0.00    +0.000 C 
ATOM     32  C   UNL     1       7.337   5.482  18.736  0.00  0.00    +0.000 C 
ATOM     33  C   UNL     1       7.531   4.635  17.491  0.00  0.00    +0.000 C 
ATOM     34  C   UNL     1       6.380   4.869  16.519  0.00  0.00    +0.000 C 
ATOM     35  C   UNL     1       5.020   4.662  17.199  0.00  0.00    +0.000 C 
ENDBRANCH  29  30
ENDBRANCH  28  29
ENDBRANCH  27  28
ENDBRANCH  24  27
ENDBRANCH  20  21
ENDBRANCH   1  20
BRANCH   7  36
ATOM     36  O   UNL     1      -4.430   9.939  14.226  0.00  0.00    +0.000 OA
ATOM     37  H   UNL     1      -4.346   8.973  14.205  0.00  0.00    +0.000 HD
ENDBRANCH   7  36
TORSDOF 9
ENDMDL
MODEL 6
REMARK VINA RESULT:      -8.2      1.423      5.249
REMARK  Name = 
REMARK  9 active torsions:
REMARK  status: ('A' for Active; 'I' for Inactive)
REMARK    1  A    between atoms: C_2  and  C_3
REMARK    2  A    between atoms: C_2  and  C_21
REMARK    3  A    between atoms: C_4  and  C_5
REMARK    4  A    between atoms: C_8  and  O_9
REMARK    5  A    between atoms: C_16  and  O_17
REMARK    6  A    between atoms: C_24  and  O_25
REMARK    7  A    between atoms: O_25  and  C_26
REMARK    8  A    between atoms: C_26  and  C_27
REMARK    9  A    between atoms: C_27  and  N_28
REMARK                            x       y       z     vdW  Elec       q    Type
REMARK                         _______ _______ _______ _____ _____    ______ ____
ROOT
ATOM      1  C   UNL     1      -2.684  12.321  19.880  0.00  0.00    +0.000 C 
ATOM      2  C   UNL     1      -3.701  11.817  19.126  0.00  0.00    +0.000 C 
ATOM      3  C   UNL     1      -5.147  11.807  19.547  0.00  0.00    +0.000 C 
ATOM      4  C   UNL     1      -5.474  12.369  20.923  0.00  0.00    +0.000 C 
ATOM      5  C   UNL     1      -4.311  12.858  21.738  0.00  0.00    +0.000 A 
ATOM      6  C   UNL     1      -4.597  13.322  23.045  0.00  0.00    +0.000 A 
ATOM      7  C   UNL     1      -3.591  13.844  23.841  0.00  0.00    +0.000 A 
ATOM      8  C   UNL     1      -2.316  13.977  23.336  0.00  0.00    +0.000 A 
ATOM      9  C   UNL     1      -2.053  13.580  22.020  0.00  0.00    +0.000 A 
ATOM     10  C   UNL     1      -3.004  12.923  21.218  0.00  0.00    +0.000 A 
ENDROOT
BRANCH   2  11
ATOM     11  C   UNL     1      -3.539  11.212  17.775  0.00  0.00    +0.000 A 
ATOM     12  C   UNL     1      -2.673  10.127  17.578  0.00  0.00    +0.000 A 
ATOM     13  C   UNL     1      -2.462   9.614  16.292  0.00  0.00    +0.000 A 
ATOM     14  C   UNL     1      -3.115  10.191  15.205  0.00  0.00    +0.000 A 
ATOM     15  C   UNL     1      -3.993  11.252  15.387  0.00  0.00    +0.000 A 
ATOM     16  C   UNL     1      -4.215  11.754  16.670  0.00  0.00    +0.000 A 
BRANCH  14  17
ATOM     17  O   UNL     1      -2.907   9.747  13.933  0.00  0.00    +0.000 OA
ATOM     18  H   UNL     1      -3.048   8.787  13.918  0.00  0.00    +0.000 HD
ENDBRANCH  14  17
ENDBRANCH   2  11
BRANCH   1  20
ATOM     19  O   UNL     1      -0.850  13.258  18.635  0.00  0.00    +0.000 OA
ATOM     20  C   UNL     1      -1.300  12.294  19.263  0.00  0.00    +0.000 C 
BRANCH  20  21
ATOM     21  C   UNL     1      -0.326  11.202  19.471  0.00  0.00    +0.000 A 
ATOM     22  C   UNL     1      -0.558  10.443  20.621  0.00  0.00    +0.000 A 
ATOM     23  C   UNL     1       0.197   9.316  20.889  0.00  0.00    +0.000 A 
ATOM     24  C   UNL     1       1.213   8.914  20.017  0.00  0.00    +0.000 A 
ATOM     25  C   UNL     1       1.465   9.679  18.871  0.00  0.00    +0.000 A 
ATOM     26  C   UNL     1       0.719  10.845  18.609  0.00  0.00    +0.000 A 
BRANCH  24  27
ATOM     27  O   UNL     1       1.997   7.795  20.218  0.00  0.00    +0.000 OA
BRANCH  27  28
ATOM     28  C   UNL     1       2.431   7.208  18.981  0.00  0.00    +0.000 C 
BRANCH  28  29
ATOM     29  C   UNL     1       3.488   6.113  19.137  0.00  0.00    +0.000 C 
BRANCH  29  30
ATOM     30  N   UNL     1       2.900   4.889  19.739  0.00  0.00    +0.000 NA
ATOM     31  C   UNL     1       1.557   4.584  19.219  0.00  0.00    +0.000 C 
ATOM     32  C   UNL     1       0.954   3.341  19.874  0.00  0.00    +0.000 C 
ATOM     33  C   UNL     1       1.869   2.138  19.719  0.00  0.00    +0.000 C 
ATOM     34  C   UNL     1       3.267   2.481  20.220  0.00  0.00    +0.000 C 
ATOM     35  C   UNL     1       3.806   3.754  19.554  0.00  0.00    +0.000 C 
ENDBRANCH  29  30
ENDBRANCH  28  29
ENDBRANCH  27  28
ENDBRANCH  24  27
ENDBRANCH  20  21
ENDBRANCH   1  20
BRANCH   7  36
ATOM     36  O   UNL     1      -3.820  14.276  25.111  0.00  0.00    +0.000 OA
ATOM     37  H   UNL     1      -3.240  13.787  25.716  0.00  0.00    +0.000 HD
ENDBRANCH   7  36
TORSDOF 9
ENDMDL
MODEL 7
REMARK VINA RESULT:      -8.1      0.929      1.527
REMARK  Name = 
REMARK  9 active torsions:
REMARK  status: ('A' for Active; 'I' for Inactive)
REMARK    1  A    between atoms: C_2  and  C_3
REMARK    2  A    between atoms: C_2  and  C_21
REMARK    3  A    between atoms: C_4  and  C_5
REMARK    4  A    between atoms: C_8  and  O_9
REMARK    5  A    between atoms: C_16  and  O_17
REMARK    6  A    between atoms: C_24  and  O_25
REMARK    7  A    between atoms: O_25  and  C_26
REMARK    8  A    between atoms: C_26  and  C_27
REMARK    9  A    between atoms: C_27  and  N_28
REMARK                            x       y       z     vdW  Elec       q    Type
REMARK                         _______ _______ _______ _____ _____    ______ ____
ROOT
ATOM      1  C   UNL     1      -2.110  11.982  19.107  0.00  0.00    +0.000 C 
ATOM      2  C   UNL     1      -2.909  12.599  20.022  0.00  0.00    +0.000 C 
ATOM      3  C   UNL     1      -4.402  12.749  19.883  0.00  0.00    +0.000 C 
ATOM      4  C   UNL     1      -5.040  12.200  18.616  0.00  0.00    +0.000 C 
ATOM      5  C   UNL     1      -4.109  11.582  17.612  0.00  0.00    +0.000 A 
ATOM      6  C   UNL     1      -4.685  11.127  16.401  0.00  0.00    +0.000 A 
ATOM      7  C   UNL     1      -3.906  10.493  15.448  0.00  0.00    +0.000 A 
ATOM      8  C   UNL     1      -2.577  10.240  15.705  0.00  0.00    +0.000 A 
ATOM      9  C   UNL     1      -2.028  10.630  16.932  0.00  0.00    +0.000 A 
ATOM     10  C   UNL     1      -2.739  11.393  17.876  0.00  0.00    +0.000 A 
ENDROOT
BRANCH   2  11
ATOM     11  C   UNL     1      -2.432  13.207  21.294  0.00  0.00    +0.000 A 
ATOM     12  C   UNL     1      -2.258  14.594  21.401  0.00  0.00    +0.000 A 
ATOM     13  C   UNL     1      -1.732  15.153  22.573  0.00  0.00    +0.000 A 
ATOM     14  C   UNL     1      -1.376  14.322  23.633  0.00  0.00    +0.000 A 
ATOM     15  C   UNL     1      -1.563  12.948  23.550  0.00  0.00    +0.000 A 
ATOM     16  C   UNL     1      -2.101  12.391  22.389  0.00  0.00    +0.000 A 
BRANCH  14  17
ATOM     17  O   UNL     1      -0.825  14.823  24.774  0.00  0.00    +0.000 OA
ATOM     18  H   UNL     1      -0.299  14.123  25.193  0.00  0.00    +0.000 HD
ENDBRANCH  14  17
ENDBRANCH   2  11
BRANCH   1  20
ATOM     19  O   UNL     1       0.026  12.869  19.769  0.00  0.00    +0.000 OA
ATOM     20  C   UNL     1      -0.637  11.878  19.447  0.00  0.00    +0.000 C 
BRANCH  20  21
ATOM     21  C   UNL     1       0.094  10.599  19.567  0.00  0.00    +0.000 A 
ATOM     22  C   UNL     1       0.847  10.266  18.438  0.00  0.00    +0.000 A 
ATOM     23  C   UNL     1       1.677   9.160  18.444  0.00  0.00    +0.000 A 
ATOM     24  C   UNL     1       1.776   8.347  19.577  0.00  0.00    +0.000 A 
ATOM     25  C   UNL     1       1.010   8.663  20.706  0.00  0.00    +0.000 A 
ATOM     26  C   UNL     1       0.141   9.772  20.696  0.00  0.00    +0.000 A 
BRANCH  24  27
ATOM     27  O   UNL     1       2.591   7.235  19.654  0.00  0.00    +0.000 OA
BRANCH  27  28
ATOM     28  C   UNL     1       2.734   6.578  18.385  0.00  0.00    +0.000 C 
BRANCH  28  29
ATOM     29  C   UNL     1       3.929   5.629  18.294  0.00  0.00    +0.000 C 
BRANCH  29  30
ATOM     30  N   UNL     1       3.530   4.238  18.626  0.00  0.00    +0.000 NA
ATOM     31  C   UNL     1       3.090   3.472  17.447  0.00  0.00    +0.000 C 
ATOM     32  C   UNL     1       2.650   2.054  17.812  0.00  0.00    +0.000 C 
ATOM     33  C   UNL     1       3.750   1.309  18.549  0.00  0.00    +0.000 C 
ATOM     34  C   UNL     1       4.228   2.132  19.740  0.00  0.00    +0.000 C 
ATOM     35  C   UNL     1       4.623   3.553  19.319  0.00  0.00    +0.000 C 
ENDBRANCH  29  30
ENDBRANCH  28  29
ENDBRANCH  27  28
ENDBRANCH  24  27
ENDBRANCH  20  21
ENDBRANCH   1  20
BRANCH   7  36
ATOM     36  O   UNL     1      -4.416  10.065  14.260  0.00  0.00    +0.000 OA
ATOM     37  H   UNL     1      -5.157   9.464  14.438  0.00  0.00    +0.000 HD
ENDBRANCH   7  36
TORSDOF 9
ENDMDL
MODEL 8
REMARK VINA RESULT:      -8.1      3.095      8.120
REMARK  Name = 
REMARK  9 active torsions:
REMARK  status: ('A' for Active; 'I' for Inactive)
REMARK    1  A    between atoms: C_2  and  C_3
REMARK    2  A    between atoms: C_2  and  C_21
REMARK    3  A    between atoms: C_4  and  C_5
REMARK    4  A    between atoms: C_8  and  O_9
REMARK    5  A    between atoms: C_16  and  O_17
REMARK    6  A    between atoms: C_24  and  O_25
REMARK    7  A    between atoms: O_25  and  C_26
REMARK    8  A    between atoms: C_26  and  C_27
REMARK    9  A    between atoms: C_27  and  N_28
REMARK                            x       y       z     vdW  Elec       q    Type
REMARK                         _______ _______ _______ _____ _____    ______ ____
ROOT
ATOM      1  C   UNL     1       0.489  10.166  19.886  0.00  0.00    +0.000 C 
ATOM      2  C   UNL     1       0.358  10.319  21.234  0.00  0.00    +0.000 C 
ATOM      3  C   UNL     1       0.953   9.387  22.257  0.00  0.00    +0.000 C 
ATOM      4  C   UNL     1       1.719   8.180  21.735  0.00  0.00    +0.000 C 
ATOM      5  C   UNL     1       1.785   8.025  20.243  0.00  0.00    +0.000 A 
ATOM      6  C   UNL     1       2.439   6.871  19.749  0.00  0.00    +0.000 A 
ATOM      7  C   UNL     1       2.595   6.681  18.386  0.00  0.00    +0.000 A 
ATOM      8  C   UNL     1       2.173   7.652  17.505  0.00  0.00    +0.000 A 
ATOM      9  C   UNL     1       1.587   8.822  18.001  0.00  0.00    +0.000 A 
ATOM     10  C   UNL     1       1.286   9.005  19.364  0.00  0.00    +0.000 A 
ENDROOT
BRANCH   2  11
ATOM     11  C   UNL     1      -0.382  11.429  21.896  0.00  0.00    +0.000 A 
ATOM     12  C   UNL     1       0.090  12.747  21.819  0.00  0.00    +0.000 A 
ATOM     13  C   UNL     1      -0.564  13.773  22.511  0.00  0.00    +0.000 A 
ATOM     14  C   UNL     1      -1.686  13.478  23.283  0.00  0.00    +0.000 A 
ATOM     15  C   UNL     1      -2.178  12.181  23.351  0.00  0.00    +0.000 A 
ATOM     16  C   UNL     1      -1.536  11.160  22.650  0.00  0.00    +0.000 A 
BRANCH  14  17
ATOM     17  O   UNL     1      -2.327  14.443  24.002  0.00  0.00    +0.000 OA
ATOM     18  H   UNL     1      -2.520  15.187  23.411  0.00  0.00    +0.000 HD
ENDBRANCH  14  17
ENDBRANCH   2  11
BRANCH   1  20
ATOM     19  O   UNL     1       0.521  12.202  18.604  0.00  0.00    +0.000 OA
ATOM     20  C   UNL     1      -0.133  11.238  19.014  0.00  0.00    +0.000 C 
BRANCH  20  21
ATOM     21  C   UNL     1      -1.503  11.162  18.465  0.00  0.00    +0.000 A 
ATOM     22  C   UNL     1      -2.437  11.939  19.156  0.00  0.00    +0.000 A 
ATOM     23  C   UNL     1      -3.734  12.063  18.692  0.00  0.00    +0.000 A 
ATOM     24  C   UNL     1      -4.140  11.409  17.525  0.00  0.00    +0.000 A 
ATOM     25  C   UNL     1      -3.216  10.614  16.837  0.00  0.00    +0.000 A 
ATOM     26  C   UNL     1      -1.902  10.460  17.321  0.00  0.00    +0.000 A 
BRANCH  24  27
ATOM     27  O   UNL     1      -5.415  11.498  17.002  0.00  0.00    +0.000 OA
BRANCH  27  28
ATOM     28  C   UNL     1      -6.002  12.791  17.218  0.00  0.00    +0.000 C 
BRANCH  28  29
ATOM     29  C   UNL     1      -7.464  12.756  17.666  0.00  0.00    +0.000 C 
BRANCH  29  30
ATOM     30  N   UNL     1      -7.569  12.829  19.146  0.00  0.00    +0.000 NA
ATOM     31  C   UNL     1      -7.352  11.527  19.799  0.00  0.00    +0.000 C 
ATOM     32  C   UNL     1      -7.498  11.614  21.319  0.00  0.00    +0.000 C 
ATOM     33  C   UNL     1      -6.566  12.663  21.902  0.00  0.00    +0.000 C 
ATOM     34  C   UNL     1      -6.769  13.994  21.187  0.00  0.00    +0.000 C 
ATOM     35  C   UNL     1      -6.645  13.839  19.666  0.00  0.00    +0.000 C 
ENDBRANCH  29  30
ENDBRANCH  28  29
ENDBRANCH  27  28
ENDBRANCH  24  27
ENDBRANCH  20  21
ENDBRANCH   1  20
BRANCH   7  36
ATOM     36  O   UNL     1       3.195   5.573  17.871  0.00  0.00    +0.000 OA
ATOM     37  H   UNL     1       3.230   4.889  18.558  0.00  0.00    +0.000 HD
ENDBRANCH   7  36
TORSDOF 9
ENDMDL
MODEL 9
REMARK VINA RESULT:      -8.0      1.538      5.205
REMARK  Name = 
REMARK  9 active torsions:
REMARK  status: ('A' for Active; 'I' for Inactive)
REMARK    1  A    between atoms: C_2  and  C_3
REMARK    2  A    between atoms: C_2  and  C_21
REMARK    3  A    between atoms: C_4  and  C_5
REMARK    4  A    between atoms: C_8  and  O_9
REMARK    5  A    between atoms: C_16  and  O_17
REMARK    6  A    between atoms: C_24  and  O_25
REMARK    7  A    between atoms: O_25  and  C_26
REMARK    8  A    between atoms: C_26  and  C_27
REMARK    9  A    between atoms: C_27  and  N_28
REMARK                            x       y       z     vdW  Elec       q    Type
REMARK                         _______ _______ _______ _____ _____    ______ ____
ROOT
ATOM      1  C   UNL     1      -2.926  12.244  19.804  0.00  0.00    +0.000 C 
ATOM      2  C   UNL     1      -3.895  11.729  18.997  0.00  0.00    +0.000 C 
ATOM      3  C   UNL     1      -5.365  11.732  19.325  0.00  0.00    +0.000 C 
ATOM      4  C   UNL     1      -5.776  12.320  20.667  0.00  0.00    +0.000 C 
ATOM      5  C   UNL     1      -4.665  12.820  21.546  0.00  0.00    +0.000 A 
ATOM      6  C   UNL     1      -5.031  13.309  22.823  0.00  0.00    +0.000 A 
ATOM      7  C   UNL     1      -4.075  13.842  23.672  0.00  0.00    +0.000 A 
ATOM      8  C   UNL     1      -2.770  13.961  23.247  0.00  0.00    +0.000 A 
ATOM      9  C   UNL     1      -2.426  13.539  21.958  0.00  0.00    +0.000 A 
ATOM     10  C   UNL     1      -3.328  12.871  21.108  0.00  0.00    +0.000 A 
ENDROOT
BRANCH   2  11
ATOM     11  C   UNL     1      -3.651  11.099  17.670  0.00  0.00    +0.000 A 
ATOM     12  C   UNL     1      -2.947   9.890  17.573  0.00  0.00    +0.000 A 
ATOM     13  C   UNL     1      -2.649   9.344  16.318  0.00  0.00    +0.000 A 
ATOM     14  C   UNL     1      -3.051  10.011  15.163  0.00  0.00    +0.000 A 
ATOM     15  C   UNL     1      -3.768  11.198  15.244  0.00  0.00    +0.000 A 
ATOM     16  C   UNL     1      -4.078  11.736  16.494  0.00  0.00    +0.000 A 
BRANCH  14  17
ATOM     17  O   UNL     1      -2.747   9.532  13.924  0.00  0.00    +0.000 OA
ATOM     18  H   UNL     1      -2.673   8.567  13.979  0.00  0.00    +0.000 HD
ENDBRANCH  14  17
ENDBRANCH   2  11
BRANCH   1  20
ATOM     19  O   UNL     1      -1.040  13.115  18.589  0.00  0.00    +0.000 OA
ATOM     20  C   UNL     1      -1.506  12.201  19.278  0.00  0.00    +0.000 C 
BRANCH  20  21
ATOM     21  C   UNL     1      -0.520  11.163  19.646  0.00  0.00    +0.000 A 
ATOM     22  C   UNL     1      -0.574  10.778  20.988  0.00  0.00    +0.000 A 
ATOM     23  C   UNL     1       0.205   9.735  21.456  0.00  0.00    +0.000 A 
ATOM     24  C   UNL     1       1.066   9.046  20.597  0.00  0.00    +0.000 A 
ATOM     25  C   UNL     1       1.140   9.438  19.254  0.00  0.00    +0.000 A 
ATOM     26  C   UNL     1       0.371  10.519  18.780  0.00  0.00    +0.000 A 
BRANCH  24  27
ATOM     27  O   UNL     1       1.863   7.991  20.995  0.00  0.00    +0.000 OA
BRANCH  27  28
ATOM     28  C   UNL     1       1.616   6.804  20.225  0.00  0.00    +0.000 C 
BRANCH  28  29
ATOM     29  C   UNL     1       2.825   6.296  19.439  0.00  0.00    +0.000 C 
BRANCH  29  30
ATOM     30  N   UNL     1       2.459   5.132  18.594  0.00  0.00    +0.000 NA
ATOM     31  C   UNL     1       3.625   4.498  17.956  0.00  0.00    +0.000 C 
ATOM     32  C   UNL     1       3.226   3.323  17.063  0.00  0.00    +0.000 C 
ATOM     33  C   UNL     1       2.418   2.293  17.835  0.00  0.00    +0.000 C 
ATOM     34  C   UNL     1       1.241   2.970  18.526  0.00  0.00    +0.000 C 
ATOM     35  C   UNL     1       1.697   4.160  19.380  0.00  0.00    +0.000 C 
ENDBRANCH  29  30
ENDBRANCH  28  29
ENDBRANCH  27  28
ENDBRANCH  24  27
ENDBRANCH  20  21
ENDBRANCH   1  20
BRANCH   7  36
ATOM     36  O   UNL     1      -4.382  14.297  24.917  0.00  0.00    +0.000 OA
ATOM     37  H   UNL     1      -4.875  15.129  24.832  0.00  0.00    +0.000 HD
ENDBRANCH   7  36
TORSDOF 9
ENDMDL
