MODEL 1
REMARK VINA RESULT:      -7.5      0.000      0.000
REMARK  Name = 
REMARK  4 active torsions:
REMARK  status: ('A' for Active; 'I' for Inactive)
REMARK    1  A    between atoms: C_2  and  C_3
REMARK    2  A    between atoms: C_3  and  O_4
REMARK    3  A    between atoms: C_3  and  C_5
REMARK    4  A    between atoms: N_14  and  C_15
REMARK                            x       y       z     vdW  Elec       q    Type
REMARK                         _______ _______ _______ _____ _____    ______ ____
ROOT
ATOM      1  O   UNL     1       2.182   4.628  19.851  0.00  0.00    +0.000 OA
ATOM      2  C   UNL     1       2.543   5.384  18.948  0.00  0.00    +0.000 C 
ATOM      3  N   UNL     1       2.609   6.762  19.145  0.00  0.00    +0.000 N 
ATOM      4  C   UNL     1       3.018   7.748  18.157  0.00  0.00    +0.000 C 
ATOM      5  C   UNL     1       1.788   8.552  17.772  0.00  0.00    +0.000 C 
ATOM      6  N   UNL     1       1.245   9.269  18.935  0.00  0.00    +0.000 N 
ATOM      7  C   UNL     1       1.243   8.647  20.201  0.00  0.00    +0.000 C 
ATOM      8  O   UNL     1       0.672   9.091  21.201  0.00  0.00    +0.000 OA
ATOM      9  C   UNL     1       2.041   7.334  20.359  0.00  0.00    +0.000 C 
ENDROOT
BRANCH   6  10
ATOM     10  C   UNL     1       0.599  10.535  18.712  0.00  0.00    +0.000 A 
ATOM     11  C   UNL     1      -0.760  10.607  18.367  0.00  0.00    +0.000 A 
ATOM     12  C   UNL     1      -1.397  11.830  18.147  0.00  0.00    +0.000 A 
ATOM     13  C   UNL     1      -0.687  13.016  18.265  0.00  0.00    +0.000 A 
ATOM     14  C   UNL     1       0.658  12.969  18.621  0.00  0.00    +0.000 A 
ATOM     15 CL   UNL     1       1.550  14.436  18.766  0.00  0.00    +0.000 Cl
ATOM     16  C   UNL     1       1.295  11.747  18.848  0.00  0.00    +0.000 A 
ENDBRANCH   6  10
BRANCH   2  17
ATOM     17  C   UNL     1       2.919   4.866  17.537  0.00  0.00    +0.000 C 
BRANCH  17  18
ATOM     18  C   UNL     1       4.400   4.645  17.289  0.00  0.00    +0.000 A 
ATOM     19  C   UNL     1       5.310   4.832  18.342  0.00  0.00    +0.000 A 
ATOM     20  C   UNL     1       6.685   4.742  18.125  0.00  0.00    +0.000 A 
ATOM     21  C   UNL     1       7.171   4.462  16.851  0.00  0.00    +0.000 A 
ATOM     22  C   UNL     1       6.282   4.235  15.802  0.00  0.00    +0.000 A 
ATOM     23  C   UNL     1       4.904   4.313  16.021  0.00  0.00    +0.000 A 
ENDBRANCH  17  18
BRANCH  17  24
ATOM     24  O   UNL     1       2.215   3.653  17.244  0.00  0.00    +0.000 OA
ATOM     25  H   UNL     1       2.891   2.965  17.121  0.00  0.00    +0.000 HD
ENDBRANCH  17  24
ENDBRANCH   2  17
TORSDOF 4
ENDMDL
MODEL 2
REMARK VINA RESULT:      -7.5      1.138      1.501
REMARK  Name = 
REMARK  4 active torsions:
REMARK  status: ('A' for Active; 'I' for Inactive)
REMARK    1  A    between atoms: C_2  and  C_3
REMARK    2  A    between atoms: C_3  and  O_4
REMARK    3  A    between atoms: C_3  and  C_5
REMARK    4  A    between atoms: N_14  and  C_15
REMARK                            x       y       z     vdW  Elec       q    Type
REMARK                         _______ _______ _______ _____ _____    ______ ____
ROOT
ATOM      1  O   UNL     1       2.283   4.554  19.866  0.00  0.00    +0.000 OA
ATOM      2  C   UNL     1       2.612   5.322  18.961  0.00  0.00    +0.000 C 
ATOM      3  N   UNL     1       2.641   6.702  19.161  0.00  0.00    +0.000 N 
ATOM      4  C   UNL     1       3.010   7.701  18.170  0.00  0.00    +0.000 C 
ATOM      5  C   UNL     1       1.753   8.471  17.802  0.00  0.00    +0.000 C 
ATOM      6  N   UNL     1       1.204   9.170  18.973  0.00  0.00    +0.000 N 
ATOM      7  C   UNL     1       1.234   8.545  20.238  0.00  0.00    +0.000 C 
ATOM      8  O   UNL     1       0.664   8.969  21.245  0.00  0.00    +0.000 OA
ATOM      9  C   UNL     1       2.071   7.254  20.382  0.00  0.00    +0.000 C 
ENDROOT
BRANCH   6  10
ATOM     10  C   UNL     1       0.520  10.417  18.761  0.00  0.00    +0.000 A 
ATOM     11  C   UNL     1       1.193  11.644  18.872  0.00  0.00    +0.000 A 
ATOM     12  C   UNL     1       0.539  12.861  18.669  0.00  0.00    +0.000 A 
ATOM     13  C   UNL     1      -0.812  12.880  18.351  0.00  0.00    +0.000 A 
ATOM     14  C   UNL     1      -1.496  11.675  18.221  0.00  0.00    +0.000 A 
ATOM     15 CL   UNL     1      -3.174  11.688  17.831  0.00  0.00    +0.000 Cl
ATOM     16  C   UNL     1      -0.841  10.457  18.417  0.00  0.00    +0.000 A 
ENDBRANCH   6  10
BRANCH   2  17
ATOM     17  C   UNL     1       2.985   4.819  17.544  0.00  0.00    +0.000 C 
BRANCH  17  18
ATOM     18  C   UNL     1       4.467   4.610  17.287  0.00  0.00    +0.000 A 
ATOM     19  C   UNL     1       5.381   4.805  18.336  0.00  0.00    +0.000 A 
ATOM     20  C   UNL     1       6.755   4.726  18.112  0.00  0.00    +0.000 A 
ATOM     21  C   UNL     1       7.237   4.450  16.835  0.00  0.00    +0.000 A 
ATOM     22  C   UNL     1       6.344   4.216  15.791  0.00  0.00    +0.000 A 
ATOM     23  C   UNL     1       4.967   4.282  16.017  0.00  0.00    +0.000 A 
ENDBRANCH  17  18
BRANCH  17  24
ATOM     24  O   UNL     1       2.288   3.603  17.244  0.00  0.00    +0.000 OA
ATOM     25  H   UNL     1       1.445   3.644  17.726  0.00  0.00    +0.000 HD
ENDBRANCH  17  24
ENDBRANCH   2  17
TORSDOF 4
ENDMDL
MODEL 3
REMARK VINA RESULT:      -7.4      1.187      1.825
REMARK  Name = 
REMARK  4 active torsions:
REMARK  status: ('A' for Active; 'I' for Inactive)
REMARK    1  A    between atoms: C_2  and  C_3
REMARK    2  A    between atoms: C_3  and  O_4
REMARK    3  A    between atoms: C_3  and  C_5
REMARK    4  A    between atoms: N_14  and  C_15
REMARK                            x       y       z     vdW  Elec       q    Type
REMARK                         _______ _______ _______ _____ _____    ______ ____
ROOT
ATOM      1  O   UNL     1       2.466   4.545  19.784  0.00  0.00    +0.000 OA
ATOM      2  C   UNL     1       2.784   5.336  18.895  0.00  0.00    +0.000 C 
ATOM      3  N   UNL     1       2.761   6.713  19.113  0.00  0.00    +0.000 N 
ATOM      4  C   UNL     1       3.112   7.737  18.142  0.00  0.00    +0.000 C 
ATOM      5  C   UNL     1       1.836   8.468  17.760  0.00  0.00    +0.000 C 
ATOM      6  N   UNL     1       1.241   9.131  18.929  0.00  0.00    +0.000 N 
ATOM      7  C   UNL     1       1.270   8.491  20.186  0.00  0.00    +0.000 C 
ATOM      8  O   UNL     1       0.666   8.882  21.187  0.00  0.00    +0.000 OA
ATOM      9  C   UNL     1       2.149   7.229  20.330  0.00  0.00    +0.000 C 
ENDROOT
BRANCH   6  10
ATOM     10  C   UNL     1       0.517  10.356  18.720  0.00  0.00    +0.000 A 
ATOM     11  C   UNL     1       1.117  11.604  18.949  0.00  0.00    +0.000 A 
ATOM     12  C   UNL     1       0.423  12.799  18.751  0.00  0.00    +0.000 A 
ATOM     13  C   UNL     1      -0.895  12.776  18.317  0.00  0.00    +0.000 A 
ATOM     14  C   UNL     1      -1.505  11.550  18.069  0.00  0.00    +0.000 A 
ATOM     15 CL   UNL     1      -3.143  11.509  17.535  0.00  0.00    +0.000 Cl
ATOM     16  C   UNL     1      -0.810  10.354  18.260  0.00  0.00    +0.000 A 
ENDBRANCH   6  10
BRANCH   2  17
ATOM     17  C   UNL     1       3.201   4.865  17.479  0.00  0.00    +0.000 C 
BRANCH  17  18
ATOM     18  C   UNL     1       4.696   4.805  17.218  0.00  0.00    +0.000 A 
ATOM     19  C   UNL     1       5.157   4.521  15.922  0.00  0.00    +0.000 A 
ATOM     20  C   UNL     1       6.518   4.352  15.667  0.00  0.00    +0.000 A 
ATOM     21  C   UNL     1       7.439   4.467  16.705  0.00  0.00    +0.000 A 
ATOM     22  C   UNL     1       7.002   4.787  17.989  0.00  0.00    +0.000 A 
ATOM     23  C   UNL     1       5.641   4.968  18.243  0.00  0.00    +0.000 A 
ENDBRANCH  17  18
BRANCH  17  24
ATOM     24  O   UNL     1       2.629   3.584  17.188  0.00  0.00    +0.000 OA
ATOM     25  H   UNL     1       1.933   3.737  16.527  0.00  0.00    +0.000 HD
ENDBRANCH  17  24
ENDBRANCH   2  17
TORSDOF 4
ENDMDL
MODEL 4
REMARK VINA RESULT:      -7.2      2.868      7.936
REMARK  Name = 
REMARK  4 active torsions:
REMARK  status: ('A' for Active; 'I' for Inactive)
REMARK    1  A    between atoms: C_2  and  C_3
REMARK    2  A    between atoms: C_3  and  O_4
REMARK    3  A    between atoms: C_3  and  C_5
REMARK    4  A    between atoms: N_14  and  C_15
REMARK                            x       y       z     vdW  Elec       q    Type
REMARK                         _______ _______ _______ _____ _____    ______ ____
ROOT
ATOM      1  O   UNL     1       0.921   8.749  21.292  0.00  0.00    +0.000 OA
ATOM      2  C   UNL     1       1.179   8.900  20.097  0.00  0.00    +0.000 C 
ATOM      3  N   UNL     1       1.636   7.837  19.319  0.00  0.00    +0.000 N 
ATOM      4  C   UNL     1       1.971   7.896  17.905  0.00  0.00    +0.000 C 
ATOM      5  C   UNL     1       3.477   7.739  17.781  0.00  0.00    +0.000 C 
ATOM      6  N   UNL     1       3.912   6.434  18.299  0.00  0.00    +0.000 N 
ATOM      7  C   UNL     1       3.297   5.898  19.451  0.00  0.00    +0.000 C 
ATOM      8  O   UNL     1       3.689   4.899  20.056  0.00  0.00    +0.000 OA
ATOM      9  C   UNL     1       2.019   6.592  19.972  0.00  0.00    +0.000 C 
ENDROOT
BRANCH   6  10
ATOM     10  C   UNL     1       5.058   5.810  17.694  0.00  0.00    +0.000 A 
ATOM     11  C   UNL     1       6.298   5.773  18.351  0.00  0.00    +0.000 A 
ATOM     12  C   UNL     1       7.417   5.171  17.772  0.00  0.00    +0.000 A 
ATOM     13  C   UNL     1       7.324   4.590  16.515  0.00  0.00    +0.000 A 
ATOM     14  C   UNL     1       6.100   4.602  15.852  0.00  0.00    +0.000 A 
ATOM     15 CL   UNL     1       5.974   3.887  14.290  0.00  0.00    +0.000 Cl
ATOM     16  C   UNL     1       4.978   5.197  16.433  0.00  0.00    +0.000 A 
ENDBRANCH   6  10
BRANCH   2  17
ATOM     17  C   UNL     1       1.041  10.270  19.387  0.00  0.00    +0.000 C 
BRANCH  17  18
ATOM     18  C   UNL     1      -0.341  10.600  18.854  0.00  0.00    +0.000 A 
ATOM     19  C   UNL     1      -1.116  11.573  19.506  0.00  0.00    +0.000 A 
ATOM     20  C   UNL     1      -2.429  11.827  19.110  0.00  0.00    +0.000 A 
ATOM     21  C   UNL     1      -2.987  11.112  18.053  0.00  0.00    +0.000 A 
ATOM     22  C   UNL     1      -2.220  10.171  17.369  0.00  0.00    +0.000 A 
ATOM     23  C   UNL     1      -0.900   9.925  17.757  0.00  0.00    +0.000 A 
ENDBRANCH  17  18
BRANCH  17  24
ATOM     24  O   UNL     1       1.467  11.329  20.255  0.00  0.00    +0.000 OA
ATOM     25  H   UNL     1       2.384  11.124  20.508  0.00  0.00    +0.000 HD
ENDBRANCH  17  24
ENDBRANCH   2  17
TORSDOF 4
ENDMDL
MODEL 5
REMARK VINA RESULT:      -7.1      0.250      1.015
REMARK  Name = 
REMARK  4 active torsions:
REMARK  status: ('A' for Active; 'I' for Inactive)
REMARK    1  A    between atoms: C_2  and  C_3
REMARK    2  A    between atoms: C_3  and  O_4
REMARK    3  A    between atoms: C_3  and  C_5
REMARK    4  A    between atoms: N_14  and  C_15
REMARK                            x       y       z     vdW  Elec       q    Type
REMARK                         _______ _______ _______ _____ _____    ______ ____
ROOT
ATOM      1  O   UNL     1       1.938   4.621  20.099  0.00  0.00    +0.000 OA
ATOM      2  C   UNL     1       2.342   5.353  19.194  0.00  0.00    +0.000 C 
ATOM      3  N   UNL     1       2.434   6.733  19.370  0.00  0.00    +0.000 N 
ATOM      4  C   UNL     1       2.894   7.691  18.377  0.00  0.00    +0.000 C 
ATOM      5  C   UNL     1       1.695   8.517  17.943  0.00  0.00    +0.000 C 
ATOM      6  N   UNL     1       1.136   9.266  19.078  0.00  0.00    +0.000 N 
ATOM      7  C   UNL     1       1.083   8.667  20.354  0.00  0.00    +0.000 C 
ATOM      8  O   UNL     1       0.495   9.140  21.329  0.00  0.00    +0.000 OA
ATOM      9  C   UNL     1       1.845   7.338  20.557  0.00  0.00    +0.000 C 
ENDROOT
BRANCH   6  10
ATOM     10  C   UNL     1       0.526  10.542  18.815  0.00  0.00    +0.000 A 
ATOM     11  C   UNL     1      -0.790  10.634  18.335  0.00  0.00    +0.000 A 
ATOM     12  C   UNL     1      -1.391  11.867  18.075  0.00  0.00    +0.000 A 
ATOM     13  C   UNL     1      -0.688  13.044  18.288  0.00  0.00    +0.000 A 
ATOM     14  C   UNL     1       0.613  12.977  18.778  0.00  0.00    +0.000 A 
ATOM     15 CL   UNL     1       1.497  14.432  19.042  0.00  0.00    +0.000 Cl
ATOM     16  C   UNL     1       1.214  11.745  19.045  0.00  0.00    +0.000 A 
ENDBRANCH   6  10
BRANCH   2  17
ATOM     17  C   UNL     1       2.746   4.802  17.803  0.00  0.00    +0.000 C 
BRANCH  17  18
ATOM     18  C   UNL     1       4.237   4.749  17.523  0.00  0.00    +0.000 A 
ATOM     19  C   UNL     1       4.682   4.468  16.220  0.00  0.00    +0.000 A 
ATOM     20  C   UNL     1       6.040   4.307  15.948  0.00  0.00    +0.000 A 
ATOM     21  C   UNL     1       6.975   4.425  16.974  0.00  0.00    +0.000 A 
ATOM     22  C   UNL     1       6.553   4.741  18.264  0.00  0.00    +0.000 A 
ATOM     23  C   UNL     1       5.194   4.916  18.536  0.00  0.00    +0.000 A 
ENDBRANCH  17  18
BRANCH  17  24
ATOM     24  O   UNL     1       2.190   3.496  17.601  0.00  0.00    +0.000 OA
ATOM     25  H   UNL     1       2.934   2.914  17.371  0.00  0.00    +0.000 HD
ENDBRANCH  17  24
ENDBRANCH   2  17
TORSDOF 4
ENDMDL
MODEL 6
REMARK VINA RESULT:      -6.9      2.538      3.577
REMARK  Name = 
REMARK  4 active torsions:
REMARK  status: ('A' for Active; 'I' for Inactive)
REMARK    1  A    between atoms: C_2  and  C_3
REMARK    2  A    between atoms: C_3  and  O_4
REMARK    3  A    between atoms: C_3  and  C_5
REMARK    4  A    between atoms: N_14  and  C_15
REMARK                            x       y       z     vdW  Elec       q    Type
REMARK                         _______ _______ _______ _____ _____    ______ ____
ROOT
ATOM      1  O   UNL     1       5.387   6.510  17.551  0.00  0.00    +0.000 OA
ATOM      2  C   UNL     1       4.482   6.157  18.308  0.00  0.00    +0.000 C 
ATOM      3  N   UNL     1       3.227   6.762  18.263  0.00  0.00    +0.000 N 
ATOM      4  C   UNL     1       2.088   6.430  19.105  0.00  0.00    +0.000 C 
ATOM      5  C   UNL     1       1.859   7.596  20.051  0.00  0.00    +0.000 C 
ATOM      6  N   UNL     1       1.534   8.821  19.306  0.00  0.00    +0.000 N 
ATOM      7  C   UNL     1       2.194   9.094  18.088  0.00  0.00    +0.000 C 
ATOM      8  O   UNL     1       2.115  10.157  17.470  0.00  0.00    +0.000 OA
ATOM      9  C   UNL     1       3.049   7.968  17.465  0.00  0.00    +0.000 C 
ENDROOT
BRANCH   6  10
ATOM     10  C   UNL     1       0.653   9.777  19.920  0.00  0.00    +0.000 A 
ATOM     11  C   UNL     1       0.849  10.202  21.244  0.00  0.00    +0.000 A 
ATOM     12  C   UNL     1      -0.000  11.128  21.851  0.00  0.00    +0.000 A 
ATOM     13  C   UNL     1      -1.074  11.655  21.146  0.00  0.00    +0.000 A 
ATOM     14  C   UNL     1      -1.279  11.259  19.827  0.00  0.00    +0.000 A 
ATOM     15 CL   UNL     1      -2.611  11.903  18.945  0.00  0.00    +0.000 Cl
ATOM     16  C   UNL     1      -0.425  10.338  19.217  0.00  0.00    +0.000 A 
ENDBRANCH   6  10
BRANCH   2  17
ATOM     17  C   UNL     1       4.679   5.046  19.370  0.00  0.00    +0.000 C 
BRANCH  17  18
ATOM     18  C   UNL     1       3.744   3.854  19.259  0.00  0.00    +0.000 A 
ATOM     19  C   UNL     1       3.615   3.194  18.026  0.00  0.00    +0.000 A 
ATOM     20  C   UNL     1       2.688   2.165  17.859  0.00  0.00    +0.000 A 
ATOM     21  C   UNL     1       1.877   1.779  18.924  0.00  0.00    +0.000 A 
ATOM     22  C   UNL     1       2.020   2.397  20.165  0.00  0.00    +0.000 A 
ATOM     23  C   UNL     1       2.956   3.420  20.337  0.00  0.00    +0.000 A 
ENDBRANCH  17  18
BRANCH  17  24
ATOM     24  O   UNL     1       6.032   4.574  19.357  0.00  0.00    +0.000 OA
ATOM     25  H   UNL     1       6.054   3.785  19.925  0.00  0.00    +0.000 HD
ENDBRANCH  17  24
ENDBRANCH   2  17
TORSDOF 4
ENDMDL
MODEL 7
REMARK VINA RESULT:      -6.9      2.999      8.222
REMARK  Name = 
REMARK  4 active torsions:
REMARK  status: ('A' for Active; 'I' for Inactive)
REMARK    1  A    between atoms: C_2  and  C_3
REMARK    2  A    between atoms: C_3  and  O_4
REMARK    3  A    between atoms: C_3  and  C_5
REMARK    4  A    between atoms: N_14  and  C_15
REMARK                            x       y       z     vdW  Elec       q    Type
REMARK                         _______ _______ _______ _____ _____    ______ ____
ROOT
ATOM      1  O   UNL     1       1.404  11.823  20.767  0.00  0.00    +0.000 OA
ATOM      2  C   UNL     1       1.351  11.447  19.596  0.00  0.00    +0.000 C 
ATOM      3  N   UNL     1       1.093  10.115  19.278  0.00  0.00    +0.000 N 
ATOM      4  C   UNL     1       1.007   9.558  17.937  0.00  0.00    +0.000 C 
ATOM      5  C   UNL     1       2.215   8.659  17.733  0.00  0.00    +0.000 C 
ATOM      6  N   UNL     1       2.207   7.545  18.691  0.00  0.00    +0.000 N 
ATOM      7  C   UNL     1       1.780   7.767  20.018  0.00  0.00    +0.000 C 
ATOM      8  O   UNL     1       1.884   6.949  20.935  0.00  0.00    +0.000 OA
ATOM      9  C   UNL     1       1.102   9.117  20.339  0.00  0.00    +0.000 C 
ENDROOT
BRANCH   6  10
ATOM     10  C   UNL     1       2.775   6.289  18.279  0.00  0.00    +0.000 A 
ATOM     11  C   UNL     1       1.963   5.172  18.025  0.00  0.00    +0.000 A 
ATOM     12  C   UNL     1       2.504   3.948  17.626  0.00  0.00    +0.000 A 
ATOM     13  C   UNL     1       3.876   3.811  17.471  0.00  0.00    +0.000 A 
ATOM     14  C   UNL     1       4.698   4.909  17.702  0.00  0.00    +0.000 A 
ATOM     15 CL   UNL     1       6.404   4.748  17.517  0.00  0.00    +0.000 Cl
ATOM     16  C   UNL     1       4.159   6.136  18.095  0.00  0.00    +0.000 A 
ENDBRANCH   6  10
BRANCH   2  17
ATOM     17  C   UNL     1       1.589  12.411  18.406  0.00  0.00    +0.000 C 
BRANCH  17  18
ATOM     18  C   UNL     1       1.300  13.876  18.676  0.00  0.00    +0.000 A 
ATOM     19  C   UNL     1      -0.032  14.304  18.800  0.00  0.00    +0.000 A 
ATOM     20  C   UNL     1      -0.340  15.657  18.942  0.00  0.00    +0.000 A 
ATOM     21  C   UNL     1       0.681  16.604  18.963  0.00  0.00    +0.000 A 
ATOM     22  C   UNL     1       2.010  16.194  18.879  0.00  0.00    +0.000 A 
ATOM     23  C   UNL     1       2.321  14.838  18.750  0.00  0.00    +0.000 A 
ENDBRANCH  17  18
BRANCH  17  24
ATOM     24  O   UNL     1       2.933  12.286  17.922  0.00  0.00    +0.000 OA
ATOM     25  H   UNL     1       3.505  12.244  18.707  0.00  0.00    +0.000 HD
ENDBRANCH  17  24
ENDBRANCH   2  17
TORSDOF 4
ENDMDL
MODEL 8
REMARK VINA RESULT:      -6.8      5.209      8.270
REMARK  Name = 
REMARK  4 active torsions:
REMARK  status: ('A' for Active; 'I' for Inactive)
REMARK    1  A    between atoms: C_2  and  C_3
REMARK    2  A    between atoms: C_3  and  O_4
REMARK    3  A    between atoms: C_3  and  C_5
REMARK    4  A    between atoms: N_14  and  C_15
REMARK                            x       y       z     vdW  Elec       q    Type
REMARK                         _______ _______ _______ _____ _____    ______ ____
ROOT
ATOM      1  O   UNL     1       5.230   5.931  20.047  0.00  0.00    +0.000 OA
ATOM      2  C   UNL     1       4.494   5.425  19.198  0.00  0.00    +0.000 C 
ATOM      3  N   UNL     1       5.003   4.582  18.212  0.00  0.00    +0.000 N 
ATOM      4  C   UNL     1       4.234   3.931  17.164  0.00  0.00    +0.000 C 
ATOM      5  C   UNL     1       4.616   4.578  15.843  0.00  0.00    +0.000 C 
ATOM      6  N   UNL     1       6.044   4.375  15.554  0.00  0.00    +0.000 N 
ATOM      7  C   UNL     1       6.985   4.438  16.604  0.00  0.00    +0.000 C 
ATOM      8  O   UNL     1       8.208   4.442  16.451  0.00  0.00    +0.000 OA
ATOM      9  C   UNL     1       6.447   4.468  18.052  0.00  0.00    +0.000 C 
ENDROOT
BRANCH   6  10
ATOM     10  C   UNL     1       6.450   4.262  14.179  0.00  0.00    +0.000 A 
ATOM     11  C   UNL     1       7.285   5.222  13.586  0.00  0.00    +0.000 A 
ATOM     12  C   UNL     1       7.685   5.124  12.252  0.00  0.00    +0.000 A 
ATOM     13  C   UNL     1       7.254   4.058  11.473  0.00  0.00    +0.000 A 
ATOM     14  C   UNL     1       6.438   3.087  12.045  0.00  0.00    +0.000 A 
ATOM     15 CL   UNL     1       5.894   1.763  11.086  0.00  0.00    +0.000 Cl
ATOM     16  C   UNL     1       6.043   3.181  13.381  0.00  0.00    +0.000 A 
ENDBRANCH   6  10
BRANCH   2  17
ATOM     17  C   UNL     1       2.971   5.709  19.150  0.00  0.00    +0.000 C 
BRANCH  17  18
ATOM     18  C   UNL     1       2.071   4.540  19.510  0.00  0.00    +0.000 A 
ATOM     19  C   UNL     1       2.026   4.091  20.840  0.00  0.00    +0.000 A 
ATOM     20  C   UNL     1       1.294   2.956  21.188  0.00  0.00    +0.000 A 
ATOM     21  C   UNL     1       0.594   2.253  20.210  0.00  0.00    +0.000 A 
ATOM     22  C   UNL     1       0.596   2.707  18.893  0.00  0.00    +0.000 A 
ATOM     23  C   UNL     1       1.319   3.851  18.546  0.00  0.00    +0.000 A 
ENDBRANCH  17  18
BRANCH  17  24
ATOM     24  O   UNL     1       2.642   6.823  19.989  0.00  0.00    +0.000 OA
ATOM     25  H   UNL     1       2.756   6.519  20.906  0.00  0.00    +0.000 HD
ENDBRANCH  17  24
ENDBRANCH   2  17
TORSDOF 4
ENDMDL
MODEL 9
REMARK VINA RESULT:      -6.8      2.614      3.297
REMARK  Name = 
REMARK  4 active torsions:
REMARK  status: ('A' for Active; 'I' for Inactive)
REMARK    1  A    between atoms: C_2  and  C_3
REMARK    2  A    between atoms: C_3  and  O_4
REMARK    3  A    between atoms: C_3  and  C_5
REMARK    4  A    between atoms: N_14  and  C_15
REMARK                            x       y       z     vdW  Elec       q    Type
REMARK                         _______ _______ _______ _____ _____    ______ ____
ROOT
ATOM      1  O   UNL     1       4.388   7.111  17.147  0.00  0.00    +0.000 OA
ATOM      2  C   UNL     1       3.832   6.667  18.153  0.00  0.00    +0.000 C 
ATOM      3  N   UNL     1       2.585   7.142  18.556  0.00  0.00    +0.000 N 
ATOM      4  C   UNL     1       1.837   6.695  19.720  0.00  0.00    +0.000 C 
ATOM      5  C   UNL     1       1.832   7.832  20.729  0.00  0.00    +0.000 C 
ATOM      6  N   UNL     1       1.157   9.017  20.179  0.00  0.00    +0.000 N 
ATOM      7  C   UNL     1       1.335   9.356  18.820  0.00  0.00    +0.000 C 
ATOM      8  O   UNL     1       0.949  10.406  18.302  0.00  0.00    +0.000 OA
ATOM      9  C   UNL     1       2.031   8.322  17.907  0.00  0.00    +0.000 C 
ENDROOT
BRANCH   6  10
ATOM     10  C   UNL     1       0.450   9.879  21.088  0.00  0.00    +0.000 A 
ATOM     11  C   UNL     1      -0.225   9.361  22.204  0.00  0.00    +0.000 A 
ATOM     12  C   UNL     1      -0.917  10.187  23.092  0.00  0.00    +0.000 A 
ATOM     13  C   UNL     1      -0.951  11.559  22.883  0.00  0.00    +0.000 A 
ATOM     14  C   UNL     1      -0.276  12.096  21.791  0.00  0.00    +0.000 A 
ATOM     15 CL   UNL     1      -0.316  13.797  21.520  0.00  0.00    +0.000 Cl
ATOM     16  C   UNL     1       0.422  11.271  20.906  0.00  0.00    +0.000 A 
ENDBRANCH   6  10
BRANCH   2  17
ATOM     17  C   UNL     1       4.483   5.582  19.047  0.00  0.00    +0.000 C 
BRANCH  17  18
ATOM     18  C   UNL     1       3.997   4.162  18.821  0.00  0.00    +0.000 A 
ATOM     19  C   UNL     1       4.429   3.141  19.683  0.00  0.00    +0.000 A 
ATOM     20  C   UNL     1       4.090   1.809  19.443  0.00  0.00    +0.000 A 
ATOM     21  C   UNL     1       3.310   1.479  18.337  0.00  0.00    +0.000 A 
ATOM     22  C   UNL     1       2.841   2.483  17.493  0.00  0.00    +0.000 A 
ATOM     23  C   UNL     1       3.170   3.818  17.739  0.00  0.00    +0.000 A 
ENDBRANCH  17  18
BRANCH  17  24
ATOM     24  O   UNL     1       5.910   5.610  18.910  0.00  0.00    +0.000 OA
ATOM     25  H   UNL     1       6.106   6.248  18.203  0.00  0.00    +0.000 HD
ENDBRANCH  17  24
ENDBRANCH   2  17
TORSDOF 4
ENDMDL
