MODEL 1
REMARK VINA RESULT:      -7.6      0.000      0.000
REMARK  Name = 
REMARK  4 active torsions:
REMARK  status: ('A' for Active; 'I' for Inactive)
REMARK    1  A    between atoms: C_5  and  N_6
REMARK    2  A    between atoms: N_6  and  C_7
REMARK    3  A    between atoms: C_7  and  N_9
REMARK    4  A    between atoms: N_12  and  C_13
REMARK                            x       y       z     vdW  Elec       q    Type
REMARK                         _______ _______ _______ _____ _____    ______ ____
ROOT
ATOM      1  N   UNL     1       1.285   9.614  19.408  0.00  0.00    +0.000 N 
ATOM      2  C   UNL     1       1.564   8.706  18.285  0.00  0.00    +0.000 C 
ATOM      3  C   UNL     1       2.523   7.571  18.665  0.00  0.00    +0.000 C 
ATOM      4  N   UNL     1       2.042   6.875  19.868  0.00  0.00    +0.000 N 
ATOM      5  C   UNL     1       1.777   7.767  21.019  0.00  0.00    +0.000 C 
ATOM      6  C   UNL     1       0.814   8.906  20.613  0.00  0.00    +0.000 C 
ENDROOT
BRANCH   4   7
ATOM      7  C   UNL     1       2.144   5.498  20.032  0.00  0.00    +0.000 A 
ATOM      8  C   UNL     1       0.978   4.798  20.411  0.00  0.00    +0.000 A 
ATOM      9  C   UNL     1       0.926   3.408  20.514  0.00  0.00    +0.000 A 
ATOM     10  C   UNL     1       2.050   2.653  20.213  0.00  0.00    +0.000 A 
ATOM     11  C   UNL     1       3.232   3.296  19.848  0.00  0.00    +0.000 A 
ATOM     12 CL   UNL     1       4.583   2.272  19.476  0.00  0.00    +0.000 Cl
ATOM     13  C   UNL     1       3.301   4.704  19.781  0.00  0.00    +0.000 A 
ATOM     14 CL   UNL     1       4.861   5.427  19.490  0.00  0.00    +0.000 Cl
ENDBRANCH   4   7
BRANCH   1  15
ATOM     15  C   UNL     1       0.840  10.904  19.063  0.00  0.00    +0.000 C 
ATOM     16  S   UNL     1       1.351  12.314  19.810  0.00  0.00    +0.000 S 
BRANCH  15  17
ATOM     17  N   UNL     1       0.004  10.835  17.957  0.00  0.00    +0.000 N 
ATOM     18  H   UNL     1       0.504  10.962  17.086  0.00  0.00    +0.000 HD
BRANCH  17  23
ATOM     19  F   UNL     1      -5.517  10.674  17.795  0.00  0.00    +0.000 F 
ATOM     20  C   UNL     1      -4.179  10.741  17.820  0.00  0.00    +0.000 A 
ATOM     21  C   UNL     1      -3.435   9.818  17.098  0.00  0.00    +0.000 A 
ATOM     22  C   UNL     1      -2.041   9.870  17.146  0.00  0.00    +0.000 A 
ATOM     23  C   UNL     1      -1.398  10.873  17.883  0.00  0.00    +0.000 A 
ATOM     24  C   UNL     1      -2.161  11.796  18.606  0.00  0.00    +0.000 A 
ATOM     25  C   UNL     1      -3.555  11.724  18.579  0.00  0.00    +0.000 A 
ENDBRANCH  17  23
ENDBRANCH  15  17
ENDBRANCH   1  15
TORSDOF 4
ENDMDL
MODEL 2
REMARK VINA RESULT:      -7.6      1.645      2.026
REMARK  Name = 
REMARK  4 active torsions:
REMARK  status: ('A' for Active; 'I' for Inactive)
REMARK    1  A    between atoms: C_5  and  N_6
REMARK    2  A    between atoms: N_6  and  C_7
REMARK    3  A    between atoms: C_7  and  N_9
REMARK    4  A    between atoms: N_12  and  C_13
REMARK                            x       y       z     vdW  Elec       q    Type
REMARK                         _______ _______ _______ _____ _____    ______ ____
ROOT
ATOM      1  N   UNL     1       1.241   9.707  19.264  0.00  0.00    +0.000 N 
ATOM      2  C   UNL     1       1.515   9.381  17.856  0.00  0.00    +0.000 C 
ATOM      3  C   UNL     1       2.679   8.396  17.691  0.00  0.00    +0.000 C 
ATOM      4  N   UNL     1       2.465   7.207  18.531  0.00  0.00    +0.000 N 
ATOM      5  C   UNL     1       2.211   7.510  19.957  0.00  0.00    +0.000 C 
ATOM      6  C   UNL     1       1.040   8.509  20.100  0.00  0.00    +0.000 C 
ENDROOT
BRANCH   4   7
ATOM      7  C   UNL     1       2.800   5.922  18.116  0.00  0.00    +0.000 A 
ATOM      8  C   UNL     1       1.821   4.916  18.259  0.00  0.00    +0.000 A 
ATOM      9  C   UNL     1       1.998   3.612  17.794  0.00  0.00    +0.000 A 
ATOM     10  C   UNL     1       3.170   3.270  17.136  0.00  0.00    +0.000 A 
ATOM     11  C   UNL     1       4.176   4.224  16.981  0.00  0.00    +0.000 A 
ATOM     12 CL   UNL     1       5.601   3.711  16.134  0.00  0.00    +0.000 Cl
ATOM     13  C   UNL     1       4.017   5.533  17.485  0.00  0.00    +0.000 A 
ATOM     14 CL   UNL     1       5.391   6.604  17.405  0.00  0.00    +0.000 Cl
ENDBRANCH   4   7
BRANCH   1  15
ATOM     15  C   UNL     1       0.562  10.917  19.496  0.00  0.00    +0.000 C 
ATOM     16  S   UNL     1       0.761  11.870  20.859  0.00  0.00    +0.000 S 
BRANCH  15  17
ATOM     17  N   UNL     1      -0.211  11.245  18.390  0.00  0.00    +0.000 N 
ATOM     18  H   UNL     1       0.271  11.867  17.753  0.00  0.00    +0.000 HD
BRANCH  17  23
ATOM     19  F   UNL     1      -5.636  10.850  17.418  0.00  0.00    +0.000 F 
ATOM     20  C   UNL     1      -4.321  10.916  17.663  0.00  0.00    +0.000 A 
ATOM     21  C   UNL     1      -3.851  11.784  18.640  0.00  0.00    +0.000 A 
ATOM     22  C   UNL     1      -2.478  11.873  18.877  0.00  0.00    +0.000 A 
ATOM     23  C   UNL     1      -1.585  11.062  18.164  0.00  0.00    +0.000 A 
ATOM     24  C   UNL     1      -2.073  10.194  17.182  0.00  0.00    +0.000 A 
ATOM     25  C   UNL     1      -3.445  10.127  16.927  0.00  0.00    +0.000 A 
ENDBRANCH  17  23
ENDBRANCH  15  17
ENDBRANCH   1  15
TORSDOF 4
ENDMDL
MODEL 3
REMARK VINA RESULT:      -7.4      1.738      1.865
REMARK  Name = 
REMARK  4 active torsions:
REMARK  status: ('A' for Active; 'I' for Inactive)
REMARK    1  A    between atoms: C_5  and  N_6
REMARK    2  A    between atoms: N_6  and  C_7
REMARK    3  A    between atoms: C_7  and  N_9
REMARK    4  A    between atoms: N_12  and  C_13
REMARK                            x       y       z     vdW  Elec       q    Type
REMARK                         _______ _______ _______ _____ _____    ______ ____
ROOT
ATOM      1  N   UNL     1       1.323   9.718  19.265  0.00  0.00    +0.000 N 
ATOM      2  C   UNL     1       1.633   9.410  17.861  0.00  0.00    +0.000 C 
ATOM      3  C   UNL     1       2.781   8.404  17.714  0.00  0.00    +0.000 C 
ATOM      4  N   UNL     1       2.517   7.206  18.526  0.00  0.00    +0.000 N 
ATOM      5  C   UNL     1       2.227   7.490  19.949  0.00  0.00    +0.000 C 
ATOM      6  C   UNL     1       1.072   8.510  20.074  0.00  0.00    +0.000 C 
ENDROOT
BRANCH   4   7
ATOM      7  C   UNL     1       2.838   5.921  18.099  0.00  0.00    +0.000 A 
ATOM      8  C   UNL     1       1.846   4.926  18.226  0.00  0.00    +0.000 A 
ATOM      9  C   UNL     1       2.009   3.625  17.747  0.00  0.00    +0.000 A 
ATOM     10  C   UNL     1       3.179   3.275  17.092  0.00  0.00    +0.000 A 
ATOM     11  C   UNL     1       4.198   4.217  16.952  0.00  0.00    +0.000 A 
ATOM     12 CL   UNL     1       5.621   3.696  16.107  0.00  0.00    +0.000 Cl
ATOM     13  C   UNL     1       4.054   5.523  17.470  0.00  0.00    +0.000 A 
ATOM     14 CL   UNL     1       5.441   6.578  17.408  0.00  0.00    +0.000 Cl
ENDBRANCH   4   7
BRANCH   1  15
ATOM     15  C   UNL     1       0.662  10.939  19.499  0.00  0.00    +0.000 C 
ATOM     16  S   UNL     1       1.389  12.444  19.401  0.00  0.00    +0.000 S 
BRANCH  15  17
ATOM     17  N   UNL     1      -0.690  10.709  19.717  0.00  0.00    +0.000 N 
ATOM     18  H   UNL     1      -0.858  10.146  20.542  0.00  0.00    +0.000 HD
BRANCH  17  23
ATOM     19  F   UNL     1      -5.099  11.183  16.420  0.00  0.00    +0.000 F 
ATOM     20  C   UNL     1      -4.021  11.097  17.212  0.00  0.00    +0.000 A 
ATOM     21  C   UNL     1      -3.035  10.162  16.924  0.00  0.00    +0.000 A 
ATOM     22  C   UNL     1      -1.925  10.054  17.764  0.00  0.00    +0.000 A 
ATOM     23  C   UNL     1      -1.788  10.911  18.864  0.00  0.00    +0.000 A 
ATOM     24  C   UNL     1      -2.789  11.846  19.142  0.00  0.00    +0.000 A 
ATOM     25  C   UNL     1      -3.912  11.933  18.316  0.00  0.00    +0.000 A 
ENDBRANCH  17  23
ENDBRANCH  15  17
ENDBRANCH   1  15
TORSDOF 4
ENDMDL
MODEL 4
REMARK VINA RESULT:      -7.3      1.597      2.008
REMARK  Name = 
REMARK  4 active torsions:
REMARK  status: ('A' for Active; 'I' for Inactive)
REMARK    1  A    between atoms: C_5  and  N_6
REMARK    2  A    between atoms: N_6  and  C_7
REMARK    3  A    between atoms: C_7  and  N_9
REMARK    4  A    between atoms: N_12  and  C_13
REMARK                            x       y       z     vdW  Elec       q    Type
REMARK                         _______ _______ _______ _____ _____    ______ ____
ROOT
ATOM      1  N   UNL     1       1.311   9.431  19.312  0.00  0.00    +0.000 N 
ATOM      2  C   UNL     1       1.572   9.085  17.906  0.00  0.00    +0.000 C 
ATOM      3  C   UNL     1       2.770   8.142  17.740  0.00  0.00    +0.000 C 
ATOM      4  N   UNL     1       2.619   6.965  18.608  0.00  0.00    +0.000 N 
ATOM      5  C   UNL     1       2.379   7.289  20.032  0.00  0.00    +0.000 C 
ATOM      6  C   UNL     1       1.172   8.244  20.177  0.00  0.00    +0.000 C 
ENDROOT
BRANCH   4   7
ATOM      7  C   UNL     1       2.996   5.685  18.214  0.00  0.00    +0.000 A 
ATOM      8  C   UNL     1       4.029   5.576  17.259  0.00  0.00    +0.000 A 
ATOM      9  C   UNL     1       4.564   4.353  16.854  0.00  0.00    +0.000 A 
ATOM     10  C   UNL     1       4.094   3.176  17.418  0.00  0.00    +0.000 A 
ATOM     11  C   UNL     1       3.064   3.227  18.357  0.00  0.00    +0.000 A 
ATOM     12 CL   UNL     1       2.549   1.709  19.020  0.00  0.00    +0.000 Cl
ATOM     13  C   UNL     1       2.492   4.460  18.740  0.00  0.00    +0.000 A 
ATOM     14 CL   UNL     1       1.095   4.417  19.782  0.00  0.00    +0.000 Cl
ENDBRANCH   4   7
BRANCH   1  15
ATOM     15  C   UNL     1       0.589  10.619  19.531  0.00  0.00    +0.000 C 
ATOM     16  S   UNL     1       0.671  11.532  20.933  0.00  0.00    +0.000 S 
BRANCH  15  17
ATOM     17  N   UNL     1      -0.112  10.965  18.383  0.00  0.00    +0.000 N 
ATOM     18  H   UNL     1       0.472  11.430  17.700  0.00  0.00    +0.000 HD
BRANCH  17  23
ATOM     19  F   UNL     1      -5.575  10.779  17.578  0.00  0.00    +0.000 F 
ATOM     20  C   UNL     1      -4.250  10.852  17.760  0.00  0.00    +0.000 A 
ATOM     21  C   UNL     1      -3.420   9.946  17.112  0.00  0.00    +0.000 A 
ATOM     22  C   UNL     1      -2.042  10.005  17.323  0.00  0.00    +0.000 A 
ATOM     23  C   UNL     1      -1.496  10.997  18.148  0.00  0.00    +0.000 A 
ATOM     24  C   UNL     1      -2.344  11.902  18.795  0.00  0.00    +0.000 A 
ATOM     25  C   UNL     1      -3.726  11.823  18.605  0.00  0.00    +0.000 A 
ENDBRANCH  17  23
ENDBRANCH  15  17
ENDBRANCH   1  15
TORSDOF 4
ENDMDL
MODEL 5
REMARK VINA RESULT:      -7.3      1.886      2.575
REMARK  Name = 
REMARK  4 active torsions:
REMARK  status: ('A' for Active; 'I' for Inactive)
REMARK    1  A    between atoms: C_5  and  N_6
REMARK    2  A    between atoms: N_6  and  C_7
REMARK    3  A    between atoms: C_7  and  N_9
REMARK    4  A    between atoms: N_12  and  C_13
REMARK                            x       y       z     vdW  Elec       q    Type
REMARK                         _______ _______ _______ _____ _____    ______ ____
ROOT
ATOM      1  N   UNL     1       1.192   9.202  19.593  0.00  0.00    +0.000 N 
ATOM      2  C   UNL     1       1.414   9.107  18.142  0.00  0.00    +0.000 C 
ATOM      3  C   UNL     1       2.721   8.387  17.788  0.00  0.00    +0.000 C 
ATOM      4  N   UNL     1       2.790   7.086  18.471  0.00  0.00    +0.000 N 
ATOM      5  C   UNL     1       2.593   7.160  19.936  0.00  0.00    +0.000 C 
ATOM      6  C   UNL     1       1.274   7.894  20.271  0.00  0.00    +0.000 C 
ENDROOT
BRANCH   4   7
ATOM      7  C   UNL     1       3.320   5.948  17.872  0.00  0.00    +0.000 A 
ATOM      8  C   UNL     1       4.458   6.112  17.054  0.00  0.00    +0.000 A 
ATOM      9  C   UNL     1       5.140   5.041  16.477  0.00  0.00    +0.000 A 
ATOM     10  C   UNL     1       4.715   3.743  16.720  0.00  0.00    +0.000 A 
ATOM     11  C   UNL     1       3.586   3.526  17.510  0.00  0.00    +0.000 A 
ATOM     12 CL   UNL     1       3.135   1.872  17.773  0.00  0.00    +0.000 Cl
ATOM     13  C   UNL     1       2.870   4.609  18.064  0.00  0.00    +0.000 A 
ATOM     14 CL   UNL     1       1.374   4.256  18.888  0.00  0.00    +0.000 Cl
ENDBRANCH   4   7
BRANCH   1  15
ATOM     15  C   UNL     1       0.325  10.224  20.019  0.00  0.00    +0.000 C 
ATOM     16  S   UNL     1       0.144  10.712  21.611  0.00  0.00    +0.000 S 
BRANCH  15  17
ATOM     17  N   UNL     1      -0.272  10.826  18.919  0.00  0.00    +0.000 N 
ATOM     18  H   UNL     1       0.324  11.522  18.488  0.00  0.00    +0.000 HD
BRANCH  17  23
ATOM     19  F   UNL     1      -5.503  11.049  17.153  0.00  0.00    +0.000 F 
ATOM     20  C   UNL     1      -4.240  10.966  17.592  0.00  0.00    +0.000 A 
ATOM     21  C   UNL     1      -3.809  11.822  18.597  0.00  0.00    +0.000 A 
ATOM     22  C   UNL     1      -2.485  11.754  19.035  0.00  0.00    +0.000 A 
ATOM     23  C   UNL     1      -1.611  10.801  18.495  0.00  0.00    +0.000 A 
ATOM     24  C   UNL     1      -2.060   9.947  17.483  0.00  0.00    +0.000 A 
ATOM     25  C   UNL     1      -3.377  10.036  17.026  0.00  0.00    +0.000 A 
ENDBRANCH  17  23
ENDBRANCH  15  17
ENDBRANCH   1  15
TORSDOF 4
ENDMDL
MODEL 6
REMARK VINA RESULT:      -7.3      4.800      8.513
REMARK  Name = 
REMARK  4 active torsions:
REMARK  status: ('A' for Active; 'I' for Inactive)
REMARK    1  A    between atoms: C_5  and  N_6
REMARK    2  A    between atoms: N_6  and  C_7
REMARK    3  A    between atoms: C_7  and  N_9
REMARK    4  A    between atoms: N_12  and  C_13
REMARK                            x       y       z     vdW  Elec       q    Type
REMARK                         _______ _______ _______ _____ _____    ______ ____
ROOT
ATOM      1  N   UNL     1       2.685   6.818  19.460  0.00  0.00    +0.000 N 
ATOM      2  C   UNL     1       1.646   7.285  20.390  0.00  0.00    +0.000 C 
ATOM      3  C   UNL     1       1.442   8.804  20.337  0.00  0.00    +0.000 C 
ATOM      4  N   UNL     1       1.217   9.241  18.951  0.00  0.00    +0.000 N 
ATOM      5  C   UNL     1       2.264   8.803  18.000  0.00  0.00    +0.000 C 
ATOM      6  C   UNL     1       2.458   7.271  18.074  0.00  0.00    +0.000 C 
ENDROOT
BRANCH   4   7
ATOM      7  C   UNL     1       0.312  10.243  18.614  0.00  0.00    +0.000 A 
ATOM      8  C   UNL     1      -0.851   9.860  17.912  0.00  0.00    +0.000 A 
ATOM      9  C   UNL     1      -1.879  10.751  17.603  0.00  0.00    +0.000 A 
ATOM     10  C   UNL     1      -1.790  12.073  18.012  0.00  0.00    +0.000 A 
ATOM     11  C   UNL     1      -0.654  12.506  18.696  0.00  0.00    +0.000 A 
ATOM     12 CL   UNL     1      -0.636  14.172  19.182  0.00  0.00    +0.000 Cl
ATOM     13  C   UNL     1       0.406  11.618  18.977  0.00  0.00    +0.000 A 
ATOM     14 CL   UNL     1       1.858  12.283  19.676  0.00  0.00    +0.000 Cl
ENDBRANCH   4   7
BRANCH   1  15
ATOM     15  C   UNL     1       3.276   5.577  19.765  0.00  0.00    +0.000 C 
ATOM     16  S   UNL     1       2.448   4.262  20.390  0.00  0.00    +0.000 S 
BRANCH  15  17
ATOM     17  N   UNL     1       4.609   5.581  19.376  0.00  0.00    +0.000 N 
ATOM     18  H   UNL     1       5.166   6.233  19.913  0.00  0.00    +0.000 HD
BRANCH  17  23
ATOM     19  F   UNL     1       6.827   3.653  14.697  0.00  0.00    +0.000 F 
ATOM     20  C   UNL     1       6.304   4.097  15.847  0.00  0.00    +0.000 A 
ATOM     21  C   UNL     1       4.927   4.067  16.029  0.00  0.00    +0.000 A 
ATOM     22  C   UNL     1       4.380   4.555  17.216  0.00  0.00    +0.000 A 
ATOM     23  C   UNL     1       5.216   5.033  18.234  0.00  0.00    +0.000 A 
ATOM     24  C   UNL     1       6.600   5.059  18.036  0.00  0.00    +0.000 A 
ATOM     25  C   UNL     1       7.144   4.596  16.836  0.00  0.00    +0.000 A 
ENDBRANCH  17  23
ENDBRANCH  15  17
ENDBRANCH   1  15
TORSDOF 4
ENDMDL
MODEL 7
REMARK VINA RESULT:      -7.2      1.650      2.204
REMARK  Name = 
REMARK  4 active torsions:
REMARK  status: ('A' for Active; 'I' for Inactive)
REMARK    1  A    between atoms: C_5  and  N_6
REMARK    2  A    between atoms: N_6  and  C_7
REMARK    3  A    between atoms: C_7  and  N_9
REMARK    4  A    between atoms: N_12  and  C_13
REMARK                            x       y       z     vdW  Elec       q    Type
REMARK                         _______ _______ _______ _____ _____    ______ ____
ROOT
ATOM      1  N   UNL     1       1.444   9.566  19.178  0.00  0.00    +0.000 N 
ATOM      2  C   UNL     1       1.787   9.127  17.817  0.00  0.00    +0.000 C 
ATOM      3  C   UNL     1       2.884   8.056  17.797  0.00  0.00    +0.000 C 
ATOM      4  N   UNL     1       2.529   6.944  18.693  0.00  0.00    +0.000 N 
ATOM      5  C   UNL     1       2.204   7.359  20.076  0.00  0.00    +0.000 C 
ATOM      6  C   UNL     1       1.101   8.443  20.072  0.00  0.00    +0.000 C 
ENDROOT
BRANCH   4   7
ATOM      7  C   UNL     1       2.797   5.614  18.385  0.00  0.00    +0.000 A 
ATOM      8  C   UNL     1       3.781   5.358  17.406  0.00  0.00    +0.000 A 
ATOM      9  C   UNL     1       4.209   4.071  17.078  0.00  0.00    +0.000 A 
ATOM     10  C   UNL     1       3.677   2.978  17.745  0.00  0.00    +0.000 A 
ATOM     11  C   UNL     1       2.690   3.175  18.711  0.00  0.00    +0.000 A 
ATOM     12 CL   UNL     1       2.092   1.753  19.504  0.00  0.00    +0.000 Cl
ATOM     13  C   UNL     1       2.226   4.472  19.018  0.00  0.00    +0.000 A 
ATOM     14 CL   UNL     1       0.871   4.612  20.107  0.00  0.00    +0.000 Cl
ENDBRANCH   4   7
BRANCH   1  15
ATOM     15  C   UNL     1       0.841  10.832  19.285  0.00  0.00    +0.000 C 
ATOM     16  S   UNL     1       1.627  12.284  19.003  0.00  0.00    +0.000 S 
BRANCH  15  17
ATOM     17  N   UNL     1      -0.514  10.689  19.556  0.00  0.00    +0.000 N 
ATOM     18  H   UNL     1      -0.686  10.329  20.486  0.00  0.00    +0.000 HD
BRANCH  17  23
ATOM     19  F   UNL     1      -4.790  11.141  16.087  0.00  0.00    +0.000 F 
ATOM     20  C   UNL     1      -3.761  11.002  16.933  0.00  0.00    +0.000 A 
ATOM     21  C   UNL     1      -3.740  11.737  18.111  0.00  0.00    +0.000 A 
ATOM     22  C   UNL     1      -2.655  11.612  18.979  0.00  0.00    +0.000 A 
ATOM     23  C   UNL     1      -1.615  10.720  18.685  0.00  0.00    +0.000 A 
ATOM     24  C   UNL     1      -1.649   9.987  17.495  0.00  0.00    +0.000 A 
ATOM     25  C   UNL     1      -2.723  10.135  16.613  0.00  0.00    +0.000 A 
ENDBRANCH  17  23
ENDBRANCH  15  17
ENDBRANCH   1  15
TORSDOF 4
ENDMDL
MODEL 8
REMARK VINA RESULT:      -7.2      5.149      8.408
REMARK  Name = 
REMARK  4 active torsions:
REMARK  status: ('A' for Active; 'I' for Inactive)
REMARK    1  A    between atoms: C_5  and  N_6
REMARK    2  A    between atoms: N_6  and  C_7
REMARK    3  A    between atoms: C_7  and  N_9
REMARK    4  A    between atoms: N_12  and  C_13
REMARK                            x       y       z     vdW  Elec       q    Type
REMARK                         _______ _______ _______ _____ _____    ______ ____
ROOT
ATOM      1  N   UNL     1       3.114   4.853  18.771  0.00  0.00    +0.000 N 
ATOM      2  C   UNL     1       2.024   4.796  19.756  0.00  0.00    +0.000 C 
ATOM      3  C   UNL     1       2.022   5.997  20.710  0.00  0.00    +0.000 C 
ATOM      4  N   UNL     1       2.049   7.255  19.947  0.00  0.00    +0.000 N 
ATOM      5  C   UNL     1       3.153   7.345  18.966  0.00  0.00    +0.000 C 
ATOM      6  C   UNL     1       3.140   6.122  18.020  0.00  0.00    +0.000 C 
ENDROOT
BRANCH   4   7
ATOM      7  C   UNL     1       1.333   8.384  20.332  0.00  0.00    +0.000 A 
ATOM      8  C   UNL     1       1.051   8.539  21.706  0.00  0.00    +0.000 A 
ATOM      9  C   UNL     1       0.427   9.671  22.230  0.00  0.00    +0.000 A 
ATOM     10  C   UNL     1       0.080  10.717  21.388  0.00  0.00    +0.000 A 
ATOM     11  C   UNL     1       0.323  10.608  20.019  0.00  0.00    +0.000 A 
ATOM     12 CL   UNL     1      -0.131  11.970  19.045  0.00  0.00    +0.000 Cl
ATOM     13  C   UNL     1       0.918   9.447  19.479  0.00  0.00    +0.000 A 
ATOM     14 CL   UNL     1       1.023   9.323  17.743  0.00  0.00    +0.000 Cl
ENDBRANCH   4   7
BRANCH   1  15
ATOM     15  C   UNL     1       3.495   3.625  18.199  0.00  0.00    +0.000 C 
ATOM     16  S   UNL     1       2.426   2.415  17.753  0.00  0.00    +0.000 S 
BRANCH  15  17
ATOM     17  N   UNL     1       4.865   3.614  17.971  0.00  0.00    +0.000 N 
ATOM     18  H   UNL     1       5.398   3.504  18.825  0.00  0.00    +0.000 HD
BRANCH  17  23
ATOM     19  F   UNL     1       7.479   5.268  13.392  0.00  0.00    +0.000 F 
ATOM     20  C   UNL     1       6.867   4.845  14.506  0.00  0.00    +0.000 A 
ATOM     21  C   UNL     1       5.589   4.308  14.422  0.00  0.00    +0.000 A 
ATOM     22  C   UNL     1       4.940   3.893  15.587  0.00  0.00    +0.000 A 
ATOM     23  C   UNL     1       5.590   3.977  16.825  0.00  0.00    +0.000 A 
ATOM     24  C   UNL     1       6.877   4.521  16.894  0.00  0.00    +0.000 A 
ATOM     25  C   UNL     1       7.513   4.962  15.731  0.00  0.00    +0.000 A 
ENDBRANCH  17  23
ENDBRANCH  15  17
ENDBRANCH   1  15
TORSDOF 4
ENDMDL
MODEL 9
REMARK VINA RESULT:      -7.2      4.961      8.196
REMARK  Name = 
REMARK  4 active torsions:
REMARK  status: ('A' for Active; 'I' for Inactive)
REMARK    1  A    between atoms: C_5  and  N_6
REMARK    2  A    between atoms: N_6  and  C_7
REMARK    3  A    between atoms: C_7  and  N_9
REMARK    4  A    between atoms: N_12  and  C_13
REMARK                            x       y       z     vdW  Elec       q    Type
REMARK                         _______ _______ _______ _____ _____    ______ ____
ROOT
ATOM      1  N   UNL     1       2.829   5.507  18.437  0.00  0.00    +0.000 N 
ATOM      2  C   UNL     1       2.081   5.250  19.678  0.00  0.00    +0.000 C 
ATOM      3  C   UNL     1       2.123   6.434  20.651  0.00  0.00    +0.000 C 
ATOM      4  N   UNL     1       1.710   7.671  19.971  0.00  0.00    +0.000 N 
ATOM      5  C   UNL     1       2.465   7.963  18.732  0.00  0.00    +0.000 C 
ATOM      6  C   UNL     1       2.415   6.755  17.768  0.00  0.00    +0.000 C 
ENDROOT
BRANCH   4   7
ATOM      7  C   UNL     1       0.934   8.647  20.588  0.00  0.00    +0.000 A 
ATOM      8  C   UNL     1       0.877   8.638  21.998  0.00  0.00    +0.000 A 
ATOM      9  C   UNL     1       0.216   9.618  22.738  0.00  0.00    +0.000 A 
ATOM     10  C   UNL     1      -0.403  10.673  22.084  0.00  0.00    +0.000 A 
ATOM     11  C   UNL     1      -0.389  10.721  20.690  0.00  0.00    +0.000 A 
ATOM     12 CL   UNL     1      -1.176  12.084  19.958  0.00  0.00    +0.000 Cl
ATOM     13  C   UNL     1       0.245   9.711  19.936  0.00  0.00    +0.000 A 
ATOM     14 CL   UNL     1       0.061   9.756  18.203  0.00  0.00    +0.000 Cl
ENDBRANCH   4   7
BRANCH   1  15
ATOM     15  C   UNL     1       3.254   4.370  17.726  0.00  0.00    +0.000 C 
ATOM     16  S   UNL     1       2.386   2.942  17.613  0.00  0.00    +0.000 S 
BRANCH  15  17
ATOM     17  N   UNL     1       4.440   4.647  17.058  0.00  0.00    +0.000 N 
ATOM     18  H   UNL     1       4.523   4.133  16.190  0.00  0.00    +0.000 HD
BRANCH  17  23
ATOM     19  F   UNL     1       8.812   7.502  18.867  0.00  0.00    +0.000 F 
ATOM     20  C   UNL     1       7.770   6.785  18.424  0.00  0.00    +0.000 A 
ATOM     21  C   UNL     1       7.124   7.168  17.256  0.00  0.00    +0.000 A 
ATOM     22  C   UNL     1       6.022   6.437  16.809  0.00  0.00    +0.000 A 
ATOM     23  C   UNL     1       5.597   5.301  17.510  0.00  0.00    +0.000 A 
ATOM     24  C   UNL     1       6.257   4.928  18.685  0.00  0.00    +0.000 A 
ATOM     25  C   UNL     1       7.342   5.677  19.146  0.00  0.00    +0.000 A 
ENDBRANCH  17  23
ENDBRANCH  15  17
ENDBRANCH   1  15
TORSDOF 4
ENDMDL
