MODEL 1
REMARK VINA RESULT:      -8.0      0.000      0.000
REMARK  Name = 
REMARK  14 active torsions:
REMARK  status: ('A' for Active; 'I' for Inactive)
REMARK    1  A    between atoms: CD1_1  and  CG_2
REMARK    2  A    between atoms: CG_2  and  CD2_3
REMARK    3  A    between atoms: CG_2  and  CB_4
REMARK    4  A    between atoms: CB_4  and  CA_5
REMARK    5  A    between atoms: CA_5  and  N_6
REMARK    6  A    between atoms: CA_5  and  C_19
REMARK    7  A    between atoms: C_7  and  O_9
REMARK    8  A    between atoms: O_9  and  C_10
REMARK    9  A    between atoms: C_10  and  C_11
REMARK   10  A    between atoms: C_11  and  C_12
REMARK   11  A    between atoms: N_21  and  C_22
REMARK   12  A    between atoms: C_22  and  C_23
REMARK   13  A    between atoms: C_22  and  C_25
REMARK   14  A    between atoms: C_25  and  C_26
REMARK                            x       y       z     vdW  Elec       q    Type
REMARK                         _______ _______ _______ _____ _____    ______ ____
ROOT
ATOM      1  CA  LEU A   1       2.629   6.239  19.264  0.00  0.00    +0.000 C 
ENDROOT
BRANCH   1   2
ATOM      2  N   LEU A   1       4.095   6.187  19.512  0.00  0.00    +0.000 N 
ATOM      3  C   UNK A   0       4.856   5.137  19.050  0.00  0.00    +0.000 C 
ATOM      4  O   UNK A   0       5.708   4.588  19.734  0.00  0.00    +0.000 OA
ATOM      5  H   LEU A   1       4.403   6.470  20.430  0.00  0.00    +0.000 HD
BRANCH   3   6
ATOM      6  O   UNK A   0       4.510   4.782  17.805  0.00  0.00    +0.000 OA
BRANCH   6   7
ATOM      7  C   UNK A   0       5.127   5.412  16.673  0.00  0.00    +0.000 C 
BRANCH   7   8
ATOM      8  C   UNK A   0       6.282   4.496  16.218  0.00  0.00    +0.000 C 
BRANCH   8   9
ATOM      9  C   UNK A   0       6.605   4.449  14.729  0.00  0.00    +0.000 A 
ATOM     10  C   UNK A   0       7.564   5.269  14.118  0.00  0.00    +0.000 A 
ATOM     11  C   UNK A   0       7.782   5.226  12.735  0.00  0.00    +0.000 A 
ATOM     12  C   UNK A   0       7.026   4.374  11.934  0.00  0.00    +0.000 A 
ATOM     13  C   UNK A   0       6.068   3.555  12.520  0.00  0.00    +0.000 A 
ATOM     14 CL   UNK A   0       5.078   2.557  11.529  0.00  0.00    +0.000 Cl
ATOM     15  C   UNK A   0       5.874   3.569  13.906  0.00  0.00    +0.000 A 
ENDBRANCH   8   9
ENDBRANCH   7   8
ENDBRANCH   6   7
ENDBRANCH   3   6
ENDBRANCH   1   2
BRANCH   1  16
ATOM     16  C   LEU A   1       2.319   7.698  18.778  0.00  0.00    +0.000 C 
ATOM     17  O   LEU A   1       2.791   8.197  17.765  0.00  0.00    +0.000 OA
ATOM     18  N   UNK A   2       1.486   8.422  19.629  0.00  0.00    +0.000 N 
ATOM     19  H   UNK A   2       1.329   8.067  20.563  0.00  0.00    +0.000 HD
BRANCH  18  20
ATOM     20  C   UNK A   2       1.131   9.827  19.364  0.00  0.00    +0.000 C 
BRANCH  20  21
ATOM     21  C   UNK A   2       0.583  10.436  20.648  0.00  0.00    +0.000 C 
ATOM     22  O   UNK A   2       0.140   9.769  21.582  0.00  0.00    +0.000 OA
ENDBRANCH  20  21
BRANCH  20  23
ATOM     23  C   UNK A   2       0.063   9.895  18.252  0.00  0.00    +0.000 C 
BRANCH  23  24
ATOM     24  C   UNK A   2      -1.235  10.638  18.615  0.00  0.00    +0.000 C 
ATOM     25  C   UNK A   2      -2.465  10.025  17.915  0.00  0.00    +0.000 C 
ATOM     26  C   UNK A   2      -2.483  10.697  16.552  0.00  0.00    +0.000 C 
ATOM     27  N   UNK A   2      -1.939  11.992  16.833  0.00  0.00    +0.000 N 
ATOM     28  C   UNK A   2      -1.257  12.034  18.030  0.00  0.00    +0.000 C 
ATOM     29  O   UNK A   2      -0.720  13.015  18.513  0.00  0.00    +0.000 OA
ATOM     30  H   UNK A   2      -2.043  12.817  16.254  0.00  0.00    +0.000 HD
ENDBRANCH  23  24
ENDBRANCH  20  23
ENDBRANCH  18  20
ENDBRANCH   1  16
BRANCH   1  31
ATOM     31  CB  LEU A   1       1.788   5.701  20.445  0.00  0.00    +0.000 C 
BRANCH  31  33
ATOM     32  CD1 LEU A   1       1.371   3.658  18.998  0.00  0.00    +0.000 C 
ATOM     33  CG  LEU A   1       1.192   4.287  20.367  0.00  0.00    +0.000 C 
ATOM     34  CD2 LEU A   1       1.849   3.399  21.435  0.00  0.00    +0.000 C 
ENDBRANCH  31  33
ENDBRANCH   1  31
TORSDOF 12
ENDMDL
MODEL 2
REMARK VINA RESULT:      -7.8      3.471      8.899
REMARK  Name = 
REMARK  14 active torsions:
REMARK  status: ('A' for Active; 'I' for Inactive)
REMARK    1  A    between atoms: CD1_1  and  CG_2
REMARK    2  A    between atoms: CG_2  and  CD2_3
REMARK    3  A    between atoms: CG_2  and  CB_4
REMARK    4  A    between atoms: CB_4  and  CA_5
REMARK    5  A    between atoms: CA_5  and  N_6
REMARK    6  A    between atoms: CA_5  and  C_19
REMARK    7  A    between atoms: C_7  and  O_9
REMARK    8  A    between atoms: O_9  and  C_10
REMARK    9  A    between atoms: C_10  and  C_11
REMARK   10  A    between atoms: C_11  and  C_12
REMARK   11  A    between atoms: N_21  and  C_22
REMARK   12  A    between atoms: C_22  and  C_23
REMARK   13  A    between atoms: C_22  and  C_25
REMARK   14  A    between atoms: C_25  and  C_26
REMARK                            x       y       z     vdW  Elec       q    Type
REMARK                         _______ _______ _______ _____ _____    ______ ____
ROOT
ATOM      1  CA  LEU A   1       3.196   5.212  19.432  0.00  0.00    +0.000 C 
ENDROOT
BRANCH   1   2
ATOM      2  N   LEU A   1       3.303   6.554  18.799  0.00  0.00    +0.000 N 
ATOM      3  C   UNK A   0       2.449   7.574  19.151  0.00  0.00    +0.000 C 
ATOM      4  O   UNK A   0       1.920   8.307  18.327  0.00  0.00    +0.000 OA
ATOM      5  H   LEU A   1       3.479   6.567  17.805  0.00  0.00    +0.000 HD
BRANCH   3   6
ATOM      6  O   UNK A   0       2.248   7.621  20.475  0.00  0.00    +0.000 OA
BRANCH   6   7
ATOM      7  C   UNK A   0       0.919   7.743  21.003  0.00  0.00    +0.000 C 
BRANCH   7   8
ATOM      8  C   UNK A   0       0.956   8.859  22.069  0.00  0.00    +0.000 C 
BRANCH   8   9
ATOM      9  C   UNK A   0       0.004  10.036  21.895  0.00  0.00    +0.000 A 
ATOM     10  C   UNK A   0      -0.688  10.637  22.957  0.00  0.00    +0.000 A 
ATOM     11  C   UNK A   0      -1.595  11.680  22.735  0.00  0.00    +0.000 A 
ATOM     12  C   UNK A   0      -1.844  12.127  21.440  0.00  0.00    +0.000 A 
ATOM     13  C   UNK A   0      -1.171  11.542  20.373  0.00  0.00    +0.000 A 
ATOM     14 CL   UNK A   0      -1.531  12.036  18.765  0.00  0.00    +0.000 Cl
ATOM     15  C   UNK A   0      -0.236  10.525  20.596  0.00  0.00    +0.000 A 
ENDBRANCH   8   9
ENDBRANCH   7   8
ENDBRANCH   6   7
ENDBRANCH   3   6
ENDBRANCH   1   2
BRANCH   1  16
ATOM     16  C   LEU A   1       4.604   4.539  19.272  0.00  0.00    +0.000 C 
ATOM     17  O   LEU A   1       4.857   3.392  19.615  0.00  0.00    +0.000 OA
ATOM     18  N   UNK A   2       5.584   5.378  18.745  0.00  0.00    +0.000 N 
ATOM     19  H   UNK A   2       5.400   6.372  18.715  0.00  0.00    +0.000 HD
BRANCH  18  20
ATOM     20  C   UNK A   2       6.979   4.937  18.575  0.00  0.00    +0.000 C 
BRANCH  20  21
ATOM     21  C   UNK A   2       7.899   6.058  19.037  0.00  0.00    +0.000 C 
ATOM     22  O   UNK A   2       8.102   7.082  18.386  0.00  0.00    +0.000 OA
ENDBRANCH  20  21
BRANCH  20  23
ATOM     23  C   UNK A   2       7.248   4.614  17.090  0.00  0.00    +0.000 C 
BRANCH  23  24
ATOM     24  C   UNK A   2       6.000   4.454  16.202  0.00  0.00    +0.000 C 
ATOM     25  C   UNK A   2       6.291   3.606  14.947  0.00  0.00    +0.000 C 
ATOM     26  C   UNK A   2       6.849   4.608  13.950  0.00  0.00    +0.000 C 
ATOM     27  N   UNK A   2       6.161   5.815  14.297  0.00  0.00    +0.000 N 
ATOM     28  C   UNK A   2       5.606   5.766  15.558  0.00  0.00    +0.000 C 
ATOM     29  O   UNK A   2       4.952   6.648  16.086  0.00  0.00    +0.000 OA
ATOM     30  H   UNK A   2       6.050   6.626  13.701  0.00  0.00    +0.000 HD
ENDBRANCH  23  24
ENDBRANCH  20  23
ENDBRANCH  18  20
ENDBRANCH   1  16
BRANCH   1  31
ATOM     31  CB  LEU A   1       1.972   4.400  18.945  0.00  0.00    +0.000 C 
BRANCH  31  33
ATOM     32  CD1 LEU A   1       1.653   1.956  19.549  0.00  0.00    +0.000 C 
ATOM     33  CG  LEU A   1       1.307   3.392  19.894  0.00  0.00    +0.000 C 
ATOM     34  CD2 LEU A   1       1.736   3.694  21.338  0.00  0.00    +0.000 C 
ENDBRANCH  31  33
ENDBRANCH   1  31
TORSDOF 12
ENDMDL
MODEL 3
REMARK VINA RESULT:      -7.6      1.358      1.846
REMARK  Name = 
REMARK  14 active torsions:
REMARK  status: ('A' for Active; 'I' for Inactive)
REMARK    1  A    between atoms: CD1_1  and  CG_2
REMARK    2  A    between atoms: CG_2  and  CD2_3
REMARK    3  A    between atoms: CG_2  and  CB_4
REMARK    4  A    between atoms: CB_4  and  CA_5
REMARK    5  A    between atoms: CA_5  and  N_6
REMARK    6  A    between atoms: CA_5  and  C_19
REMARK    7  A    between atoms: C_7  and  O_9
REMARK    8  A    between atoms: O_9  and  C_10
REMARK    9  A    between atoms: C_10  and  C_11
REMARK   10  A    between atoms: C_11  and  C_12
REMARK   11  A    between atoms: N_21  and  C_22
REMARK   12  A    between atoms: C_22  and  C_23
REMARK   13  A    between atoms: C_22  and  C_25
REMARK   14  A    between atoms: C_25  and  C_26
REMARK                            x       y       z     vdW  Elec       q    Type
REMARK                         _______ _______ _______ _____ _____    ______ ____
ROOT
ATOM      1  CA  LEU A   1       2.673   5.704  19.550  0.00  0.00    +0.000 C 
ENDROOT
BRANCH   1   2
ATOM      2  N   LEU A   1       4.159   5.653  19.596  0.00  0.00    +0.000 N 
ATOM      3  C   UNK A   0       4.856   4.666  18.937  0.00  0.00    +0.000 C 
ATOM      4  O   UNK A   0       5.794   4.068  19.445  0.00  0.00    +0.000 OA
ATOM      5  H   LEU A   1       4.586   5.852  20.489  0.00  0.00    +0.000 HD
BRANCH   3   6
ATOM      6  O   UNK A   0       4.349   4.427  17.720  0.00  0.00    +0.000 OA
BRANCH   6   7
ATOM      7  C   UNK A   0       4.801   5.179  16.585  0.00  0.00    +0.000 C 
BRANCH   7   8
ATOM      8  C   UNK A   0       6.225   4.685  16.251  0.00  0.00    +0.000 C 
BRANCH   8   9
ATOM      9  C   UNK A   0       6.611   4.576  14.781  0.00  0.00    +0.000 A 
ATOM     10  C   UNK A   0       7.619   5.348  14.186  0.00  0.00    +0.000 A 
ATOM     11  C   UNK A   0       7.896   5.250  12.817  0.00  0.00    +0.000 A 
ATOM     12  C   UNK A   0       7.152   4.391  12.012  0.00  0.00    +0.000 A 
ATOM     13  C   UNK A   0       6.146   3.619  12.583  0.00  0.00    +0.000 A 
ATOM     14 CL   UNK A   0       5.172   2.614  11.583  0.00  0.00    +0.000 Cl
ATOM     15  C   UNK A   0       5.892   3.688  13.957  0.00  0.00    +0.000 A 
ENDBRANCH   8   9
ENDBRANCH   7   8
ENDBRANCH   6   7
ENDBRANCH   3   6
ENDBRANCH   1   2
BRANCH   1  16
ATOM     16  C   LEU A   1       2.285   7.224  19.588  0.00  0.00    +0.000 C 
ATOM     17  O   LEU A   1       2.488   8.004  18.668  0.00  0.00    +0.000 OA
ATOM     18  N   UNK A   2       1.726   7.643  20.793  0.00  0.00    +0.000 N 
ATOM     19  H   UNK A   2       1.810   7.038  21.599  0.00  0.00    +0.000 HD
BRANCH  18  20
ATOM     20  C   UNK A   2       1.351   9.048  21.032  0.00  0.00    +0.000 C 
BRANCH  20  21
ATOM     21  C   UNK A   2       1.288   9.281  22.536  0.00  0.00    +0.000 C 
ATOM     22  O   UNK A   2       0.428   9.972  23.080  0.00  0.00    +0.000 OA
ENDBRANCH  20  21
BRANCH  20  23
ATOM     23  C   UNK A   2      -0.025   9.337  20.397  0.00  0.00    +0.000 C 
BRANCH  23  24
ATOM     24  C   UNK A   2      -0.032  10.366  19.251  0.00  0.00    +0.000 C 
ATOM     25  C   UNK A   2       1.232  11.250  19.264  0.00  0.00    +0.000 C 
ATOM     26  C   UNK A   2       0.888  12.363  20.241  0.00  0.00    +0.000 C 
ATOM     27  N   UNK A   2      -0.526  12.509  20.067  0.00  0.00    +0.000 N 
ATOM     28  C   UNK A   2      -1.102  11.416  19.456  0.00  0.00    +0.000 C 
ATOM     29  O   UNK A   2      -2.281  11.295  19.173  0.00  0.00    +0.000 OA
ATOM     30  H   UNK A   2      -1.074  13.319  20.329  0.00  0.00    +0.000 HD
ENDBRANCH  23  24
ENDBRANCH  20  23
ENDBRANCH  18  20
ENDBRANCH   1  16
BRANCH   1  31
ATOM     31  CB  LEU A   1       1.996   4.783  20.592  0.00  0.00    +0.000 C 
BRANCH  31  33
ATOM     32  CD1 LEU A   1       2.517   2.540  21.661  0.00  0.00    +0.000 C 
ATOM     33  CG  LEU A   1       2.057   3.259  20.407  0.00  0.00    +0.000 C 
ATOM     34  CD2 LEU A   1       0.670   2.742  19.994  0.00  0.00    +0.000 C 
ENDBRANCH  31  33
ENDBRANCH   1  31
TORSDOF 12
ENDMDL
MODEL 4
REMARK VINA RESULT:      -7.4      1.169      1.565
REMARK  Name = 
REMARK  14 active torsions:
REMARK  status: ('A' for Active; 'I' for Inactive)
REMARK    1  A    between atoms: CD1_1  and  CG_2
REMARK    2  A    between atoms: CG_2  and  CD2_3
REMARK    3  A    between atoms: CG_2  and  CB_4
REMARK    4  A    between atoms: CB_4  and  CA_5
REMARK    5  A    between atoms: CA_5  and  N_6
REMARK    6  A    between atoms: CA_5  and  C_19
REMARK    7  A    between atoms: C_7  and  O_9
REMARK    8  A    between atoms: O_9  and  C_10
REMARK    9  A    between atoms: C_10  and  C_11
REMARK   10  A    between atoms: C_11  and  C_12
REMARK   11  A    between atoms: N_21  and  C_22
REMARK   12  A    between atoms: C_22  and  C_23
REMARK   13  A    between atoms: C_22  and  C_25
REMARK   14  A    between atoms: C_25  and  C_26
REMARK                            x       y       z     vdW  Elec       q    Type
REMARK                         _______ _______ _______ _____ _____    ______ ____
ROOT
ATOM      1  CA  LEU A   1       2.760   6.034  18.955  0.00  0.00    +0.000 C 
ENDROOT
BRANCH   1   2
ATOM      2  N   LEU A   1       4.191   5.939  19.351  0.00  0.00    +0.000 N 
ATOM      3  C   UNK A   0       4.926   4.806  19.086  0.00  0.00    +0.000 C 
ATOM      4  O   UNK A   0       5.678   4.300  19.907  0.00  0.00    +0.000 OA
ATOM      5  H   LEU A   1       4.430   6.312  20.257  0.00  0.00    +0.000 HD
BRANCH   3   6
ATOM      6  O   UNK A   0       4.676   4.325  17.860  0.00  0.00    +0.000 OA
BRANCH   6   7
ATOM      7  C   UNK A   0       5.602   4.553  16.788  0.00  0.00    +0.000 C 
BRANCH   7   8
ATOM      8  C   UNK A   0       4.867   4.212  15.474  0.00  0.00    +0.000 C 
BRANCH   8   9
ATOM      9  C   UNK A   0       5.682   4.209  14.186  0.00  0.00    +0.000 A 
ATOM     10  C   UNK A   0       5.403   3.374  13.095  0.00  0.00    +0.000 A 
ATOM     11  C   UNK A   0       6.218   3.371  11.957  0.00  0.00    +0.000 A 
ATOM     12  C   UNK A   0       7.343   4.188  11.899  0.00  0.00    +0.000 A 
ATOM     13  C   UNK A   0       7.640   5.021  12.972  0.00  0.00    +0.000 A 
ATOM     14 CL   UNK A   0       9.070   5.976  12.941  0.00  0.00    +0.000 Cl
ATOM     15  C   UNK A   0       6.806   5.054  14.096  0.00  0.00    +0.000 A 
ENDBRANCH   8   9
ENDBRANCH   7   8
ENDBRANCH   6   7
ENDBRANCH   3   6
ENDBRANCH   1   2
BRANCH   1  16
ATOM     16  C   LEU A   1       2.485   7.552  18.667  0.00  0.00    +0.000 C 
ATOM     17  O   LEU A   1       3.073   8.204  17.816  0.00  0.00    +0.000 OA
ATOM     18  N   UNK A   2       1.534   8.131  19.505  0.00  0.00    +0.000 N 
ATOM     19  H   UNK A   2       1.264   7.633  20.343  0.00  0.00    +0.000 HD
BRANCH  18  20
ATOM     20  C   UNK A   2       1.187   9.560  19.420  0.00  0.00    +0.000 C 
BRANCH  20  21
ATOM     21  C   UNK A   2       0.585   9.991  20.751  0.00  0.00    +0.000 C 
ATOM     22  O   UNK A   2       1.049  10.892  21.447  0.00  0.00    +0.000 OA
ENDBRANCH  20  21
BRANCH  20  23
ATOM     23  C   UNK A   2       0.165   9.783  18.284  0.00  0.00    +0.000 C 
BRANCH  23  24
ATOM     24  C   UNK A   2      -1.163  10.443  18.698  0.00  0.00    +0.000 C 
ATOM     25  C   UNK A   2      -2.347   9.936  17.850  0.00  0.00    +0.000 C 
ATOM     26  C   UNK A   2      -2.314  10.818  16.613  0.00  0.00    +0.000 C 
ATOM     27  N   UNK A   2      -1.809  12.058  17.123  0.00  0.00    +0.000 N 
ATOM     28  C   UNK A   2      -1.185  11.914  18.344  0.00  0.00    +0.000 C 
ATOM     29  O   UNK A   2      -0.689  12.811  19.002  0.00  0.00    +0.000 OA
ATOM     30  H   UNK A   2      -1.902  12.963  16.679  0.00  0.00    +0.000 HD
ENDBRANCH  23  24
ENDBRANCH  20  23
ENDBRANCH  18  20
ENDBRANCH   1  16
BRANCH   1  31
ATOM     31  CB  LEU A   1       1.803   5.324  19.941  0.00  0.00    +0.000 C 
BRANCH  31  33
ATOM     32  CD1 LEU A   1       2.186   3.563  21.729  0.00  0.00    +0.000 C 
ATOM     33  CG  LEU A   1       2.004   3.831  20.247  0.00  0.00    +0.000 C 
ATOM     34  CD2 LEU A   1       0.798   3.038  19.722  0.00  0.00    +0.000 C 
ENDBRANCH  31  33
ENDBRANCH   1  31
TORSDOF 12
ENDMDL
MODEL 5
REMARK VINA RESULT:      -7.3      3.923      9.348
REMARK  Name = 
REMARK  14 active torsions:
REMARK  status: ('A' for Active; 'I' for Inactive)
REMARK    1  A    between atoms: CD1_1  and  CG_2
REMARK    2  A    between atoms: CG_2  and  CD2_3
REMARK    3  A    between atoms: CG_2  and  CB_4
REMARK    4  A    between atoms: CB_4  and  CA_5
REMARK    5  A    between atoms: CA_5  and  N_6
REMARK    6  A    between atoms: CA_5  and  C_19
REMARK    7  A    between atoms: C_7  and  O_9
REMARK    8  A    between atoms: O_9  and  C_10
REMARK    9  A    between atoms: C_10  and  C_11
REMARK   10  A    between atoms: C_11  and  C_12
REMARK   11  A    between atoms: N_21  and  C_22
REMARK   12  A    between atoms: C_22  and  C_23
REMARK   13  A    between atoms: C_22  and  C_25
REMARK   14  A    between atoms: C_25  and  C_26
REMARK                            x       y       z     vdW  Elec       q    Type
REMARK                         _______ _______ _______ _____ _____    ______ ____
ROOT
ATOM      1  CA  LEU A   1       3.127   5.249  18.700  0.00  0.00    +0.000 C 
ENDROOT
BRANCH   1   2
ATOM      2  N   LEU A   1       3.279   6.597  18.087  0.00  0.00    +0.000 N 
ATOM      3  C   UNK A   0       2.482   7.648  18.480  0.00  0.00    +0.000 C 
ATOM      4  O   UNK A   0       1.966   8.419  17.683  0.00  0.00    +0.000 OA
ATOM      5  H   LEU A   1       3.430   6.620  17.090  0.00  0.00    +0.000 HD
BRANCH   3   6
ATOM      6  O   UNK A   0       2.318   7.679  19.809  0.00  0.00    +0.000 OA
BRANCH   6   7
ATOM      7  C   UNK A   0       1.081   8.134  20.377  0.00  0.00    +0.000 C 
BRANCH   7   8
ATOM      8  C   UNK A   0       1.072   9.674  20.267  0.00  0.00    +0.000 C 
BRANCH   8   9
ATOM      9  C   UNK A   0       0.192  10.449  21.241  0.00  0.00    +0.000 A 
ATOM     10  C   UNK A   0      -0.319   9.902  22.426  0.00  0.00    +0.000 A 
ATOM     11  C   UNK A   0      -1.170  10.639  23.258  0.00  0.00    +0.000 A 
ATOM     12  C   UNK A   0      -1.544  11.933  22.907  0.00  0.00    +0.000 A 
ATOM     13  C   UNK A   0      -1.051  12.493  21.733  0.00  0.00    +0.000 A 
ATOM     14 CL   UNK A   0      -1.570  14.060  21.253  0.00  0.00    +0.000 Cl
ATOM     15  C   UNK A   0      -0.171  11.772  20.919  0.00  0.00    +0.000 A 
ENDBRANCH   8   9
ENDBRANCH   7   8
ENDBRANCH   6   7
ENDBRANCH   3   6
ENDBRANCH   1   2
BRANCH   1  16
ATOM     16  C   LEU A   1       4.551   4.590  18.666  0.00  0.00    +0.000 C 
ATOM     17  O   LEU A   1       4.840   3.557  19.253  0.00  0.00    +0.000 OA
ATOM     18  N   UNK A   2       5.499   5.310  17.941  0.00  0.00    +0.000 N 
ATOM     19  H   UNK A   2       5.288   6.267  17.691  0.00  0.00    +0.000 HD
BRANCH  18  20
ATOM     20  C   UNK A   2       6.903   4.874  17.845  0.00  0.00    +0.000 C 
BRANCH  20  21
ATOM     21  C   UNK A   2       7.799   6.053  18.201  0.00  0.00    +0.000 C 
ATOM     22  O   UNK A   2       7.475   7.228  18.034  0.00  0.00    +0.000 OA
ENDBRANCH  20  21
BRANCH  20  23
ATOM     23  C   UNK A   2       7.205   4.399  16.408  0.00  0.00    +0.000 C 
BRANCH  23  24
ATOM     24  C   UNK A   2       6.591   5.246  15.279  0.00  0.00    +0.000 C 
ATOM     25  C   UNK A   2       5.245   4.671  14.795  0.00  0.00    +0.000 C 
ATOM     26  C   UNK A   2       5.643   3.624  13.768  0.00  0.00    +0.000 C 
ATOM     27  N   UNK A   2       6.842   4.170  13.209  0.00  0.00    +0.000 N 
ATOM     28  C   UNK A   2       7.404   5.145  14.006  0.00  0.00    +0.000 C 
ATOM     29  O   UNK A   2       8.411   5.781  13.754  0.00  0.00    +0.000 OA
ATOM     30  H   UNK A   2       7.252   3.914  12.319  0.00  0.00    +0.000 HD
ENDBRANCH  23  24
ENDBRANCH  20  23
ENDBRANCH  18  20
ENDBRANCH   1  16
BRANCH   1  31
ATOM     31  CB  LEU A   1       1.962   4.430  18.097  0.00  0.00    +0.000 C 
BRANCH  31  33
ATOM     32  CD1 LEU A   1       1.538   2.109  19.032  0.00  0.00    +0.000 C 
ATOM     33  CG  LEU A   1       1.094   3.559  19.019  0.00  0.00    +0.000 C 
ATOM     34  CD2 LEU A   1       1.140   4.127  20.446  0.00  0.00    +0.000 C 
ENDBRANCH  31  33
ENDBRANCH   1  31
TORSDOF 12
ENDMDL
MODEL 6
REMARK VINA RESULT:      -7.3      1.947      2.667
REMARK  Name = 
REMARK  14 active torsions:
REMARK  status: ('A' for Active; 'I' for Inactive)
REMARK    1  A    between atoms: CD1_1  and  CG_2
REMARK    2  A    between atoms: CG_2  and  CD2_3
REMARK    3  A    between atoms: CG_2  and  CB_4
REMARK    4  A    between atoms: CB_4  and  CA_5
REMARK    5  A    between atoms: CA_5  and  N_6
REMARK    6  A    between atoms: CA_5  and  C_19
REMARK    7  A    between atoms: C_7  and  O_9
REMARK    8  A    between atoms: O_9  and  C_10
REMARK    9  A    between atoms: C_10  and  C_11
REMARK   10  A    between atoms: C_11  and  C_12
REMARK   11  A    between atoms: N_21  and  C_22
REMARK   12  A    between atoms: C_22  and  C_23
REMARK   13  A    between atoms: C_22  and  C_25
REMARK   14  A    between atoms: C_25  and  C_26
REMARK                            x       y       z     vdW  Elec       q    Type
REMARK                         _______ _______ _______ _____ _____    ______ ____
ROOT
ATOM      1  CA  LEU A   1       3.665   4.738  19.076  0.00  0.00    +0.000 C 
ENDROOT
BRANCH   1   2
ATOM      2  N   LEU A   1       4.817   5.577  19.504  0.00  0.00    +0.000 N 
ATOM      3  C   UNK A   0       6.111   5.200  19.224  0.00  0.00    +0.000 C 
ATOM      4  O   UNK A   0       7.012   5.269  20.049  0.00  0.00    +0.000 OA
ATOM      5  H   LEU A   1       4.758   5.981  20.426  0.00  0.00    +0.000 HD
BRANCH   3   6
ATOM      6  O   UNK A   0       6.232   4.718  17.979  0.00  0.00    +0.000 OA
BRANCH   6   7
ATOM      7  C   UNK A   0       6.284   5.611  16.858  0.00  0.00    +0.000 C 
BRANCH   7   8
ATOM      8  C   UNK A   0       5.415   4.990  15.743  0.00  0.00    +0.000 C 
BRANCH   8   9
ATOM      9  C   UNK A   0       6.097   4.637  14.427  0.00  0.00    +0.000 A 
ATOM     10  C   UNK A   0       7.253   5.278  13.957  0.00  0.00    +0.000 A 
ATOM     11  C   UNK A   0       7.807   4.954  12.713  0.00  0.00    +0.000 A 
ATOM     12  C   UNK A   0       7.200   3.997  11.904  0.00  0.00    +0.000 A 
ATOM     13  C   UNK A   0       6.051   3.353  12.350  0.00  0.00    +0.000 A 
ATOM     14 CL   UNK A   0       5.253   2.227  11.324  0.00  0.00    +0.000 Cl
ATOM     15  C   UNK A   0       5.517   3.648  13.609  0.00  0.00    +0.000 A 
ENDBRANCH   8   9
ENDBRANCH   7   8
ENDBRANCH   6   7
ENDBRANCH   3   6
ENDBRANCH   1   2
BRANCH   1  16
ATOM     16  C   LEU A   1       2.517   5.736  18.690  0.00  0.00    +0.000 C 
ATOM     17  O   LEU A   1       1.683   5.516  17.823  0.00  0.00    +0.000 OA
ATOM     18  N   UNK A   2       2.546   6.941  19.389  0.00  0.00    +0.000 N 
ATOM     19  H   UNK A   2       3.384   7.179  19.902  0.00  0.00    +0.000 HD
BRANCH  18  20
ATOM     20  C   UNK A   2       1.581   8.021  19.121  0.00  0.00    +0.000 C 
BRANCH  20  21
ATOM     21  C   UNK A   2       2.045   8.789  17.891  0.00  0.00    +0.000 C 
ATOM     22  O   UNK A   2       2.373   9.974  17.913  0.00  0.00    +0.000 OA
ENDBRANCH  20  21
BRANCH  20  23
ATOM     23  C   UNK A   2       1.508   8.971  20.336  0.00  0.00    +0.000 C 
BRANCH  23  24
ATOM     24  C   UNK A   2       0.092   9.327  20.824  0.00  0.00    +0.000 C 
ATOM     25  C   UNK A   2      -0.694  10.136  19.773  0.00  0.00    +0.000 C 
ATOM     26  C   UNK A   2      -0.265  11.573  20.024  0.00  0.00    +0.000 C 
ATOM     27  N   UNK A   2      -0.027  11.588  21.436  0.00  0.00    +0.000 N 
ATOM     28  C   UNK A   2       0.132  10.324  21.962  0.00  0.00    +0.000 C 
ATOM     29  O   UNK A   2       0.324  10.057  23.135  0.00  0.00    +0.000 OA
ATOM     30  H   UNK A   2       0.003  12.413  22.023  0.00  0.00    +0.000 HD
ENDBRANCH  23  24
ENDBRANCH  20  23
ENDBRANCH  18  20
ENDBRANCH   1  16
BRANCH   1  31
ATOM     31  CB  LEU A   1       3.312   3.621  20.085  0.00  0.00    +0.000 C 
BRANCH  31  33
ATOM     32  CD1 LEU A   1       3.422   1.932  18.194  0.00  0.00    +0.000 C 
ATOM     33  CG  LEU A   1       3.525   2.151  19.691  0.00  0.00    +0.000 C 
ATOM     34  CD2 LEU A   1       4.902   1.686  20.188  0.00  0.00    +0.000 C 
ENDBRANCH  31  33
ENDBRANCH   1  31
TORSDOF 12
ENDMDL
MODEL 7
REMARK VINA RESULT:      -7.2      2.075      2.631
REMARK  Name = 
REMARK  14 active torsions:
REMARK  status: ('A' for Active; 'I' for Inactive)
REMARK    1  A    between atoms: CD1_1  and  CG_2
REMARK    2  A    between atoms: CG_2  and  CD2_3
REMARK    3  A    between atoms: CG_2  and  CB_4
REMARK    4  A    between atoms: CB_4  and  CA_5
REMARK    5  A    between atoms: CA_5  and  N_6
REMARK    6  A    between atoms: CA_5  and  C_19
REMARK    7  A    between atoms: C_7  and  O_9
REMARK    8  A    between atoms: O_9  and  C_10
REMARK    9  A    between atoms: C_10  and  C_11
REMARK   10  A    between atoms: C_11  and  C_12
REMARK   11  A    between atoms: N_21  and  C_22
REMARK   12  A    between atoms: C_22  and  C_23
REMARK   13  A    between atoms: C_22  and  C_25
REMARK   14  A    between atoms: C_25  and  C_26
REMARK                            x       y       z     vdW  Elec       q    Type
REMARK                         _______ _______ _______ _____ _____    ______ ____
ROOT
ATOM      1  CA  LEU A   1       2.478   5.348  19.986  0.00  0.00    +0.000 C 
ENDROOT
BRANCH   1   2
ATOM      2  N   LEU A   1       3.892   5.121  19.580  0.00  0.00    +0.000 N 
ATOM      3  C   UNK A   0       4.376   3.848  19.381  0.00  0.00    +0.000 C 
ATOM      4  O   UNK A   0       5.464   3.482  19.805  0.00  0.00    +0.000 OA
ATOM      5  H   LEU A   1       4.585   5.697  20.032  0.00  0.00    +0.000 HD
BRANCH   3   6
ATOM      6  O   UNK A   0       3.499   3.077  18.724  0.00  0.00    +0.000 OA
BRANCH   6   7
ATOM      7  C   UNK A   0       3.801   2.596  17.407  0.00  0.00    +0.000 C 
BRANCH   7   8
ATOM      8  C   UNK A   0       3.698   3.802  16.449  0.00  0.00    +0.000 C 
BRANCH   8   9
ATOM      9  C   UNK A   0       4.996   4.401  15.921  0.00  0.00    +0.000 A 
ATOM     10  C   UNK A   0       5.639   3.953  14.758  0.00  0.00    +0.000 A 
ATOM     11  C   UNK A   0       6.861   4.500  14.347  0.00  0.00    +0.000 A 
ATOM     12  C   UNK A   0       7.474   5.493  15.107  0.00  0.00    +0.000 A 
ATOM     13  C   UNK A   0       6.854   5.948  16.265  0.00  0.00    +0.000 A 
ATOM     14 CL   UNK A   0       7.642   7.118  17.250  0.00  0.00    +0.000 Cl
ATOM     15  C   UNK A   0       5.615   5.430  16.658  0.00  0.00    +0.000 A 
ENDBRANCH   8   9
ENDBRANCH   7   8
ENDBRANCH   6   7
ENDBRANCH   3   6
ENDBRANCH   1   2
BRANCH   1  16
ATOM     16  C   LEU A   1       2.254   6.900  19.942  0.00  0.00    +0.000 C 
ATOM     17  O   LEU A   1       2.679   7.628  19.054  0.00  0.00    +0.000 OA
ATOM     18  N   UNK A   2       1.563   7.411  21.039  0.00  0.00    +0.000 N 
ATOM     19  H   UNK A   2       1.457   6.825  21.855  0.00  0.00    +0.000 HD
BRANCH  18  20
ATOM     20  C   UNK A   2       1.309   8.854  21.197  0.00  0.00    +0.000 C 
BRANCH  20  21
ATOM     21  C   UNK A   2       1.144   9.155  22.680  0.00  0.00    +0.000 C 
ATOM     22  O   UNK A   2       0.467  10.086  23.114  0.00  0.00    +0.000 OA
ENDBRANCH  20  21
BRANCH  20  23
ATOM     23  C   UNK A   2       0.024   9.245  20.435  0.00  0.00    +0.000 C 
BRANCH  23  24
ATOM     24  C   UNK A   2       0.119  10.514  19.569  0.00  0.00    +0.000 C 
ATOM     25  C   UNK A   2      -1.246  11.218  19.427  0.00  0.00    +0.000 C 
ATOM     26  C   UNK A   2      -1.909  10.497  18.266  0.00  0.00    +0.000 C 
ATOM     27  N   UNK A   2      -0.795  10.134  17.442  0.00  0.00    +0.000 N 
ATOM     28  C   UNK A   2       0.404  10.178  18.122  0.00  0.00    +0.000 C 
ATOM     29  O   UNK A   2       1.501   9.937  17.651  0.00  0.00    +0.000 OA
ATOM     30  H   UNK A   2      -0.838   9.891  16.460  0.00  0.00    +0.000 HD
ENDBRANCH  23  24
ENDBRANCH  20  23
ENDBRANCH  18  20
ENDBRANCH   1  16
BRANCH   1  31
ATOM     31  CB  LEU A   1       2.093   4.622  21.296  0.00  0.00    +0.000 C 
BRANCH  31  33
ATOM     32  CD1 LEU A   1       0.665   3.114  19.837  0.00  0.00    +0.000 C 
ATOM     33  CG  LEU A   1       1.188   3.382  21.236  0.00  0.00    +0.000 C 
ATOM     34  CD2 LEU A   1       1.969   2.158  21.739  0.00  0.00    +0.000 C 
ENDBRANCH  31  33
ENDBRANCH   1  31
TORSDOF 12
ENDMDL
MODEL 8
REMARK VINA RESULT:      -7.2      3.677      9.383
REMARK  Name = 
REMARK  14 active torsions:
REMARK  status: ('A' for Active; 'I' for Inactive)
REMARK    1  A    between atoms: CD1_1  and  CG_2
REMARK    2  A    between atoms: CG_2  and  CD2_3
REMARK    3  A    between atoms: CG_2  and  CB_4
REMARK    4  A    between atoms: CB_4  and  CA_5
REMARK    5  A    between atoms: CA_5  and  N_6
REMARK    6  A    between atoms: CA_5  and  C_19
REMARK    7  A    between atoms: C_7  and  O_9
REMARK    8  A    between atoms: O_9  and  C_10
REMARK    9  A    between atoms: C_10  and  C_11
REMARK   10  A    between atoms: C_11  and  C_12
REMARK   11  A    between atoms: N_21  and  C_22
REMARK   12  A    between atoms: C_22  and  C_23
REMARK   13  A    between atoms: C_22  and  C_25
REMARK   14  A    between atoms: C_25  and  C_26
REMARK                            x       y       z     vdW  Elec       q    Type
REMARK                         _______ _______ _______ _____ _____    ______ ____
ROOT
ATOM      1  CA  LEU A   1       3.245   5.644  19.118  0.00  0.00    +0.000 C 
ENDROOT
BRANCH   1   2
ATOM      2  N   LEU A   1       3.184   7.105  18.837  0.00  0.00    +0.000 N 
ATOM      3  C   UNK A   0       2.074   7.846  19.174  0.00  0.00    +0.000 C 
ATOM      4  O   UNK A   0       1.578   8.672  18.420  0.00  0.00    +0.000 OA
ATOM      5  H   LEU A   1       3.553   7.404  17.947  0.00  0.00    +0.000 HD
BRANCH   3   6
ATOM      6  O   UNK A   0       1.600   7.512  20.382  0.00  0.00    +0.000 OA
BRANCH   6   7
ATOM      7  C   UNK A   0       1.614   8.464  21.455  0.00  0.00    +0.000 C 
BRANCH   7   8
ATOM      8  C   UNK A   0       0.147   8.854  21.735  0.00  0.00    +0.000 C 
BRANCH   8   9
ATOM      9  C   UNK A   0      -0.164  10.329  21.959  0.00  0.00    +0.000 A 
ATOM     10  C   UNK A   0      -1.044  10.794  22.947  0.00  0.00    +0.000 A 
ATOM     11  C   UNK A   0      -1.339  12.156  23.074  0.00  0.00    +0.000 A 
ATOM     12  C   UNK A   0      -0.775  13.079  22.198  0.00  0.00    +0.000 A 
ATOM     13  C   UNK A   0       0.097  12.638  21.208  0.00  0.00    +0.000 A 
ATOM     14 CL   UNK A   0       0.736  13.761  20.073  0.00  0.00    +0.000 Cl
ATOM     15  C   UNK A   0       0.423  11.281  21.103  0.00  0.00    +0.000 A 
ENDBRANCH   8   9
ENDBRANCH   7   8
ENDBRANCH   6   7
ENDBRANCH   3   6
ENDBRANCH   1   2
BRANCH   1  16
ATOM     16  C   LEU A   1       4.726   5.207  18.840  0.00  0.00    +0.000 C 
ATOM     17  O   LEU A   1       5.534   4.932  19.717  0.00  0.00    +0.000 OA
ATOM     18  N   UNK A   2       5.079   5.202  17.492  0.00  0.00    +0.000 N 
ATOM     19  H   UNK A   2       4.472   5.672  16.834  0.00  0.00    +0.000 HD
BRANCH  18  20
ATOM     20  C   UNK A   2       6.443   4.873  17.045  0.00  0.00    +0.000 C 
BRANCH  20  21
ATOM     21  C   UNK A   2       7.206   6.173  16.825  0.00  0.00    +0.000 C 
ATOM     22  O   UNK A   2       6.790   7.273  17.183  0.00  0.00    +0.000 OA
ENDBRANCH  20  21
BRANCH  20  23
ATOM     23  C   UNK A   2       6.382   4.070  15.728  0.00  0.00    +0.000 C 
BRANCH  23  24
ATOM     24  C   UNK A   2       6.069   4.886  14.460  0.00  0.00    +0.000 C 
ATOM     25  C   UNK A   2       5.059   4.164  13.545  0.00  0.00    +0.000 C 
ATOM     26  C   UNK A   2       5.922   3.233  12.711  0.00  0.00    +0.000 C 
ATOM     27  N   UNK A   2       7.150   3.961  12.594  0.00  0.00    +0.000 N 
ATOM     28  C   UNK A   2       7.267   4.959  13.538  0.00  0.00    +0.000 C 
ATOM     29  O   UNK A   2       8.200   5.735  13.645  0.00  0.00    +0.000 OA
ATOM     30  H   UNK A   2       7.866   3.807  11.895  0.00  0.00    +0.000 HD
ENDBRANCH  23  24
ENDBRANCH  20  23
ENDBRANCH  18  20
ENDBRANCH   1  16
BRANCH   1  31
ATOM     31  CB  LEU A   1       2.132   4.838  18.409  0.00  0.00    +0.000 C 
BRANCH  31  33
ATOM     32  CD1 LEU A   1       1.221   2.498  18.787  0.00  0.00    +0.000 C 
ATOM     33  CG  LEU A   1       1.198   3.945  19.242  0.00  0.00    +0.000 C 
ATOM     34  CD2 LEU A   1       1.602   4.028  20.722  0.00  0.00    +0.000 C 
ENDBRANCH  31  33
ENDBRANCH   1  31
TORSDOF 12
ENDMDL
MODEL 9
REMARK VINA RESULT:      -7.2      3.890      9.054
REMARK  Name = 
REMARK  14 active torsions:
REMARK  status: ('A' for Active; 'I' for Inactive)
REMARK    1  A    between atoms: CD1_1  and  CG_2
REMARK    2  A    between atoms: CG_2  and  CD2_3
REMARK    3  A    between atoms: CG_2  and  CB_4
REMARK    4  A    between atoms: CB_4  and  CA_5
REMARK    5  A    between atoms: CA_5  and  N_6
REMARK    6  A    between atoms: CA_5  and  C_19
REMARK    7  A    between atoms: C_7  and  O_9
REMARK    8  A    between atoms: O_9  and  C_10
REMARK    9  A    between atoms: C_10  and  C_11
REMARK   10  A    between atoms: C_11  and  C_12
REMARK   11  A    between atoms: N_21  and  C_22
REMARK   12  A    between atoms: C_22  and  C_23
REMARK   13  A    between atoms: C_22  and  C_25
REMARK   14  A    between atoms: C_25  and  C_26
REMARK                            x       y       z     vdW  Elec       q    Type
REMARK                         _______ _______ _______ _____ _____    ______ ____
ROOT
ATOM      1  CA  LEU A   1       2.927   5.090  19.774  0.00  0.00    +0.000 C 
ENDROOT
BRANCH   1   2
ATOM      2  N   LEU A   1       3.190   6.528  19.494  0.00  0.00    +0.000 N 
ATOM      3  C   UNK A   0       2.202   7.473  19.653  0.00  0.00    +0.000 C 
ATOM      4  O   UNK A   0       1.998   8.358  18.835  0.00  0.00    +0.000 OA
ATOM      5  H   LEU A   1       3.745   6.730  18.676  0.00  0.00    +0.000 HD
BRANCH   3   6
ATOM      6  O   UNK A   0       1.489   7.266  20.769  0.00  0.00    +0.000 OA
BRANCH   6   7
ATOM      7  C   UNK A   0       1.330   8.315  21.734  0.00  0.00    +0.000 C 
BRANCH   7   8
ATOM      8  C   UNK A   0      -0.116   8.838  21.601  0.00  0.00    +0.000 C 
BRANCH   8   9
ATOM      9  C   UNK A   0      -0.359  10.322  21.853  0.00  0.00    +0.000 A 
ATOM     10  C   UNK A   0      -1.112  10.811  22.930  0.00  0.00    +0.000 A 
ATOM     11  C   UNK A   0      -1.353  12.182  23.084  0.00  0.00    +0.000 A 
ATOM     12  C   UNK A   0      -0.863  13.088  22.148  0.00  0.00    +0.000 A 
ATOM     13  C   UNK A   0      -0.117  12.623  21.070  0.00  0.00    +0.000 A 
ATOM     14 CL   UNK A   0       0.426  13.727  19.869  0.00  0.00    +0.000 Cl
ATOM     15  C   UNK A   0       0.157  11.257  20.935  0.00  0.00    +0.000 A 
ENDBRANCH   8   9
ENDBRANCH   7   8
ENDBRANCH   6   7
ENDBRANCH   3   6
ENDBRANCH   1   2
BRANCH   1  16
ATOM     16  C   LEU A   1       4.262   4.331  19.451  0.00  0.00    +0.000 C 
ATOM     17  O   LEU A   1       4.365   3.112  19.422  0.00  0.00    +0.000 OA
ATOM     18  N   UNK A   2       5.359   5.164  19.242  0.00  0.00    +0.000 N 
ATOM     19  H   UNK A   2       5.288   6.132  19.522  0.00  0.00    +0.000 HD
BRANCH  18  20
ATOM     20  C   UNK A   2       6.706   4.627  18.982  0.00  0.00    +0.000 C 
BRANCH  20  21
ATOM     21  C   UNK A   2       7.730   5.573  19.597  0.00  0.00    +0.000 C 
ATOM     22  O   UNK A   2       8.176   5.444  20.736  0.00  0.00    +0.000 OA
ENDBRANCH  20  21
BRANCH  20  23
ATOM     23  C   UNK A   2       6.940   4.517  17.460  0.00  0.00    +0.000 C 
BRANCH  23  24
ATOM     24  C   UNK A   2       7.135   5.850  16.714  0.00  0.00    +0.000 C 
ATOM     25  C   UNK A   2       6.020   6.864  17.045  0.00  0.00    +0.000 C 
ATOM     26  C   UNK A   2       4.904   6.506  16.077  0.00  0.00    +0.000 C 
ATOM     27  N   UNK A   2       5.620   6.029  14.932  0.00  0.00    +0.000 N 
ATOM     28  C   UNK A   2       6.923   5.688  15.225  0.00  0.00    +0.000 C 
ATOM     29  O   UNK A   2       7.749   5.277  14.430  0.00  0.00    +0.000 OA
ATOM     30  H   UNK A   2       5.253   5.959  13.991  0.00  0.00    +0.000 HD
ENDBRANCH  23  24
ENDBRANCH  20  23
ENDBRANCH  18  20
ENDBRANCH   1  16
BRANCH   1  31
ATOM     31  CB  LEU A   1       1.639   4.561  19.102  0.00  0.00    +0.000 C 
BRANCH  31  33
ATOM     32  CD1 LEU A   1       0.929   2.125  19.025  0.00  0.00    +0.000 C 
ATOM     33  CG  LEU A   1       0.839   3.438  19.780  0.00  0.00    +0.000 C 
ATOM     34  CD2 LEU A   1       1.352   3.244  21.215  0.00  0.00    +0.000 C 
ENDBRANCH  31  33
ENDBRANCH   1  31
TORSDOF 12
ENDMDL
