MODEL 1
REMARK VINA RESULT:      -7.9      0.000      0.000
REMARK  Name = 
REMARK  8 active torsions:
REMARK  status: ('A' for Active; 'I' for Inactive)
REMARK    1  A    between atoms: C_1  and  O_2
REMARK    2  A    between atoms: O_2  and  C_3
REMARK    3  A    between atoms: N_5  and  C_6
REMARK    4  A    between atoms: C_9  and  S_10
REMARK    5  A    between atoms: S_10  and  N_13
REMARK    6  A    between atoms: N_13  and  C_14
REMARK    7  A    between atoms: C_16  and  C_17
REMARK    8  A    between atoms: C_23  and  O_24
REMARK                            x       y       z     vdW  Elec       q    Type
REMARK                         _______ _______ _______ _____ _____    ______ ____
ROOT
ATOM      1  S   UNL     1       2.626   3.085  18.302  0.00  0.00    +0.000 S 
ATOM      2  O   UNL     1       1.937   2.043  19.039  0.00  0.00    +0.000 OA
ATOM      3  O   UNL     1       2.393   3.283  16.888  0.00  0.00    +0.000 OA
ENDROOT
BRANCH   1   7
ATOM      4  C   UNL     1       1.905   7.098  20.386  0.00  0.00    +0.000 A 
ATOM      5  C   UNL     1       2.323   7.040  19.052  0.00  0.00    +0.000 A 
ATOM      6  C   UNL     1       2.522   5.816  18.416  0.00  0.00    +0.000 A 
ATOM      7  C   UNL     1       2.302   4.629  19.113  0.00  0.00    +0.000 A 
ATOM      8  C   UNL     1       1.829   4.669  20.433  0.00  0.00    +0.000 A 
ATOM      9  C   UNL     1       1.664   5.904  21.077  0.00  0.00    +0.000 A 
BRANCH   4  12
ATOM     10  C   UNL     1       0.552   8.801  21.567  0.00  0.00    +0.000 C 
ATOM     11  O   UNL     1      -0.531   8.237  21.574  0.00  0.00    +0.000 OA
ATOM     12  N   UNL     1       1.734   8.319  21.063  0.00  0.00    +0.000 N 
ATOM     13  H   UNL     1       2.546   8.880  21.286  0.00  0.00    +0.000 HD
BRANCH  10  15
ATOM     14  C   UNL     1      -0.452  10.618  22.606  0.00  0.00    +0.000 C 
ATOM     15  O   UNL     1       0.755  10.031  22.113  0.00  0.00    +0.000 OA
ENDBRANCH  10  15
ENDBRANCH   4  12
ENDBRANCH   1   7
BRANCH   1  16
ATOM     16  N   UNL     1       4.303   2.861  18.474  0.00  0.00    +0.000 N 
ATOM     17  H   UNL     1       4.538   1.870  18.405  0.00  0.00    +0.000 HD
BRANCH  16  18
ATOM     18  C   UNL     1       5.157   3.739  17.737  0.00  0.00    +0.000 A 
ATOM     19  C   UNL     1       5.227   3.622  16.353  0.00  0.00    +0.000 A 
ATOM     20  C   UNL     1       6.123   4.426  15.636  0.00  0.00    +0.000 A 
ATOM     21  C   UNL     1       6.936   5.296  16.356  0.00  0.00    +0.000 A 
ATOM     22  N   UNL     1       6.903   5.429  17.703  0.00  0.00    +0.000 NA
ATOM     23  C   UNL     1       6.006   4.661  18.342  0.00  0.00    +0.000 A 
BRANCH  20  24
ATOM     24  C   UNL     1       6.238   4.375  14.144  0.00  0.00    +0.000 C 
ATOM     25  F   UNL     1       7.193   5.201  13.640  0.00  0.00    +0.000 F 
ATOM     26  F   UNL     1       6.545   3.128  13.694  0.00  0.00    +0.000 F 
ATOM     27  F   UNL     1       5.075   4.719  13.526  0.00  0.00    +0.000 F 
ENDBRANCH  20  24
BRANCH  23  28
ATOM     28  O   UNL     1       6.004   4.841  19.688  0.00  0.00    +0.000 OA
ATOM     29  H   UNL     1       6.948   5.034  19.838  0.00  0.00    +0.000 HD
ENDBRANCH  23  28
ENDBRANCH  16  18
ENDBRANCH   1  16
TORSDOF 7
ENDMDL
MODEL 2
REMARK VINA RESULT:      -7.8      0.443      1.266
REMARK  Name = 
REMARK  8 active torsions:
REMARK  status: ('A' for Active; 'I' for Inactive)
REMARK    1  A    between atoms: C_1  and  O_2
REMARK    2  A    between atoms: O_2  and  C_3
REMARK    3  A    between atoms: N_5  and  C_6
REMARK    4  A    between atoms: C_9  and  S_10
REMARK    5  A    between atoms: S_10  and  N_13
REMARK    6  A    between atoms: N_13  and  C_14
REMARK    7  A    between atoms: C_16  and  C_17
REMARK    8  A    between atoms: C_23  and  O_24
REMARK                            x       y       z     vdW  Elec       q    Type
REMARK                         _______ _______ _______ _____ _____    ______ ____
ROOT
ATOM      1  S   UNL     1       2.471   3.187  18.299  0.00  0.00    +0.000 S 
ATOM      2  O   UNL     1       1.726   2.217  19.078  0.00  0.00    +0.000 OA
ATOM      3  O   UNL     1       2.200   3.388  16.892  0.00  0.00    +0.000 OA
ENDROOT
BRANCH   1   7
ATOM      4  C   UNL     1       1.942   7.233  20.377  0.00  0.00    +0.000 A 
ATOM      5  C   UNL     1       1.710   6.034  21.059  0.00  0.00    +0.000 A 
ATOM      6  C   UNL     1       1.891   4.804  20.428  0.00  0.00    +0.000 A 
ATOM      7  C   UNL     1       2.312   4.762  19.099  0.00  0.00    +0.000 A 
ATOM      8  C   UNL     1       2.603   5.954  18.419  0.00  0.00    +0.000 A 
ATOM      9  C   UNL     1       2.384   7.187  19.049  0.00  0.00    +0.000 A 
BRANCH   4  12
ATOM     10  C   UNL     1       0.545   8.936  21.504  0.00  0.00    +0.000 C 
ATOM     11  O   UNL     1      -0.502   8.316  21.601  0.00  0.00    +0.000 OA
ATOM     12  N   UNL     1       1.729   8.488  20.978  0.00  0.00    +0.000 N 
ATOM     13  H   UNL     1       2.516   9.107  21.122  0.00  0.00    +0.000 HD
BRANCH  10  15
ATOM     14  C   UNL     1       0.642  11.177  20.902  0.00  0.00    +0.000 C 
ATOM     15  O   UNL     1       0.699  10.211  21.955  0.00  0.00    +0.000 OA
ENDBRANCH  10  15
ENDBRANCH   4  12
ENDBRANCH   1   7
BRANCH   1  16
ATOM     16  N   UNL     1       4.129   2.823  18.410  0.00  0.00    +0.000 N 
ATOM     17  H   UNL     1       4.281   1.822  18.281  0.00  0.00    +0.000 HD
BRANCH  16  18
ATOM     18  C   UNL     1       5.031   3.670  17.695  0.00  0.00    +0.000 A 
ATOM     19  C   UNL     1       5.112   3.571  16.311  0.00  0.00    +0.000 A 
ATOM     20  C   UNL     1       6.053   4.341  15.616  0.00  0.00    +0.000 A 
ATOM     21  C   UNL     1       6.898   5.162  16.358  0.00  0.00    +0.000 A 
ATOM     22  N   UNL     1       6.855   5.276  17.707  0.00  0.00    +0.000 NA
ATOM     23  C   UNL     1       5.916   4.542  18.324  0.00  0.00    +0.000 A 
BRANCH  20  24
ATOM     24  C   UNL     1       6.183   4.307  14.125  0.00  0.00    +0.000 C 
ATOM     25  F   UNL     1       6.628   3.118  13.641  0.00  0.00    +0.000 F 
ATOM     26  F   UNL     1       4.997   4.546  13.500  0.00  0.00    +0.000 F 
ATOM     27  F   UNL     1       7.045   5.253  13.662  0.00  0.00    +0.000 F 
ENDBRANCH  20  24
BRANCH  23  28
ATOM     28  O   UNL     1       5.907   4.701  19.673  0.00  0.00    +0.000 OA
ATOM     29  H   UNL     1       5.073   5.196  19.783  0.00  0.00    +0.000 HD
ENDBRANCH  23  28
ENDBRANCH  16  18
ENDBRANCH   1  16
TORSDOF 7
ENDMDL
MODEL 3
REMARK VINA RESULT:      -7.8      1.296      1.613
REMARK  Name = 
REMARK  8 active torsions:
REMARK  status: ('A' for Active; 'I' for Inactive)
REMARK    1  A    between atoms: C_1  and  O_2
REMARK    2  A    between atoms: O_2  and  C_3
REMARK    3  A    between atoms: N_5  and  C_6
REMARK    4  A    between atoms: C_9  and  S_10
REMARK    5  A    between atoms: S_10  and  N_13
REMARK    6  A    between atoms: N_13  and  C_14
REMARK    7  A    between atoms: C_16  and  C_17
REMARK    8  A    between atoms: C_23  and  O_24
REMARK                            x       y       z     vdW  Elec       q    Type
REMARK                         _______ _______ _______ _____ _____    ______ ____
ROOT
ATOM      1  S   UNL     1       3.534   3.337  17.673  0.00  0.00    +0.000 S 
ATOM      2  O   UNL     1       3.197   2.096  18.343  0.00  0.00    +0.000 OA
ATOM      3  O   UNL     1       3.118   3.592  16.311  0.00  0.00    +0.000 OA
ENDROOT
BRANCH   1   7
ATOM      4  C   UNL     1       2.084   6.820  20.267  0.00  0.00    +0.000 A 
ATOM      5  C   UNL     1       2.761   7.047  19.065  0.00  0.00    +0.000 A 
ATOM      6  C   UNL     1       3.183   5.984  18.269  0.00  0.00    +0.000 A 
ATOM      7  C   UNL     1       2.928   4.673  18.671  0.00  0.00    +0.000 A 
ATOM      8  C   UNL     1       2.201   4.430  19.845  0.00  0.00    +0.000 A 
ATOM      9  C   UNL     1       1.811   5.503  20.658  0.00  0.00    +0.000 A 
BRANCH   4  12
ATOM     10  C   UNL     1       1.041   9.020  20.711  0.00  0.00    +0.000 C 
ATOM     11  O   UNL     1       0.657   9.299  19.586  0.00  0.00    +0.000 OA
ATOM     12  N   UNL     1       1.680   7.874  21.109  0.00  0.00    +0.000 N 
ATOM     13  H   UNL     1       1.785   7.775  22.110  0.00  0.00    +0.000 HD
BRANCH  10  15
ATOM     14  C   UNL     1      -0.106   9.307  22.710  0.00  0.00    +0.000 C 
ATOM     15  O   UNL     1       0.850   9.834  21.786  0.00  0.00    +0.000 OA
ENDBRANCH  10  15
ENDBRANCH   4  12
ENDBRANCH   1   7
BRANCH   1  16
ATOM     16  N   UNL     1       5.224   3.529  17.691  0.00  0.00    +0.000 N 
ATOM     17  H   UNL     1       5.674   2.678  18.031  0.00  0.00    +0.000 HD
BRANCH  16  18
ATOM     18  C   UNL     1       5.826   4.111  16.533  0.00  0.00    +0.000 A 
ATOM     19  C   UNL     1       5.557   3.575  15.279  0.00  0.00    +0.000 A 
ATOM     20  C   UNL     1       6.209   4.091  14.151  0.00  0.00    +0.000 A 
ATOM     21  C   UNL     1       7.133   5.114  14.345  0.00  0.00    +0.000 A 
ATOM     22  N   UNL     1       7.428   5.654  15.552  0.00  0.00    +0.000 NA
ATOM     23  C   UNL     1       6.754   5.147  16.597  0.00  0.00    +0.000 A 
BRANCH  20  24
ATOM     24  C   UNL     1       5.954   3.582  12.767  0.00  0.00    +0.000 C 
ATOM     25  F   UNL     1       4.678   3.777  12.339  0.00  0.00    +0.000 F 
ATOM     26  F   UNL     1       6.755   4.181  11.844  0.00  0.00    +0.000 F 
ATOM     27  F   UNL     1       6.192   2.247  12.657  0.00  0.00    +0.000 F 
ENDBRANCH  20  24
BRANCH  23  28
ATOM     28  O   UNL     1       7.076   5.730  17.780  0.00  0.00    +0.000 OA
ATOM     29  H   UNL     1       6.916   4.986  18.390  0.00  0.00    +0.000 HD
ENDBRANCH  23  28
ENDBRANCH  16  18
ENDBRANCH   1  16
TORSDOF 7
ENDMDL
MODEL 4
REMARK VINA RESULT:      -7.7      2.154      2.796
REMARK  Name = 
REMARK  8 active torsions:
REMARK  status: ('A' for Active; 'I' for Inactive)
REMARK    1  A    between atoms: C_1  and  O_2
REMARK    2  A    between atoms: O_2  and  C_3
REMARK    3  A    between atoms: N_5  and  C_6
REMARK    4  A    between atoms: C_9  and  S_10
REMARK    5  A    between atoms: S_10  and  N_13
REMARK    6  A    between atoms: N_13  and  C_14
REMARK    7  A    between atoms: C_16  and  C_17
REMARK    8  A    between atoms: C_23  and  O_24
REMARK                            x       y       z     vdW  Elec       q    Type
REMARK                         _______ _______ _______ _____ _____    ______ ____
ROOT
ATOM      1  S   UNL     1       3.383   6.136  18.542  0.00  0.00    +0.000 S 
ATOM      2  O   UNL     1       4.103   5.607  19.684  0.00  0.00    +0.000 OA
ATOM      3  O   UNL     1       2.553   5.285  17.718  0.00  0.00    +0.000 OA
ENDROOT
BRANCH   1   7
ATOM      4  C   UNL     1       0.665   9.507  20.033  0.00  0.00    +0.000 A 
ATOM      5  C   UNL     1       1.022   8.443  20.868  0.00  0.00    +0.000 A 
ATOM      6  C   UNL     1       1.866   7.430  20.416  0.00  0.00    +0.000 A 
ATOM      7  C   UNL     1       2.365   7.472  19.115  0.00  0.00    +0.000 A 
ATOM      8  C   UNL     1       2.062   8.560  18.283  0.00  0.00    +0.000 A 
ATOM      9  C   UNL     1       1.185   9.557  18.733  0.00  0.00    +0.000 A 
BRANCH   4  12
ATOM     10  C   UNL     1       0.142  11.684  21.086  0.00  0.00    +0.000 C 
ATOM     11  O   UNL     1       1.272  12.068  21.341  0.00  0.00    +0.000 OA
ATOM     12  N   UNL     1      -0.215  10.522  20.451  0.00  0.00    +0.000 N 
ATOM     13  H   UNL     1      -1.196  10.459  20.207  0.00  0.00    +0.000 HD
BRANCH  10  15
ATOM     14  C   UNL     1      -0.892  13.046  22.657  0.00  0.00    +0.000 C 
ATOM     15  O   UNL     1      -0.975  12.405  21.381  0.00  0.00    +0.000 OA
ENDBRANCH  10  15
ENDBRANCH   4  12
ENDBRANCH   1   7
BRANCH   1  16
ATOM     16  N   UNL     1       4.494   6.874  17.486  0.00  0.00    +0.000 N 
ATOM     17  H   UNL     1       4.847   7.740  17.893  0.00  0.00    +0.000 HD
BRANCH  16  18
ATOM     18  C   UNL     1       5.486   6.034  16.894  0.00  0.00    +0.000 A 
ATOM     19  C   UNL     1       5.284   5.535  15.612  0.00  0.00    +0.000 A 
ATOM     20  C   UNL     1       6.216   4.646  15.060  0.00  0.00    +0.000 A 
ATOM     21  C   UNL     1       7.304   4.273  15.846  0.00  0.00    +0.000 A 
ATOM     22  N   UNL     1       7.527   4.730  17.101  0.00  0.00    +0.000 NA
ATOM     23  C   UNL     1       6.623   5.604  17.572  0.00  0.00    +0.000 A 
BRANCH  20  24
ATOM     24  C   UNL     1       6.080   4.086  13.679  0.00  0.00    +0.000 C 
ATOM     25  F   UNL     1       4.832   4.216  13.156  0.00  0.00    +0.000 F 
ATOM     26  F   UNL     1       6.922   4.689  12.795  0.00  0.00    +0.000 F 
ATOM     27  F   UNL     1       6.376   2.759  13.630  0.00  0.00    +0.000 F 
ENDBRANCH  20  24
BRANCH  23  28
ATOM     28  O   UNL     1       6.899   6.041  18.828  0.00  0.00    +0.000 OA
ATOM     29  H   UNL     1       6.416   5.376  19.353  0.00  0.00    +0.000 HD
ENDBRANCH  23  28
ENDBRANCH  16  18
ENDBRANCH   1  16
TORSDOF 7
ENDMDL
MODEL 5
REMARK VINA RESULT:      -7.7      3.121      3.788
REMARK  Name = 
REMARK  8 active torsions:
REMARK  status: ('A' for Active; 'I' for Inactive)
REMARK    1  A    between atoms: C_1  and  O_2
REMARK    2  A    between atoms: O_2  and  C_3
REMARK    3  A    between atoms: N_5  and  C_6
REMARK    4  A    between atoms: C_9  and  S_10
REMARK    5  A    between atoms: S_10  and  N_13
REMARK    6  A    between atoms: N_13  and  C_14
REMARK    7  A    between atoms: C_16  and  C_17
REMARK    8  A    between atoms: C_23  and  O_24
REMARK                            x       y       z     vdW  Elec       q    Type
REMARK                         _______ _______ _______ _____ _____    ______ ____
ROOT
ATOM      1  S   UNL     1       2.680   5.417  18.875  0.00  0.00    +0.000 S 
ATOM      2  O   UNL     1       3.355   5.086  20.114  0.00  0.00    +0.000 OA
ATOM      3  O   UNL     1       1.543   4.650  18.412  0.00  0.00    +0.000 OA
ENDROOT
BRANCH   1   7
ATOM      4  C   UNL     1       1.253   9.759  19.149  0.00  0.00    +0.000 A 
ATOM      5  C   UNL     1       1.246   8.923  20.271  0.00  0.00    +0.000 A 
ATOM      6  C   UNL     1       1.699   7.608  20.186  0.00  0.00    +0.000 A 
ATOM      7  C   UNL     1       2.170   7.114  18.971  0.00  0.00    +0.000 A 
ATOM      8  C   UNL     1       2.236   7.955  17.851  0.00  0.00    +0.000 A 
ATOM      9  C   UNL     1       1.745   9.266  17.934  0.00  0.00    +0.000 A 
BRANCH   4  12
ATOM     10  C   UNL     1      -0.553  11.451  19.120  0.00  0.00    +0.000 C 
ATOM     11  O   UNL     1      -1.526  10.716  19.062  0.00  0.00    +0.000 OA
ATOM     12  N   UNL     1       0.765  11.078  19.196  0.00  0.00    +0.000 N 
ATOM     13  H   UNL     1       1.408  11.838  19.382  0.00  0.00    +0.000 HD
BRANCH  10  15
ATOM     14  C   UNL     1       0.477  13.450  18.540  0.00  0.00    +0.000 C 
ATOM     15  O   UNL     1      -0.647  12.809  19.151  0.00  0.00    +0.000 OA
ENDBRANCH  10  15
ENDBRANCH   4  12
ENDBRANCH   1   7
BRANCH   1  16
ATOM     16  N   UNL     1       3.813   5.387  17.607  0.00  0.00    +0.000 N 
ATOM     17  H   UNL     1       3.498   5.977  16.836  0.00  0.00    +0.000 HD
BRANCH  16  18
ATOM     18  C   UNL     1       5.190   5.538  17.961  0.00  0.00    +0.000 A 
ATOM     19  C   UNL     1       5.823   6.756  17.744  0.00  0.00    +0.000 A 
ATOM     20  C   UNL     1       7.192   6.882  18.013  0.00  0.00    +0.000 A 
ATOM     21  C   UNL     1       7.873   5.754  18.464  0.00  0.00    +0.000 A 
ATOM     22  N   UNL     1       7.292   4.549  18.676  0.00  0.00    +0.000 NA
ATOM     23  C   UNL     1       5.973   4.488  18.434  0.00  0.00    +0.000 A 
BRANCH  20  24
ATOM     24  C   UNL     1       7.938   8.167  17.829  0.00  0.00    +0.000 C 
ATOM     25  F   UNL     1       8.808   8.444  18.836  0.00  0.00    +0.000 F 
ATOM     26  F   UNL     1       8.673   8.174  16.684  0.00  0.00    +0.000 F 
ATOM     27  F   UNL     1       7.103   9.238  17.743  0.00  0.00    +0.000 F 
ENDBRANCH  20  24
BRANCH  23  28
ATOM     28  O   UNL     1       5.436   3.264  18.674  0.00  0.00    +0.000 OA
ATOM     29  H   UNL     1       4.500   3.442  18.468  0.00  0.00    +0.000 HD
ENDBRANCH  23  28
ENDBRANCH  16  18
ENDBRANCH   1  16
TORSDOF 7
ENDMDL
MODEL 6
REMARK VINA RESULT:      -7.7      2.223      2.717
REMARK  Name = 
REMARK  8 active torsions:
REMARK  status: ('A' for Active; 'I' for Inactive)
REMARK    1  A    between atoms: C_1  and  O_2
REMARK    2  A    between atoms: O_2  and  C_3
REMARK    3  A    between atoms: N_5  and  C_6
REMARK    4  A    between atoms: C_9  and  S_10
REMARK    5  A    between atoms: S_10  and  N_13
REMARK    6  A    between atoms: N_13  and  C_14
REMARK    7  A    between atoms: C_16  and  C_17
REMARK    8  A    between atoms: C_23  and  O_24
REMARK                            x       y       z     vdW  Elec       q    Type
REMARK                         _______ _______ _______ _____ _____    ______ ____
ROOT
ATOM      1  S   UNL     1       3.388   6.159  18.478  0.00  0.00    +0.000 S 
ATOM      2  O   UNL     1       4.087   5.674  19.652  0.00  0.00    +0.000 OA
ATOM      3  O   UNL     1       2.597   5.270  17.654  0.00  0.00    +0.000 OA
ENDROOT
BRANCH   1   7
ATOM      4  C   UNL     1       0.744   9.668  19.772  0.00  0.00    +0.000 A 
ATOM      5  C   UNL     1       1.194   9.549  18.452  0.00  0.00    +0.000 A 
ATOM      6  C   UNL     1       1.982   8.468  18.059  0.00  0.00    +0.000 A 
ATOM      7  C   UNL     1       2.329   7.489  18.988  0.00  0.00    +0.000 A 
ATOM      8  C   UNL     1       1.840   7.564  20.301  0.00  0.00    +0.000 A 
ATOM      9  C   UNL     1       1.078   8.671  20.698  0.00  0.00    +0.000 A 
BRANCH   4  12
ATOM     10  C   UNL     1       0.452  11.847  20.907  0.00  0.00    +0.000 C 
ATOM     11  O   UNL     1       1.609  12.075  21.221  0.00  0.00    +0.000 OA
ATOM     12  N   UNL     1      -0.020  10.767  20.205  0.00  0.00    +0.000 N 
ATOM     13  H   UNL     1      -0.989  10.838  19.922  0.00  0.00    +0.000 HD
BRANCH  10  15
ATOM     14  C   UNL     1      -0.180  13.772  22.042  0.00  0.00    +0.000 C 
ATOM     15  O   UNL     1      -0.578  12.690  21.195  0.00  0.00    +0.000 OA
ENDBRANCH  10  15
ENDBRANCH   4  12
ENDBRANCH   1   7
BRANCH   1  16
ATOM     16  N   UNL     1       4.512   6.892  17.433  0.00  0.00    +0.000 N 
ATOM     17  H   UNL     1       4.871   7.753  17.847  0.00  0.00    +0.000 HD
BRANCH  16  18
ATOM     18  C   UNL     1       5.501   6.045  16.844  0.00  0.00    +0.000 A 
ATOM     19  C   UNL     1       5.292   5.533  15.568  0.00  0.00    +0.000 A 
ATOM     20  C   UNL     1       6.220   4.638  15.021  0.00  0.00    +0.000 A 
ATOM     21  C   UNL     1       7.313   4.274  15.804  0.00  0.00    +0.000 A 
ATOM     22  N   UNL     1       7.544   4.744  17.053  0.00  0.00    +0.000 NA
ATOM     23  C   UNL     1       6.642   5.623  17.520  0.00  0.00    +0.000 A 
BRANCH  20  24
ATOM     24  C   UNL     1       6.076   4.064  13.646  0.00  0.00    +0.000 C 
ATOM     25  F   UNL     1       6.371   2.739  13.573  0.00  0.00    +0.000 F 
ATOM     26  F   UNL     1       4.810   4.194  13.165  0.00  0.00    +0.000 F 
ATOM     27  F   UNL     1       6.884   4.683  12.743  0.00  0.00    +0.000 F 
ENDBRANCH  20  24
BRANCH  23  28
ATOM     28  O   UNL     1       6.926   6.073  18.770  0.00  0.00    +0.000 OA
ATOM     29  H   UNL     1       7.896   5.973  18.774  0.00  0.00    +0.000 HD
ENDBRANCH  23  28
ENDBRANCH  16  18
ENDBRANCH   1  16
TORSDOF 7
ENDMDL
MODEL 7
REMARK VINA RESULT:      -7.7      1.285      1.842
REMARK  Name = 
REMARK  8 active torsions:
REMARK  status: ('A' for Active; 'I' for Inactive)
REMARK    1  A    between atoms: C_1  and  O_2
REMARK    2  A    between atoms: O_2  and  C_3
REMARK    3  A    between atoms: N_5  and  C_6
REMARK    4  A    between atoms: C_9  and  S_10
REMARK    5  A    between atoms: S_10  and  N_13
REMARK    6  A    between atoms: N_13  and  C_14
REMARK    7  A    between atoms: C_16  and  C_17
REMARK    8  A    between atoms: C_23  and  O_24
REMARK                            x       y       z     vdW  Elec       q    Type
REMARK                         _______ _______ _______ _____ _____    ______ ____
ROOT
ATOM      1  S   UNL     1       3.472   3.331  17.729  0.00  0.00    +0.000 S 
ATOM      2  O   UNL     1       3.082   2.115  18.416  0.00  0.00    +0.000 OA
ATOM      3  O   UNL     1       3.030   3.606  16.379  0.00  0.00    +0.000 OA
ENDROOT
BRANCH   1   7
ATOM      4  C   UNL     1       2.084   6.851  20.309  0.00  0.00    +0.000 A 
ATOM      5  C   UNL     1       1.798   5.530  20.673  0.00  0.00    +0.000 A 
ATOM      6  C   UNL     1       2.240   4.462  19.894  0.00  0.00    +0.000 A 
ATOM      7  C   UNL     1       2.979   4.706  18.737  0.00  0.00    +0.000 A 
ATOM      8  C   UNL     1       3.321   6.021  18.389  0.00  0.00    +0.000 A 
ATOM      9  C   UNL     1       2.844   7.092  19.157  0.00  0.00    +0.000 A 
BRANCH   4  12
ATOM     10  C   UNL     1       1.033   9.079  20.543  0.00  0.00    +0.000 C 
ATOM     11  O   UNL     1       0.758   9.303  19.374  0.00  0.00    +0.000 OA
ATOM     12  N   UNL     1       1.617   7.949  21.055  0.00  0.00    +0.000 N 
ATOM     13  H   UNL     1       1.627   7.901  22.066  0.00  0.00    +0.000 HD
BRANCH  10  15
ATOM     14  C   UNL     1      -0.038   9.352  22.585  0.00  0.00    +0.000 C 
ATOM     15  O   UNL     1       0.753   9.947  21.553  0.00  0.00    +0.000 OA
ENDBRANCH  10  15
ENDBRANCH   4  12
ENDBRANCH   1   7
BRANCH   1  16
ATOM     16  N   UNL     1       5.170   3.421  17.695  0.00  0.00    +0.000 N 
ATOM     17  H   UNL     1       5.578   2.524  17.959  0.00  0.00    +0.000 HD
BRANCH  16  18
ATOM     18  C   UNL     1       5.766   4.045  16.555  0.00  0.00    +0.000 A 
ATOM     19  C   UNL     1       5.540   3.517  15.289  0.00  0.00    +0.000 A 
ATOM     20  C   UNL     1       6.188   4.077  14.180  0.00  0.00    +0.000 A 
ATOM     21  C   UNL     1       7.066   5.134  14.405  0.00  0.00    +0.000 A 
ATOM     22  N   UNL     1       7.319   5.667  15.624  0.00  0.00    +0.000 NA
ATOM     23  C   UNL     1       6.650   5.117  16.650  0.00  0.00    +0.000 A 
BRANCH  20  24
ATOM     24  C   UNL     1       5.976   3.580  12.784  0.00  0.00    +0.000 C 
ATOM     25  F   UNL     1       6.194   2.246  12.640  0.00  0.00    +0.000 F 
ATOM     26  F   UNL     1       4.707   3.803  12.346  0.00  0.00    +0.000 F 
ATOM     27  F   UNL     1       6.794   4.197  11.889  0.00  0.00    +0.000 F 
ENDBRANCH  20  24
BRANCH  23  28
ATOM     28  O   UNL     1       6.929   5.694  17.847  0.00  0.00    +0.000 OA
ATOM     29  H   UNL     1       6.032   5.748  18.226  0.00  0.00    +0.000 HD
ENDBRANCH  23  28
ENDBRANCH  16  18
ENDBRANCH   1  16
TORSDOF 7
ENDMDL
MODEL 8
REMARK VINA RESULT:      -7.6      1.607      1.863
REMARK  Name = 
REMARK  8 active torsions:
REMARK  status: ('A' for Active; 'I' for Inactive)
REMARK    1  A    between atoms: C_1  and  O_2
REMARK    2  A    between atoms: O_2  and  C_3
REMARK    3  A    between atoms: N_5  and  C_6
REMARK    4  A    between atoms: C_9  and  S_10
REMARK    5  A    between atoms: S_10  and  N_13
REMARK    6  A    between atoms: N_13  and  C_14
REMARK    7  A    between atoms: C_16  and  C_17
REMARK    8  A    between atoms: C_23  and  O_24
REMARK                            x       y       z     vdW  Elec       q    Type
REMARK                         _______ _______ _______ _____ _____    ______ ____
ROOT
ATOM      1  S   UNL     1       3.480   3.023  19.010  0.00  0.00    +0.000 S 
ATOM      2  O   UNL     1       3.017   2.285  20.170  0.00  0.00    +0.000 OA
ATOM      3  O   UNL     1       3.196   2.567  17.667  0.00  0.00    +0.000 OA
ENDROOT
BRANCH   1   7
ATOM      4  C   UNL     1       2.007   7.348  19.320  0.00  0.00    +0.000 A 
ATOM      5  C   UNL     1       2.347   6.786  18.084  0.00  0.00    +0.000 A 
ATOM      6  C   UNL     1       2.776   5.464  17.993  0.00  0.00    +0.000 A 
ATOM      7  C   UNL     1       2.868   4.683  19.145  0.00  0.00    +0.000 A 
ATOM      8  C   UNL     1       2.477   5.214  20.383  0.00  0.00    +0.000 A 
ATOM      9  C   UNL     1       2.080   6.555  20.472  0.00  0.00    +0.000 A 
BRANCH   4  12
ATOM     10  C   UNL     1       1.706   9.653  18.473  0.00  0.00    +0.000 C 
ATOM     11  O   UNL     1       2.090   9.504  17.324  0.00  0.00    +0.000 OA
ATOM     12  N   UNL     1       1.608   8.692  19.445  0.00  0.00    +0.000 N 
ATOM     13  H   UNL     1       1.131   8.990  20.287  0.00  0.00    +0.000 HD
BRANCH  10  15
ATOM     14  C   UNL     1       0.060  10.719  19.718  0.00  0.00    +0.000 C 
ATOM     15  O   UNL     1       1.269  10.846  18.963  0.00  0.00    +0.000 OA
ENDBRANCH  10  15
ENDBRANCH   4  12
ENDBRANCH   1   7
BRANCH   1  16
ATOM     16  N   UNL     1       5.170   3.187  19.102  0.00  0.00    +0.000 N 
ATOM     17  H   UNL     1       5.612   2.270  19.168  0.00  0.00    +0.000 HD
BRANCH  16  18
ATOM     18  C   UNL     1       5.788   4.093  18.185  0.00  0.00    +0.000 A 
ATOM     19  C   UNL     1       5.679   3.863  16.818  0.00  0.00    +0.000 A 
ATOM     20  C   UNL     1       6.351   4.702  15.920  0.00  0.00    +0.000 A 
ATOM     21  C   UNL     1       7.134   5.726  16.447  0.00  0.00    +0.000 A 
ATOM     22  N   UNL     1       7.271   5.973  17.772  0.00  0.00    +0.000 NA
ATOM     23  C   UNL     1       6.583   5.161  18.590  0.00  0.00    +0.000 A 
BRANCH  20  24
ATOM     24  C   UNL     1       6.262   4.533  14.435  0.00  0.00    +0.000 C 
ATOM     25  F   UNL     1       6.468   3.256  14.017  0.00  0.00    +0.000 F 
ATOM     26  F   UNL     1       5.045   4.897  13.948  0.00  0.00    +0.000 F 
ATOM     27  F   UNL     1       7.172   5.300  13.775  0.00  0.00    +0.000 F 
ENDBRANCH  20  24
BRANCH  23  28
ATOM     28  O   UNL     1       6.745   5.459  19.905  0.00  0.00    +0.000 OA
ATOM     29  H   UNL     1       6.331   6.342  19.935  0.00  0.00    +0.000 HD
ENDBRANCH  23  28
ENDBRANCH  16  18
ENDBRANCH   1  16
TORSDOF 7
ENDMDL
MODEL 9
REMARK VINA RESULT:      -7.6      1.887      2.413
REMARK  Name = 
REMARK  8 active torsions:
REMARK  status: ('A' for Active; 'I' for Inactive)
REMARK    1  A    between atoms: C_1  and  O_2
REMARK    2  A    between atoms: O_2  and  C_3
REMARK    3  A    between atoms: N_5  and  C_6
REMARK    4  A    between atoms: C_9  and  S_10
REMARK    5  A    between atoms: S_10  and  N_13
REMARK    6  A    between atoms: N_13  and  C_14
REMARK    7  A    between atoms: C_16  and  C_17
REMARK    8  A    between atoms: C_23  and  O_24
REMARK                            x       y       z     vdW  Elec       q    Type
REMARK                         _______ _______ _______ _____ _____    ______ ____
ROOT
ATOM      1  S   UNL     1       3.279   5.950  18.599  0.00  0.00    +0.000 S 
ATOM      2  O   UNL     1       4.004   5.266  19.651  0.00  0.00    +0.000 OA
ATOM      3  O   UNL     1       2.401   5.231  17.701  0.00  0.00    +0.000 OA
ENDROOT
BRANCH   1   7
ATOM      4  C   UNL     1       0.719   9.210  20.545  0.00  0.00    +0.000 A 
ATOM      5  C   UNL     1       1.056   8.043  21.240  0.00  0.00    +0.000 A 
ATOM      6  C   UNL     1       1.852   7.063  20.650  0.00  0.00    +0.000 A 
ATOM      7  C   UNL     1       2.323   7.242  19.350  0.00  0.00    +0.000 A 
ATOM      8  C   UNL     1       2.041   8.430  18.661  0.00  0.00    +0.000 A 
ATOM      9  C   UNL     1       1.211   9.396  19.247  0.00  0.00    +0.000 A 
BRANCH   4  12
ATOM     10  C   UNL     1      -0.265  10.461  22.440  0.00  0.00    +0.000 C 
ATOM     11  O   UNL     1       0.334   9.939  23.367  0.00  0.00    +0.000 OA
ATOM     12  N   UNL     1      -0.114  10.198  21.102  0.00  0.00    +0.000 N 
ATOM     13  H   UNL     1      -0.599  10.840  20.489  0.00  0.00    +0.000 HD
BRANCH  10  15
ATOM     14  C   UNL     1      -0.801  12.673  21.980  0.00  0.00    +0.000 C 
ATOM     15  O   UNL     1      -1.186  11.449  22.610  0.00  0.00    +0.000 OA
ENDBRANCH  10  15
ENDBRANCH   4  12
ENDBRANCH   1   7
BRANCH   1  16
ATOM     16  N   UNL     1       4.393   6.770  17.608  0.00  0.00    +0.000 N 
ATOM     17  H   UNL     1       4.712   7.624  18.067  0.00  0.00    +0.000 HD
BRANCH  16  18
ATOM     18  C   UNL     1       5.422   5.988  17.000  0.00  0.00    +0.000 A 
ATOM     19  C   UNL     1       5.243   5.507  15.707  0.00  0.00    +0.000 A 
ATOM     20  C   UNL     1       6.214   4.672  15.139  0.00  0.00    +0.000 A 
ATOM     21  C   UNL     1       7.318   4.333  15.918  0.00  0.00    +0.000 A 
ATOM     22  N   UNL     1       7.520   4.774  17.182  0.00  0.00    +0.000 NA
ATOM     23  C   UNL     1       6.577   5.596  17.670  0.00  0.00    +0.000 A 
BRANCH  20  24
ATOM     24  C   UNL     1       6.104   4.136  13.746  0.00  0.00    +0.000 C 
ATOM     25  F   UNL     1       6.927   4.751  12.856  0.00  0.00    +0.000 F 
ATOM     26  F   UNL     1       6.403   2.810  13.680  0.00  0.00    +0.000 F 
ATOM     27  F   UNL     1       4.844   4.259  13.245  0.00  0.00    +0.000 F 
ENDBRANCH  20  24
BRANCH  23  28
ATOM     28  O   UNL     1       6.834   6.019  18.935  0.00  0.00    +0.000 OA
ATOM     29  H   UNL     1       5.927   6.208  19.242  0.00  0.00    +0.000 HD
ENDBRANCH  23  28
ENDBRANCH  16  18
ENDBRANCH   1  16
TORSDOF 7
ENDMDL
