MODEL 1
REMARK VINA RESULT:      -9.3      0.000      0.000
REMARK  Name = 
REMARK  4 active torsions:
REMARK  status: ('A' for Active; 'I' for Inactive)
REMARK    1  A    between atoms: C_4  and  O_5
REMARK    2  A    between atoms: O_5  and  C_6
REMARK    3  A    between atoms: C_6  and  C_7
REMARK    4  A    between atoms: N_16  and  C_17
REMARK                            x       y       z     vdW  Elec       q    Type
REMARK                         _______ _______ _______ _____ _____    ______ ____
ROOT
ATOM      1  C   UNL     1       2.019   7.706  19.007  0.00  0.00    +0.000 A 
ATOM      2  C   UNL     1       1.436   8.736  18.254  0.00  0.00    +0.000 A 
ATOM      3  C   UNL     1       0.944   9.879  18.873  0.00  0.00    +0.000 A 
ATOM      4  C   UNL     1       0.896   9.922  20.268  0.00  0.00    +0.000 A 
ATOM      5  C   UNL     1       0.588  10.917  21.203  0.00  0.00    +0.000 A 
ATOM      6  C   UNL     1       0.023  10.238  22.246  0.00  0.00    +0.000 A 
ATOM      7  N   UNL     1       0.613   8.993  22.264  0.00  0.00    +0.000 N 
ATOM      8  C   UNL     1       1.180   8.771  21.007  0.00  0.00    +0.000 A 
ATOM      9  C   UNL     1       1.876   7.693  20.416  0.00  0.00    +0.000 A 
ATOM     10  C   UNL     1      -1.115  10.862  23.012  0.00  0.00    +0.000 C 
ATOM     11  C   UNL     1      -1.804  11.970  22.071  0.00  0.00    +0.000 C 
ATOM     12  C   UNL     1      -2.452  13.147  22.800  0.00  0.00    +0.000 C 
ATOM     13  C   UNL     1      -2.557  14.224  21.726  0.00  0.00    +0.000 C 
ATOM     14  C   UNL     1      -1.286  14.053  20.929  0.00  0.00    +0.000 C 
ATOM     15  N   UNL     1      -1.003  12.621  20.984  0.00  0.00    +0.000 NA
ATOM     16  C   UNL     1       0.426  12.378  21.090  0.00  0.00    +0.000 C 
ATOM     17  H   UNL     1       0.540   8.299  22.999  0.00  0.00    +0.000 HD
ENDROOT
BRANCH   1  24
ATOM     18  O   UNL     1       1.477   4.925  18.949  0.00  0.00    +0.000 OA
ATOM     19  C   UNL     1       2.500   5.382  18.441  0.00  0.00    +0.000 A 
ATOM     20  C   UNL     1       3.552   4.401  18.006  0.00  0.00    +0.000 A 
ATOM     21  C   UNL     1       4.715   4.813  17.473  0.00  0.00    +0.000 A 
ATOM     22  C   UNL     1       4.942   6.228  17.312  0.00  0.00    +0.000 A 
ATOM     23  C   UNL     1       4.034   7.122  17.722  0.00  0.00    +0.000 A 
ATOM     24  N   UNL     1       2.817   6.746  18.286  0.00  0.00    +0.000 N 
BRANCH  21  25
ATOM     25  O   UNL     1       5.781   4.040  17.053  0.00  0.00    +0.000 OA
BRANCH  25  26
ATOM     26  C   UNL     1       6.911   4.720  16.482  0.00  0.00    +0.000 C 
BRANCH  26  27
ATOM     27  C   UNL     1       6.961   4.677  14.963  0.00  0.00    +0.000 A 
ATOM     28  C   UNL     1       6.162   3.815  14.209  0.00  0.00    +0.000 A 
ATOM     29  C   UNL     1       6.305   3.780  12.814  0.00  0.00    +0.000 A 
ATOM     30  C   UNL     1       7.239   4.607  12.217  0.00  0.00    +0.000 A 
ATOM     31  F   UNL     1       7.403   4.595  10.887  0.00  0.00    +0.000 F 
ATOM     32  C   UNL     1       8.005   5.425  13.018  0.00  0.00    +0.000 A 
ATOM     33  N   UNL     1       7.885   5.483  14.365  0.00  0.00    +0.000 NA
ENDBRANCH  26  27
ENDBRANCH  25  26
ENDBRANCH  21  25
ENDBRANCH   1  24
TORSDOF 4
ENDMDL
MODEL 2
REMARK VINA RESULT:      -8.8      1.118      1.280
REMARK  Name = 
REMARK  4 active torsions:
REMARK  status: ('A' for Active; 'I' for Inactive)
REMARK    1  A    between atoms: C_4  and  O_5
REMARK    2  A    between atoms: O_5  and  C_6
REMARK    3  A    between atoms: C_6  and  C_7
REMARK    4  A    between atoms: N_16  and  C_17
REMARK                            x       y       z     vdW  Elec       q    Type
REMARK                         _______ _______ _______ _____ _____    ______ ____
ROOT
ATOM      1  C   UNL     1       1.357   8.465  19.707  0.00  0.00    +0.000 A 
ATOM      2  C   UNL     1       0.883   9.512  18.902  0.00  0.00    +0.000 A 
ATOM      3  C   UNL     1       0.352  10.664  19.472  0.00  0.00    +0.000 A 
ATOM      4  C   UNL     1       0.153  10.700  20.855  0.00  0.00    +0.000 A 
ATOM      5  C   UNL     1      -0.232  11.698  21.758  0.00  0.00    +0.000 A 
ATOM      6  C   UNL     1      -0.923  11.027  22.728  0.00  0.00    +0.000 A 
ATOM      7  N   UNL     1      -0.367   9.768  22.801  0.00  0.00    +0.000 N 
ATOM      8  C   UNL     1       0.329   9.539  21.611  0.00  0.00    +0.000 A 
ATOM      9  C   UNL     1       1.060   8.448  21.092  0.00  0.00    +0.000 A 
ATOM     10  C   UNL     1      -2.123  11.673  23.370  0.00  0.00    +0.000 C 
ATOM     11  C   UNL     1      -2.680  12.803  22.367  0.00  0.00    +0.000 C 
ATOM     12  C   UNL     1      -3.376  13.991  23.030  0.00  0.00    +0.000 C 
ATOM     13  C   UNL     1      -3.339  15.076  21.959  0.00  0.00    +0.000 C 
ATOM     14  C   UNL     1      -1.992  14.878  21.305  0.00  0.00    +0.000 C 
ATOM     15  N   UNL     1      -1.750  13.440  21.379  0.00  0.00    +0.000 NA
ATOM     16  C   UNL     1      -0.347  13.163  21.639  0.00  0.00    +0.000 C 
ATOM     17  H   UNL     1      -0.536   9.073  23.518  0.00  0.00    +0.000 HD
ENDROOT
BRANCH   1  24
ATOM     18  O   UNL     1       1.807   5.857  20.720  0.00  0.00    +0.000 OA
ATOM     19  C   UNL     1       2.431   6.274  19.746  0.00  0.00    +0.000 A 
ATOM     20  C   UNL     1       3.594   5.452  19.267  0.00  0.00    +0.000 A 
ATOM     21  C   UNL     1       4.353   5.850  18.232  0.00  0.00    +0.000 A 
ATOM     22  C   UNL     1       4.028   7.089  17.568  0.00  0.00    +0.000 A 
ATOM     23  C   UNL     1       3.017   7.854  17.997  0.00  0.00    +0.000 A 
ATOM     24  N   UNL     1       2.206   7.489  19.070  0.00  0.00    +0.000 N 
BRANCH  21  25
ATOM     25  O   UNL     1       5.461   5.222  17.697  0.00  0.00    +0.000 OA
BRANCH  25  26
ATOM     26  C   UNL     1       6.249   5.958  16.746  0.00  0.00    +0.000 C 
BRANCH  26  27
ATOM     27  C   UNL     1       6.364   5.293  15.384  0.00  0.00    +0.000 A 
ATOM     28  C   UNL     1       5.385   4.430  14.884  0.00  0.00    +0.000 A 
ATOM     29  C   UNL     1       5.583   3.799  13.647  0.00  0.00    +0.000 A 
ATOM     30  C   UNL     1       6.752   4.050  12.949  0.00  0.00    +0.000 A 
ATOM     31  F   UNL     1       6.974   3.459  11.766  0.00  0.00    +0.000 F 
ATOM     32  C   UNL     1       7.682   4.901  13.503  0.00  0.00    +0.000 A 
ATOM     33  N   UNL     1       7.514   5.526  14.690  0.00  0.00    +0.000 NA
ENDBRANCH  26  27
ENDBRANCH  25  26
ENDBRANCH  21  25
ENDBRANCH   1  24
TORSDOF 4
ENDMDL
MODEL 3
REMARK VINA RESULT:      -8.7      4.689     11.483
REMARK  Name = 
REMARK  4 active torsions:
REMARK  status: ('A' for Active; 'I' for Inactive)
REMARK    1  A    between atoms: C_4  and  O_5
REMARK    2  A    between atoms: O_5  and  C_6
REMARK    3  A    between atoms: C_6  and  C_7
REMARK    4  A    between atoms: N_16  and  C_17
REMARK                            x       y       z     vdW  Elec       q    Type
REMARK                         _______ _______ _______ _____ _____    ______ ____
ROOT
ATOM      1  C   UNL     1       1.109   9.041  19.397  0.00  0.00    +0.000 A 
ATOM      2  C   UNL     1       1.796   9.336  18.210  0.00  0.00    +0.000 A 
ATOM      3  C   UNL     1       2.633   8.394  17.620  0.00  0.00    +0.000 A 
ATOM      4  C   UNL     1       2.902   7.208  18.307  0.00  0.00    +0.000 A 
ATOM      5  C   UNL     1       3.574   6.024  17.981  0.00  0.00    +0.000 A 
ATOM      6  C   UNL     1       4.116   5.607  19.165  0.00  0.00    +0.000 A 
ATOM      7  N   UNL     1       3.259   6.034  20.156  0.00  0.00    +0.000 N 
ATOM      8  C   UNL     1       2.471   7.058  19.627  0.00  0.00    +0.000 A 
ATOM      9  C   UNL     1       1.459   7.894  20.151  0.00  0.00    +0.000 A 
ATOM     10  C   UNL     1       5.471   4.949  19.173  0.00  0.00    +0.000 C 
ATOM     11  C   UNL     1       6.250   5.391  17.836  0.00  0.00    +0.000 C 
ATOM     12  C   UNL     1       7.260   4.381  17.293  0.00  0.00    +0.000 C 
ATOM     13  C   UNL     1       7.451   4.804  15.841  0.00  0.00    +0.000 C 
ATOM     14  C   UNL     1       6.068   5.239  15.416  0.00  0.00    +0.000 C 
ATOM     15  N   UNL     1       5.469   5.800  16.624  0.00  0.00    +0.000 NA
ATOM     16  C   UNL     1       4.056   5.468  16.704  0.00  0.00    +0.000 C 
ATOM     17  H   UNL     1       3.278   5.760  21.131  0.00  0.00    +0.000 HD
ENDROOT
BRANCH   1  24
ATOM     18  O   UNL     1      -0.968   9.746  17.603  0.00  0.00    +0.000 OA
ATOM     19  C   UNL     1      -0.889  10.265  18.716  0.00  0.00    +0.000 A 
ATOM     20  C   UNL     1      -1.779  11.443  18.994  0.00  0.00    +0.000 A 
ATOM     21  C   UNL     1      -1.734  12.092  20.170  0.00  0.00    +0.000 A 
ATOM     22  C   UNL     1      -0.815  11.632  21.182  0.00  0.00    +0.000 A 
ATOM     23  C   UNL     1       0.011  10.606  20.945  0.00  0.00    +0.000 A 
ATOM     24  N   UNL     1       0.008   9.906  19.741  0.00  0.00    +0.000 N 
BRANCH  21  25
ATOM     25  O   UNL     1      -2.465  13.198  20.561  0.00  0.00    +0.000 OA
BRANCH  25  26
ATOM     26  C   UNL     1      -2.492  13.515  21.963  0.00  0.00    +0.000 C 
BRANCH  26  27
ATOM     27  C   UNL     1      -3.825  13.235  22.639  0.00  0.00    +0.000 A 
ATOM     28  C   UNL     1      -3.922  12.854  23.979  0.00  0.00    +0.000 A 
ATOM     29  C   UNL     1      -5.179  12.548  24.523  0.00  0.00    +0.000 A 
ATOM     30  C   UNL     1      -6.297  12.635  23.713  0.00  0.00    +0.000 A 
ATOM     31  F   UNL     1      -7.512  12.347  24.200  0.00  0.00    +0.000 F 
ATOM     32  C   UNL     1      -6.131  13.006  22.396  0.00  0.00    +0.000 A 
ATOM     33  N   UNL     1      -4.933  13.310  21.847  0.00  0.00    +0.000 NA
ENDBRANCH  26  27
ENDBRANCH  25  26
ENDBRANCH  21  25
ENDBRANCH   1  24
TORSDOF 4
ENDMDL
MODEL 4
REMARK VINA RESULT:      -8.6      2.653      3.316
REMARK  Name = 
REMARK  4 active torsions:
REMARK  status: ('A' for Active; 'I' for Inactive)
REMARK    1  A    between atoms: C_4  and  O_5
REMARK    2  A    between atoms: O_5  and  C_6
REMARK    3  A    between atoms: C_6  and  C_7
REMARK    4  A    between atoms: N_16  and  C_17
REMARK                            x       y       z     vdW  Elec       q    Type
REMARK                         _______ _______ _______ _____ _____    ______ ____
ROOT
ATOM      1  C   UNL     1       1.155   8.519  20.341  0.00  0.00    +0.000 A 
ATOM      2  C   UNL     1       0.827   9.569  19.471  0.00  0.00    +0.000 A 
ATOM      3  C   UNL     1       0.284  10.753  19.958  0.00  0.00    +0.000 A 
ATOM      4  C   UNL     1      -0.076  10.825  21.306  0.00  0.00    +0.000 A 
ATOM      5  C   UNL     1      -0.521  11.855  22.143  0.00  0.00    +0.000 A 
ATOM      6  C   UNL     1      -1.352  11.232  23.032  0.00  0.00    +0.000 A 
ATOM      7  N   UNL     1      -0.865   9.952  23.189  0.00  0.00    +0.000 N 
ATOM      8  C   UNL     1      -0.044   9.672  22.094  0.00  0.00    +0.000 A 
ATOM      9  C   UNL     1       0.695   8.541  21.681  0.00  0.00    +0.000 A 
ATOM     10  C   UNL     1      -2.590  11.941  23.518  0.00  0.00    +0.000 C 
ATOM     11  C   UNL     1      -2.972  13.074  22.441  0.00  0.00    +0.000 C 
ATOM     12  C   UNL     1      -3.689  14.303  22.999  0.00  0.00    +0.000 C 
ATOM     13  C   UNL     1      -3.477  15.364  21.926  0.00  0.00    +0.000 C 
ATOM     14  C   UNL     1      -2.072  15.097  21.440  0.00  0.00    +0.000 C 
ATOM     15  N   UNL     1      -1.905  13.652  21.562  0.00  0.00    +0.000 NA
ATOM     16  C   UNL     1      -0.557  13.320  21.991  0.00  0.00    +0.000 C 
ATOM     17  H   UNL     1      -1.149   9.278  23.890  0.00  0.00    +0.000 HD
ENDROOT
BRANCH   1  24
ATOM     18  O   UNL     1       2.373   8.626  17.784  0.00  0.00    +0.000 OA
ATOM     19  C   UNL     1       2.470   7.623  18.491  0.00  0.00    +0.000 A 
ATOM     20  C   UNL     1       3.046   6.387  17.861  0.00  0.00    +0.000 A 
ATOM     21  C   UNL     1       3.157   5.238  18.548  0.00  0.00    +0.000 A 
ATOM     22  C   UNL     1       2.719   5.206  19.922  0.00  0.00    +0.000 A 
ATOM     23  C   UNL     1       2.172   6.285  20.495  0.00  0.00    +0.000 A 
ATOM     24  N   UNL     1       2.029   7.496  19.823  0.00  0.00    +0.000 N 
BRANCH  21  25
ATOM     25  O   UNL     1       3.637   4.021  18.103  0.00  0.00    +0.000 OA
BRANCH  25  26
ATOM     26  C   UNL     1       4.809   4.034  17.270  0.00  0.00    +0.000 C 
BRANCH  26  27
ATOM     27  C   UNL     1       5.867   5.038  17.698  0.00  0.00    +0.000 A 
ATOM     28  C   UNL     1       6.307   6.068  16.864  0.00  0.00    +0.000 A 
ATOM     29  C   UNL     1       7.332   6.921  17.297  0.00  0.00    +0.000 A 
ATOM     30  C   UNL     1       7.885   6.719  18.549  0.00  0.00    +0.000 A 
ATOM     31  F   UNL     1       8.870   7.513  18.992  0.00  0.00    +0.000 F 
ATOM     32  C   UNL     1       7.415   5.677  19.318  0.00  0.00    +0.000 A 
ATOM     33  N   UNL     1       6.424   4.843  18.927  0.00  0.00    +0.000 NA
ENDBRANCH  26  27
ENDBRANCH  25  26
ENDBRANCH  21  25
ENDBRANCH   1  24
TORSDOF 4
ENDMDL
MODEL 5
REMARK VINA RESULT:      -8.6      1.967      3.521
REMARK  Name = 
REMARK  4 active torsions:
REMARK  status: ('A' for Active; 'I' for Inactive)
REMARK    1  A    between atoms: C_4  and  O_5
REMARK    2  A    between atoms: O_5  and  C_6
REMARK    3  A    between atoms: C_6  and  C_7
REMARK    4  A    between atoms: N_16  and  C_17
REMARK                            x       y       z     vdW  Elec       q    Type
REMARK                         _______ _______ _______ _____ _____    ______ ____
ROOT
ATOM      1  C   UNL     1       0.807   9.305  20.591  0.00  0.00    +0.000 A 
ATOM      2  C   UNL     1       0.792   9.646  21.951  0.00  0.00    +0.000 A 
ATOM      3  C   UNL     1      -0.154  10.533  22.453  0.00  0.00    +0.000 A 
ATOM      4  C   UNL     1      -0.992  11.202  21.556  0.00  0.00    +0.000 A 
ATOM      5  C   UNL     1      -2.101  12.043  21.701  0.00  0.00    +0.000 A 
ATOM      6  C   UNL     1      -2.016  12.899  20.639  0.00  0.00    +0.000 A 
ATOM      7  N   UNL     1      -1.420  12.192  19.617  0.00  0.00    +0.000 N 
ATOM      8  C   UNL     1      -0.759  11.099  20.183  0.00  0.00    +0.000 A 
ATOM      9  C   UNL     1       0.039  10.055  19.666  0.00  0.00    +0.000 A 
ATOM     10  C   UNL     1      -2.422  14.340  20.809  0.00  0.00    +0.000 C 
ATOM     11  C   UNL     1      -2.335  14.703  22.374  0.00  0.00    +0.000 C 
ATOM     12  C   UNL     1      -3.303  15.782  22.859  0.00  0.00    +0.000 C 
ATOM     13  C   UNL     1      -3.361  15.565  24.367  0.00  0.00    +0.000 C 
ATOM     14  C   UNL     1      -3.304  14.063  24.510  0.00  0.00    +0.000 C 
ATOM     15  N   UNL     1      -2.473  13.615  23.396  0.00  0.00    +0.000 NA
ATOM     16  C   UNL     1      -2.968  12.364  22.849  0.00  0.00    +0.000 C 
ATOM     17  H   UNL     1      -1.349  12.475  18.647  0.00  0.00    +0.000 HD
ENDROOT
BRANCH   1  24
ATOM     18  O   UNL     1       2.246   9.046  18.163  0.00  0.00    +0.000 OA
ATOM     19  C   UNL     1       2.129   8.095  18.935  0.00  0.00    +0.000 A 
ATOM     20  C   UNL     1       2.567   6.745  18.441  0.00  0.00    +0.000 A 
ATOM     21  C   UNL     1       2.443   5.646  19.204  0.00  0.00    +0.000 A 
ATOM     22  C   UNL     1       1.886   5.780  20.527  0.00  0.00    +0.000 A 
ATOM     23  C   UNL     1       1.460   6.965  20.978  0.00  0.00    +0.000 A 
ATOM     24  N   UNL     1       1.560   8.132  20.223  0.00  0.00    +0.000 N 
BRANCH  21  25
ATOM     25  O   UNL     1       2.772   4.344  18.881  0.00  0.00    +0.000 OA
BRANCH  25  26
ATOM     26  C   UNL     1       4.136   3.935  19.078  0.00  0.00    +0.000 C 
BRANCH  26  27
ATOM     27  C   UNL     1       5.041   4.187  17.882  0.00  0.00    +0.000 A 
ATOM     28  C   UNL     1       4.584   4.107  16.564  0.00  0.00    +0.000 A 
ATOM     29  C   UNL     1       5.487   4.288  15.506  0.00  0.00    +0.000 A 
ATOM     30  C   UNL     1       6.815   4.545  15.797  0.00  0.00    +0.000 A 
ATOM     31  F   UNL     1       7.704   4.719  14.809  0.00  0.00    +0.000 F 
ATOM     32  C   UNL     1       7.203   4.599  17.118  0.00  0.00    +0.000 A 
ATOM     33  N   UNL     1       6.353   4.433  18.157  0.00  0.00    +0.000 NA
ENDBRANCH  26  27
ENDBRANCH  25  26
ENDBRANCH  21  25
ENDBRANCH   1  24
TORSDOF 4
ENDMDL
MODEL 6
REMARK VINA RESULT:      -8.5      5.053     11.870
REMARK  Name = 
REMARK  4 active torsions:
REMARK  status: ('A' for Active; 'I' for Inactive)
REMARK    1  A    between atoms: C_4  and  O_5
REMARK    2  A    between atoms: O_5  and  C_6
REMARK    3  A    between atoms: C_6  and  C_7
REMARK    4  A    between atoms: N_16  and  C_17
REMARK                            x       y       z     vdW  Elec       q    Type
REMARK                         _______ _______ _______ _____ _____    ______ ____
ROOT
ATOM      1  C   UNL     1       0.903   9.804  19.266  0.00  0.00    +0.000 A 
ATOM      2  C   UNL     1       1.742   9.975  18.155  0.00  0.00    +0.000 A 
ATOM      3  C   UNL     1       2.517   8.923  17.679  0.00  0.00    +0.000 A 
ATOM      4  C   UNL     1       2.568   7.738  18.416  0.00  0.00    +0.000 A 
ATOM      5  C   UNL     1       3.123   6.473  18.191  0.00  0.00    +0.000 A 
ATOM      6  C   UNL     1       3.484   6.036  19.436  0.00  0.00    +0.000 A 
ATOM      7  N   UNL     1       2.585   6.594  20.319  0.00  0.00    +0.000 N 
ATOM      8  C   UNL     1       1.985   7.685  19.685  0.00  0.00    +0.000 A 
ATOM      9  C   UNL     1       1.032   8.650  20.077  0.00  0.00    +0.000 A 
ATOM     10  C   UNL     1       4.743   5.226  19.605  0.00  0.00    +0.000 C 
ATOM     11  C   UNL     1       5.705   5.527  18.351  0.00  0.00    +0.000 C 
ATOM     12  C   UNL     1       6.638   4.388  17.943  0.00  0.00    +0.000 C 
ATOM     13  C   UNL     1       7.030   4.735  16.511  0.00  0.00    +0.000 C 
ATOM     14  C   UNL     1       5.762   5.314  15.930  0.00  0.00    +0.000 C 
ATOM     15  N   UNL     1       5.110   5.983  17.053  0.00  0.00    +0.000 NA
ATOM     16  C   UNL     1       3.668   5.821  16.986  0.00  0.00    +0.000 C 
ATOM     17  H   UNL     1       2.469   6.354  21.296  0.00  0.00    +0.000 HD
ENDROOT
BRANCH   1  24
ATOM     18  O   UNL     1       0.793  11.516  21.522  0.00  0.00    +0.000 OA
ATOM     19  C   UNL     1      -0.115  11.502  20.692  0.00  0.00    +0.000 A 
ATOM     20  C   UNL     1      -1.378  12.240  21.038  0.00  0.00    +0.000 A 
ATOM     21  C   UNL     1      -2.433  12.249  20.206  0.00  0.00    +0.000 A 
ATOM     22  C   UNL     1      -2.336  11.540  18.954  0.00  0.00    +0.000 A 
ATOM     23  C   UNL     1      -1.234  10.849  18.639  0.00  0.00    +0.000 A 
ATOM     24  N   UNL     1      -0.117  10.803  19.470  0.00  0.00    +0.000 N 
BRANCH  21  25
ATOM     25  O   UNL     1      -3.661  12.854  20.395  0.00  0.00    +0.000 OA
BRANCH  25  26
ATOM     26  C   UNL     1      -3.715  13.989  21.275  0.00  0.00    +0.000 C 
BRANCH  26  27
ATOM     27  C   UNL     1      -4.887  13.971  22.243  0.00  0.00    +0.000 A 
ATOM     28  C   UNL     1      -5.524  15.137  22.674  0.00  0.00    +0.000 A 
ATOM     29  C   UNL     1      -6.558  15.055  23.617  0.00  0.00    +0.000 A 
ATOM     30  C   UNL     1      -6.925  13.811  24.099  0.00  0.00    +0.000 A 
ATOM     31  F   UNL     1      -7.907  13.697  25.005  0.00  0.00    +0.000 F 
ATOM     32  C   UNL     1      -6.249  12.700  23.643  0.00  0.00    +0.000 A 
ATOM     33  N   UNL     1      -5.252  12.751  22.731  0.00  0.00    +0.000 NA
ENDBRANCH  26  27
ENDBRANCH  25  26
ENDBRANCH  21  25
ENDBRANCH   1  24
TORSDOF 4
ENDMDL
MODEL 7
REMARK VINA RESULT:      -8.5      2.706      3.561
REMARK  Name = 
REMARK  4 active torsions:
REMARK  status: ('A' for Active; 'I' for Inactive)
REMARK    1  A    between atoms: C_4  and  O_5
REMARK    2  A    between atoms: O_5  and  C_6
REMARK    3  A    between atoms: C_6  and  C_7
REMARK    4  A    between atoms: N_16  and  C_17
REMARK                            x       y       z     vdW  Elec       q    Type
REMARK                         _______ _______ _______ _____ _____    ______ ____
ROOT
ATOM      1  C   UNL     1       0.946   9.338  20.218  0.00  0.00    +0.000 A 
ATOM      2  C   UNL     1       0.727  10.529  19.511  0.00  0.00    +0.000 A 
ATOM      3  C   UNL     1       0.187  11.643  20.144  0.00  0.00    +0.000 A 
ATOM      4  C   UNL     1      -0.279  11.513  21.455  0.00  0.00    +0.000 A 
ATOM      5  C   UNL     1      -0.753  12.414  22.415  0.00  0.00    +0.000 A 
ATOM      6  C   UNL     1      -1.675  11.696  23.126  0.00  0.00    +0.000 A 
ATOM      7  N   UNL     1      -1.246  10.386  23.105  0.00  0.00    +0.000 N 
ATOM      8  C   UNL     1      -0.349  10.247  22.043  0.00  0.00    +0.000 A 
ATOM      9  C   UNL     1       0.381   9.164  21.505  0.00  0.00    +0.000 A 
ATOM     10  C   UNL     1      -2.922  12.375  23.628  0.00  0.00    +0.000 C 
ATOM     11  C   UNL     1      -3.177  13.683  22.727  0.00  0.00    +0.000 C 
ATOM     12  C   UNL     1      -3.894  14.839  23.425  0.00  0.00    +0.000 C 
ATOM     13  C   UNL     1      -3.559  16.049  22.560  0.00  0.00    +0.000 C 
ATOM     14  C   UNL     1      -2.129  15.798  22.142  0.00  0.00    +0.000 C 
ATOM     15  N   UNL     1      -2.023  14.345  22.037  0.00  0.00    +0.000 NA
ATOM     16  C   UNL     1      -0.726  13.885  22.504  0.00  0.00    +0.000 C 
ATOM     17  H   UNL     1      -1.609   9.622  23.662  0.00  0.00    +0.000 HD
ENDROOT
BRANCH   1  24
ATOM     18  O   UNL     1       1.898   9.531  17.555  0.00  0.00    +0.000 OA
ATOM     19  C   UNL     1       2.123   8.532  18.237  0.00  0.00    +0.000 A 
ATOM     20  C   UNL     1       2.707   7.336  17.540  0.00  0.00    +0.000 A 
ATOM     21  C   UNL     1       2.951   6.192  18.200  0.00  0.00    +0.000 A 
ATOM     22  C   UNL     1       2.653   6.126  19.610  0.00  0.00    +0.000 A 
ATOM     23  C   UNL     1       2.103   7.167  20.246  0.00  0.00    +0.000 A 
ATOM     24  N   UNL     1       1.824   8.372  19.605  0.00  0.00    +0.000 N 
BRANCH  21  25
ATOM     25  O   UNL     1       3.456   5.008  17.695  0.00  0.00    +0.000 OA
BRANCH  25  26
ATOM     26  C   UNL     1       4.570   5.093  16.790  0.00  0.00    +0.000 C 
BRANCH  26  27
ATOM     27  C   UNL     1       5.807   5.747  17.384  0.00  0.00    +0.000 A 
ATOM     28  C   UNL     1       6.477   5.221  18.491  0.00  0.00    +0.000 A 
ATOM     29  C   UNL     1       7.574   5.909  19.029  0.00  0.00    +0.000 A 
ATOM     30  C   UNL     1       7.968   7.100  18.443  0.00  0.00    +0.000 A 
ATOM     31  F   UNL     1       9.010   7.785  18.935  0.00  0.00    +0.000 F 
ATOM     32  C   UNL     1       7.257   7.571  17.361  0.00  0.00    +0.000 A 
ATOM     33  N   UNL     1       6.199   6.925  16.820  0.00  0.00    +0.000 NA
ENDBRANCH  26  27
ENDBRANCH  25  26
ENDBRANCH  21  25
ENDBRANCH   1  24
TORSDOF 4
ENDMDL
MODEL 8
REMARK VINA RESULT:      -8.5      1.675      2.592
REMARK  Name = 
REMARK  4 active torsions:
REMARK  status: ('A' for Active; 'I' for Inactive)
REMARK    1  A    between atoms: C_4  and  O_5
REMARK    2  A    between atoms: O_5  and  C_6
REMARK    3  A    between atoms: C_6  and  C_7
REMARK    4  A    between atoms: N_16  and  C_17
REMARK                            x       y       z     vdW  Elec       q    Type
REMARK                         _______ _______ _______ _____ _____    ______ ____
ROOT
ATOM      1  C   UNL     1       0.812   8.697  20.577  0.00  0.00    +0.000 A 
ATOM      2  C   UNL     1       0.424   9.645  19.620  0.00  0.00    +0.000 A 
ATOM      3  C   UNL     1      -0.136  10.858  20.007  0.00  0.00    +0.000 A 
ATOM      4  C   UNL     1      -0.451  11.056  21.353  0.00  0.00    +0.000 A 
ATOM      5  C   UNL     1      -0.896  12.153  22.100  0.00  0.00    +0.000 A 
ATOM      6  C   UNL     1      -1.677  11.602  23.077  0.00  0.00    +0.000 A 
ATOM      7  N   UNL     1      -1.147  10.357  23.342  0.00  0.00    +0.000 N 
ATOM      8  C   UNL     1      -0.357   9.989  22.251  0.00  0.00    +0.000 A 
ATOM      9  C   UNL     1       0.399   8.841  21.925  0.00  0.00    +0.000 A 
ATOM     10  C   UNL     1      -2.917  12.324  23.535  0.00  0.00    +0.000 C 
ATOM     11  C   UNL     1      -3.370  13.333  22.366  0.00  0.00    +0.000 C 
ATOM     12  C   UNL     1      -4.103  14.593  22.825  0.00  0.00    +0.000 C 
ATOM     13  C   UNL     1      -3.959  15.546  21.644  0.00  0.00    +0.000 C 
ATOM     14  C   UNL     1      -2.564  15.268  21.135  0.00  0.00    +0.000 C 
ATOM     15  N   UNL     1      -2.351  13.847  21.394  0.00  0.00    +0.000 NA
ATOM     16  C   UNL     1      -0.980  13.595  21.804  0.00  0.00    +0.000 C 
ATOM     17  H   UNL     1      -1.387   9.751  24.117  0.00  0.00    +0.000 HD
ENDROOT
BRANCH   1  24
ATOM     18  O   UNL     1       2.354   8.833  18.203  0.00  0.00    +0.000 OA
ATOM     19  C   UNL     1       2.312   7.802  18.873  0.00  0.00    +0.000 A 
ATOM     20  C   UNL     1       2.907   6.561  18.269  0.00  0.00    +0.000 A 
ATOM     21  C   UNL     1       2.874   5.384  18.916  0.00  0.00    +0.000 A 
ATOM     22  C   UNL     1       2.261   5.324  20.220  0.00  0.00    +0.000 A 
ATOM     23  C   UNL     1       1.696   6.409  20.764  0.00  0.00    +0.000 A 
ATOM     24  N   UNL     1       1.698   7.650  20.132  0.00  0.00    +0.000 N 
BRANCH  21  25
ATOM     25  O   UNL     1       3.351   4.161  18.483  0.00  0.00    +0.000 OA
BRANCH  25  26
ATOM     26  C   UNL     1       4.773   3.954  18.510  0.00  0.00    +0.000 C 
BRANCH  26  27
ATOM     27  C   UNL     1       5.476   4.290  17.205  0.00  0.00    +0.000 A 
ATOM     28  C   UNL     1       4.847   4.180  15.963  0.00  0.00    +0.000 A 
ATOM     29  C   UNL     1       5.573   4.443  14.792  0.00  0.00    +0.000 A 
ATOM     30  C   UNL     1       6.904   4.809  14.899  0.00  0.00    +0.000 A 
ATOM     31  F   UNL     1       7.627   5.064  13.800  0.00  0.00    +0.000 F 
ATOM     32  C   UNL     1       7.468   4.887  16.153  0.00  0.00    +0.000 A 
ATOM     33  N   UNL     1       6.790   4.644  17.298  0.00  0.00    +0.000 NA
ENDBRANCH  26  27
ENDBRANCH  25  26
ENDBRANCH  21  25
ENDBRANCH   1  24
TORSDOF 4
ENDMDL
MODEL 9
REMARK VINA RESULT:      -8.4      3.762      5.039
REMARK  Name = 
REMARK  4 active torsions:
REMARK  status: ('A' for Active; 'I' for Inactive)
REMARK    1  A    between atoms: C_4  and  O_5
REMARK    2  A    between atoms: O_5  and  C_6
REMARK    3  A    between atoms: C_6  and  C_7
REMARK    4  A    between atoms: N_16  and  C_17
REMARK                            x       y       z     vdW  Elec       q    Type
REMARK                         _______ _______ _______ _____ _____    ______ ____
ROOT
ATOM      1  C   UNL     1       0.628   9.467  20.094  0.00  0.00    +0.000 A 
ATOM      2  C   UNL     1      -0.279  10.033  19.186  0.00  0.00    +0.000 A 
ATOM      3  C   UNL     1      -1.110  11.080  19.569  0.00  0.00    +0.000 A 
ATOM      4  C   UNL     1      -1.141  11.457  20.914  0.00  0.00    +0.000 A 
ATOM      5  C   UNL     1      -1.741  12.508  21.618  0.00  0.00    +0.000 A 
ATOM      6  C   UNL     1      -2.028  11.972  22.843  0.00  0.00    +0.000 A 
ATOM      7  N   UNL     1      -1.058  11.024  23.089  0.00  0.00    +0.000 N 
ATOM      8  C   UNL     1      -0.475  10.682  21.867  0.00  0.00    +0.000 A 
ATOM      9  C   UNL     1       0.526   9.766  21.475  0.00  0.00    +0.000 A 
ATOM     10  C   UNL     1      -3.292  12.377  23.555  0.00  0.00    +0.000 C 
ATOM     11  C   UNL     1      -4.329  12.935  22.458  0.00  0.00    +0.000 C 
ATOM     12  C   UNL     1      -5.316  13.990  22.956  0.00  0.00    +0.000 C 
ATOM     13  C   UNL     1      -5.794  14.670  21.678  0.00  0.00    +0.000 C 
ATOM     14  C   UNL     1      -4.554  14.713  20.816  0.00  0.00    +0.000 C 
ATOM     15  N   UNL     1      -3.812  13.507  21.173  0.00  0.00    +0.000 NA
ATOM     16  C   UNL     1      -2.381  13.763  21.186  0.00  0.00    +0.000 C 
ATOM     17  H   UNL     1      -0.882  10.553  23.969  0.00  0.00    +0.000 HD
ENDROOT
BRANCH   1  24
ATOM     18  O   UNL     1       1.808   9.930  17.559  0.00  0.00    +0.000 OA
ATOM     19  C   UNL     1       2.094   8.931  18.218  0.00  0.00    +0.000 A 
ATOM     20  C   UNL     1       2.899   7.861  17.537  0.00  0.00    +0.000 A 
ATOM     21  C   UNL     1       3.227   6.722  18.170  0.00  0.00    +0.000 A 
ATOM     22  C   UNL     1       2.800   6.539  19.535  0.00  0.00    +0.000 A 
ATOM     23  C   UNL     1       2.055   7.464  20.153  0.00  0.00    +0.000 A 
ATOM     24  N   UNL     1       1.684   8.657  19.538  0.00  0.00    +0.000 N 
BRANCH  21  25
ATOM     25  O   UNL     1       3.933   5.643  17.672  0.00  0.00    +0.000 OA
BRANCH  25  26
ATOM     26  C   UNL     1       3.198   4.441  17.390  0.00  0.00    +0.000 C 
BRANCH  26  27
ATOM     27  C   UNL     1       2.653   3.740  18.624  0.00  0.00    +0.000 A 
ATOM     28  C   UNL     1       1.284   3.585  18.857  0.00  0.00    +0.000 A 
ATOM     29  C   UNL     1       0.847   2.985  20.047  0.00  0.00    +0.000 A 
ATOM     30  C   UNL     1       1.790   2.559  20.966  0.00  0.00    +0.000 A 
ATOM     31  F   UNL     1       1.406   1.986  22.115  0.00  0.00    +0.000 F 
ATOM     32  C   UNL     1       3.124   2.752  20.681  0.00  0.00    +0.000 A 
ATOM     33  N   UNL     1       3.573   3.323  19.540  0.00  0.00    +0.000 NA
ENDBRANCH  26  27
ENDBRANCH  25  26
ENDBRANCH  21  25
ENDBRANCH   1  24
TORSDOF 4
ENDMDL
