MODEL 1
REMARK VINA RESULT:      -8.7      0.000      0.000
REMARK  Name = 
REMARK  5 active torsions:
REMARK  status: ('A' for Active; 'I' for Inactive)
REMARK    1  A    between atoms: C_1  and  O_2
REMARK    2  A    between atoms: O_2  and  C_3
REMARK    3  A    between atoms: C_9  and  N_10
REMARK    4  A    between atoms: N_13  and  C_14
REMARK    5  A    between atoms: N_22  and  C_23
REMARK                            x       y       z     vdW  Elec       q    Type
REMARK                         _______ _______ _______ _____ _____    ______ ____
ROOT
ATOM      1  N   UNL     1       9.616   9.555  19.238  0.00  0.00    +0.000 N 
ATOM      2  C   UNL     1       8.629   8.774  18.692  0.00  0.00    +0.000 C 
ATOM      3  O   UNL     1       7.780   9.254  17.952  0.00  0.00    +0.000 OA
ATOM      4  N   UNL     1       8.585   7.428  18.944  0.00  0.00    +0.000 N 
ATOM      5  H   UNL     1      10.314   9.058  19.804  0.00  0.00    +0.000 HD
ATOM      6  H   UNL     1       9.300   6.985  19.541  0.00  0.00    +0.000 HD
ENDROOT
BRANCH   4   7
ATOM      7  C   UNL     1       7.551   6.635  18.387  0.00  0.00    +0.000 A 
ATOM      8  C   UNL     1       7.237   6.747  17.036  0.00  0.00    +0.000 A 
ATOM      9  C   UNL     1       6.156   6.044  16.514  0.00  0.00    +0.000 A 
ATOM     10  C   UNL     1       5.343   5.230  17.331  0.00  0.00    +0.000 A 
ATOM     11  C   UNL     1       5.665   5.101  18.713  0.00  0.00    +0.000 A 
ATOM     12  C   UNL     1       6.785   5.807  19.212  0.00  0.00    +0.000 A 
ATOM     13  C   UNL     1       4.853   4.306  19.725  0.00  0.00    +0.000 C 
ATOM     14  C   UNL     1       4.457   2.869  19.338  0.00  0.00    +0.000 C 
ATOM     15  N   UNL     1       3.451   2.779  18.262  0.00  0.00    +0.000 NA
ATOM     16  C   UNL     1       3.995   3.081  16.926  0.00  0.00    +0.000 C 
ATOM     17  C   UNL     1       4.155   4.579  16.660  0.00  0.00    +0.000 C 
BRANCH  15  18
ATOM     18  C   UNL     1       2.147   3.437  18.570  0.00  0.00    +0.000 C 
ATOM     19  C   UNL     1       1.097   2.554  19.258  0.00  0.00    +0.000 C 
ATOM     20  C   UNL     1       0.752   3.741  20.147  0.00  0.00    +0.000 C 
ATOM     21  C   UNL     1       2.133   4.317  19.825  0.00  0.00    +0.000 C 
ENDBRANCH  15  18
ENDBRANCH   4   7
BRANCH   1  28
ATOM     22  C   UNL     1       9.233  11.917  20.039  0.00  0.00    +0.000 A 
ATOM     23  C   UNL     1       9.362  13.298  19.808  0.00  0.00    +0.000 A 
ATOM     24  C   UNL     1       9.986  13.788  18.666  0.00  0.00    +0.000 A 
ATOM     25  C   UNL     1      10.479  12.909  17.717  0.00  0.00    +0.000 A 
ATOM     26 CL   UNL     1      11.231  13.528  16.254  0.00  0.00    +0.000 Cl
ATOM     27  C   UNL     1      10.365  11.534  17.910  0.00  0.00    +0.000 A 
ATOM     28  C   UNL     1       9.757  10.989  19.072  0.00  0.00    +0.000 A 
BRANCH  22  30
ATOM     29  C   UNL     1       8.623  12.207  22.422  0.00  0.00    +0.000 C 
ATOM     30  O   UNL     1       8.592  11.586  21.193  0.00  0.00    +0.000 OA
ENDBRANCH  22  30
ENDBRANCH   1  28
TORSDOF 4
ENDMDL
MODEL 2
REMARK VINA RESULT:      -8.5      6.912     10.525
REMARK  Name = 
REMARK  5 active torsions:
REMARK  status: ('A' for Active; 'I' for Inactive)
REMARK    1  A    between atoms: C_1  and  O_2
REMARK    2  A    between atoms: O_2  and  C_3
REMARK    3  A    between atoms: C_9  and  N_10
REMARK    4  A    between atoms: N_13  and  C_14
REMARK    5  A    between atoms: N_22  and  C_23
REMARK                            x       y       z     vdW  Elec       q    Type
REMARK                         _______ _______ _______ _____ _____    ______ ____
ROOT
ATOM      1  N   UNL     1       2.626   6.285  18.006  0.00  0.00    +0.000 N 
ATOM      2  C   UNL     1       2.216   7.490  18.516  0.00  0.00    +0.000 C 
ATOM      3  O   UNL     1       2.182   7.687  19.724  0.00  0.00    +0.000 OA
ATOM      4  N   UNL     1       1.856   8.515  17.681  0.00  0.00    +0.000 N 
ATOM      5  H   UNL     1       2.671   6.228  16.982  0.00  0.00    +0.000 HD
ATOM      6  H   UNL     1       1.898   8.392  16.657  0.00  0.00    +0.000 HD
ENDROOT
BRANCH   4   7
ATOM      7  C   UNL     1       1.417   9.750  18.220  0.00  0.00    +0.000 A 
ATOM      8  C   UNL     1       0.145   9.857  18.774  0.00  0.00    +0.000 A 
ATOM      9  C   UNL     1      -0.322  11.093  19.209  0.00  0.00    +0.000 A 
ATOM     10  C   UNL     1       0.459  12.261  19.079  0.00  0.00    +0.000 A 
ATOM     11  C   UNL     1       1.767  12.158  18.525  0.00  0.00    +0.000 A 
ATOM     12  C   UNL     1       2.226  10.885  18.114  0.00  0.00    +0.000 A 
ATOM     13  C   UNL     1       2.700  13.334  18.274  0.00  0.00    +0.000 C 
ATOM     14  C   UNL     1       2.905  14.330  19.429  0.00  0.00    +0.000 C 
ATOM     15  N   UNL     1       1.725  15.163  19.737  0.00  0.00    +0.000 NA
ATOM     16  C   UNL     1       0.660  14.428  20.444  0.00  0.00    +0.000 C 
ATOM     17  C   UNL     1      -0.190  13.554  19.520  0.00  0.00    +0.000 C 
BRANCH  15  18
ATOM     18  C   UNL     1       1.253  16.017  18.608  0.00  0.00    +0.000 C 
ATOM     19  C   UNL     1       0.404  17.235  18.999  0.00  0.00    +0.000 C 
ATOM     20  C   UNL     1       1.167  18.041  17.958  0.00  0.00    +0.000 C 
ATOM     21  C   UNL     1       2.286  17.001  18.048  0.00  0.00    +0.000 C 
ENDBRANCH  15  18
ENDBRANCH   4   7
BRANCH   1  28
ATOM     22  C   UNL     1       4.281   4.474  18.602  0.00  0.00    +0.000 A 
ATOM     23  C   UNL     1       4.581   3.323  19.351  0.00  0.00    +0.000 A 
ATOM     24  C   UNL     1       3.674   2.792  20.262  0.00  0.00    +0.000 A 
ATOM     25  C   UNL     1       2.436   3.388  20.431  0.00  0.00    +0.000 A 
ATOM     26 CL   UNL     1       1.274   2.693  21.551  0.00  0.00    +0.000 Cl
ATOM     27  C   UNL     1       2.102   4.528  19.704  0.00  0.00    +0.000 A 
ATOM     28  C   UNL     1       3.006   5.118  18.781  0.00  0.00    +0.000 A 
BRANCH  22  30
ATOM     29  C   UNL     1       5.567   4.403  16.487  0.00  0.00    +0.000 C 
ATOM     30  O   UNL     1       5.260   4.873  17.745  0.00  0.00    +0.000 OA
ENDBRANCH  22  30
ENDBRANCH   1  28
TORSDOF 4
ENDMDL
MODEL 3
REMARK VINA RESULT:      -8.4      3.101      9.944
REMARK  Name = 
REMARK  5 active torsions:
REMARK  status: ('A' for Active; 'I' for Inactive)
REMARK    1  A    between atoms: C_1  and  O_2
REMARK    2  A    between atoms: O_2  and  C_3
REMARK    3  A    between atoms: C_9  and  N_10
REMARK    4  A    between atoms: N_13  and  C_14
REMARK    5  A    between atoms: N_22  and  C_23
REMARK                            x       y       z     vdW  Elec       q    Type
REMARK                         _______ _______ _______ _____ _____    ______ ____
ROOT
ATOM      1  N   UNL     1       7.818   6.575  18.188  0.00  0.00    +0.000 N 
ATOM      2  C   UNL     1       8.014   7.933  18.189  0.00  0.00    +0.000 C 
ATOM      3  O   UNL     1       7.349   8.668  17.471  0.00  0.00    +0.000 OA
ATOM      4  N   UNL     1       8.946   8.502  19.016  0.00  0.00    +0.000 N 
ATOM      5  H   UNL     1       8.384   6.044  18.859  0.00  0.00    +0.000 HD
ATOM      6  H   UNL     1       9.506   7.915  19.654  0.00  0.00    +0.000 HD
ENDROOT
BRANCH   4   7
ATOM      7  C   UNL     1       9.151   9.904  18.996  0.00  0.00    +0.000 A 
ATOM      8  C   UNL     1       9.597  10.527  17.834  0.00  0.00    +0.000 A 
ATOM      9  C   UNL     1       9.895  11.886  17.845  0.00  0.00    +0.000 A 
ATOM     10  C   UNL     1       9.783  12.655  19.023  0.00  0.00    +0.000 A 
ATOM     11  C   UNL     1       9.316  12.027  20.214  0.00  0.00    +0.000 A 
ATOM     12  C   UNL     1       8.995  10.650  20.168  0.00  0.00    +0.000 A 
ATOM     13  C   UNL     1       9.194  12.711  21.567  0.00  0.00    +0.000 C 
ATOM     14  C   UNL     1       8.480  14.075  21.607  0.00  0.00    +0.000 C 
ATOM     15  N   UNL     1       9.227  15.176  20.970  0.00  0.00    +0.000 NA
ATOM     16  C   UNL     1       9.216  15.115  19.496  0.00  0.00    +0.000 C 
ATOM     17  C   UNL     1      10.209  14.102  18.923  0.00  0.00    +0.000 C 
BRANCH  15  18
ATOM     18  C   UNL     1      10.563  15.456  21.574  0.00  0.00    +0.000 C 
ATOM     19  C   UNL     1      11.228  16.773  21.149  0.00  0.00    +0.000 C 
ATOM     20  C   UNL     1      11.659  16.965  22.596  0.00  0.00    +0.000 C 
ATOM     21  C   UNL     1      10.538  16.007  23.004  0.00  0.00    +0.000 C 
ENDBRANCH  15  18
ENDBRANCH   4   7
BRANCH   1  28
ATOM     22  C   UNL     1       5.606   5.410  17.836  0.00  0.00    +0.000 A 
ATOM     23  C   UNL     1       4.759   4.677  16.987  0.00  0.00    +0.000 A 
ATOM     24  C   UNL     1       5.127   4.370  15.682  0.00  0.00    +0.000 A 
ATOM     25  C   UNL     1       6.361   4.770  15.200  0.00  0.00    +0.000 A 
ATOM     26 CL   UNL     1       6.844   4.346  13.564  0.00  0.00    +0.000 Cl
ATOM     27  C   UNL     1       7.230   5.494  16.013  0.00  0.00    +0.000 A 
ATOM     28  C   UNL     1       6.885   5.851  17.344  0.00  0.00    +0.000 A 
BRANCH  22  30
ATOM     29  C   UNL     1       3.870   5.350  19.601  0.00  0.00    +0.000 C 
ATOM     30  O   UNL     1       5.118   5.627  19.088  0.00  0.00    +0.000 OA
ENDBRANCH  22  30
ENDBRANCH   1  28
TORSDOF 4
ENDMDL
MODEL 4
REMARK VINA RESULT:      -8.4      7.211     10.037
REMARK  Name = 
REMARK  5 active torsions:
REMARK  status: ('A' for Active; 'I' for Inactive)
REMARK    1  A    between atoms: C_1  and  O_2
REMARK    2  A    between atoms: O_2  and  C_3
REMARK    3  A    between atoms: C_9  and  N_10
REMARK    4  A    between atoms: N_13  and  C_14
REMARK    5  A    between atoms: N_22  and  C_23
REMARK                            x       y       z     vdW  Elec       q    Type
REMARK                         _______ _______ _______ _____ _____    ______ ____
ROOT
ATOM      1  N   UNL     1       3.014   5.916  20.042  0.00  0.00    +0.000 N 
ATOM      2  C   UNL     1       2.288   7.071  19.897  0.00  0.00    +0.000 C 
ATOM      3  O   UNL     1       2.170   7.610  18.804  0.00  0.00    +0.000 OA
ATOM      4  N   UNL     1       1.656   7.637  20.972  0.00  0.00    +0.000 N 
ATOM      5  H   UNL     1       3.016   5.507  20.983  0.00  0.00    +0.000 HD
ATOM      6  H   UNL     1       1.713   7.195  21.903  0.00  0.00    +0.000 HD
ENDROOT
BRANCH   4   7
ATOM      7  C   UNL     1       0.923   8.840  20.814  0.00  0.00    +0.000 A 
ATOM      8  C   UNL     1       0.932   9.505  19.591  0.00  0.00    +0.000 A 
ATOM      9  C   UNL     1       0.296  10.736  19.466  0.00  0.00    +0.000 A 
ATOM     10  C   UNL     1      -0.342  11.350  20.565  0.00  0.00    +0.000 A 
ATOM     11  C   UNL     1      -0.365  10.670  21.817  0.00  0.00    +0.000 A 
ATOM     12  C   UNL     1       0.267   9.407  21.909  0.00  0.00    +0.000 A 
ATOM     13  C   UNL     1      -0.966  11.227  23.099  0.00  0.00    +0.000 C 
ATOM     14  C   UNL     1      -2.385  11.818  23.013  0.00  0.00    +0.000 C 
ATOM     15  N   UNL     1      -2.477  13.086  22.263  0.00  0.00    +0.000 NA
ATOM     16  C   UNL     1      -2.368  12.910  20.803  0.00  0.00    +0.000 C 
ATOM     17  C   UNL     1      -0.930  12.722  20.320  0.00  0.00    +0.000 C 
BRANCH  15  18
ATOM     18  C   UNL     1      -1.659  14.202  22.821  0.00  0.00    +0.000 C 
ATOM     19  C   UNL     1      -2.096  15.619  22.422  0.00  0.00    +0.000 C 
ATOM     20  C   UNL     1      -1.830  16.053  23.856  0.00  0.00    +0.000 C 
ATOM     21  C   UNL     1      -1.970  14.587  24.272  0.00  0.00    +0.000 C 
ENDBRANCH  15  18
ENDBRANCH   4   7
BRANCH   1  28
ATOM     22  C   UNL     1       3.089   4.381  18.039  0.00  0.00    +0.000 A 
ATOM     23  C   UNL     1       3.855   3.715  17.067  0.00  0.00    +0.000 A 
ATOM     24  C   UNL     1       5.236   3.863  17.003  0.00  0.00    +0.000 A 
ATOM     25  C   UNL     1       5.888   4.666  17.923  0.00  0.00    +0.000 A 
ATOM     26 CL   UNL     1       7.638   4.820  17.869  0.00  0.00    +0.000 Cl
ATOM     27  C   UNL     1       5.163   5.339  18.904  0.00  0.00    +0.000 A 
ATOM     28  C   UNL     1       3.749   5.235  18.991  0.00  0.00    +0.000 A 
BRANCH  22  30
ATOM     29  C   UNL     1       1.024   3.120  18.568  0.00  0.00    +0.000 C 
ATOM     30  O   UNL     1       1.751   4.134  17.985  0.00  0.00    +0.000 OA
ENDBRANCH  22  30
ENDBRANCH   1  28
TORSDOF 4
ENDMDL
MODEL 5
REMARK VINA RESULT:      -8.3      7.749     10.455
REMARK  Name = 
REMARK  5 active torsions:
REMARK  status: ('A' for Active; 'I' for Inactive)
REMARK    1  A    between atoms: C_1  and  O_2
REMARK    2  A    between atoms: O_2  and  C_3
REMARK    3  A    between atoms: C_9  and  N_10
REMARK    4  A    between atoms: N_13  and  C_14
REMARK    5  A    between atoms: N_22  and  C_23
REMARK                            x       y       z     vdW  Elec       q    Type
REMARK                         _______ _______ _______ _____ _____    ______ ____
ROOT
ATOM      1  N   UNL     1       2.805   6.688  19.000  0.00  0.00    +0.000 N 
ATOM      2  C   UNL     1       2.018   7.424  19.849  0.00  0.00    +0.000 C 
ATOM      3  O   UNL     1       1.486   6.910  20.824  0.00  0.00    +0.000 OA
ATOM      4  N   UNL     1       1.828   8.764  19.637  0.00  0.00    +0.000 N 
ATOM      5  H   UNL     1       3.251   7.212  18.239  0.00  0.00    +0.000 HD
ATOM      6  H   UNL     1       2.283   9.236  18.839  0.00  0.00    +0.000 HD
ENDROOT
BRANCH   4   7
ATOM      7  C   UNL     1       1.000   9.512  20.511  0.00  0.00    +0.000 A 
ATOM      8  C   UNL     1       1.054   9.289  21.884  0.00  0.00    +0.000 A 
ATOM      9  C   UNL     1       0.169   9.949  22.730  0.00  0.00    +0.000 A 
ATOM     10  C   UNL     1      -0.811  10.831  22.227  0.00  0.00    +0.000 A 
ATOM     11  C   UNL     1      -0.865  11.074  20.824  0.00  0.00    +0.000 A 
ATOM     12  C   UNL     1       0.064  10.408  19.989  0.00  0.00    +0.000 A 
ATOM     13  C   UNL     1      -1.896  11.954  20.133  0.00  0.00    +0.000 C 
ATOM     14  C   UNL     1      -2.137  13.355  20.724  0.00  0.00    +0.000 C 
ATOM     15  N   UNL     1      -2.819  13.358  22.033  0.00  0.00    +0.000 NA
ATOM     16  C   UNL     1      -1.946  12.943  23.147  0.00  0.00    +0.000 C 
ATOM     17  C   UNL     1      -1.761  11.428  23.241  0.00  0.00    +0.000 C 
BRANCH  15  18
ATOM     18  C   UNL     1      -4.174  12.732  22.033  0.00  0.00    +0.000 C 
ATOM     19  C   UNL     1      -5.075  13.086  23.224  0.00  0.00    +0.000 C 
ATOM     20  C   UNL     1      -6.238  13.200  22.248  0.00  0.00    +0.000 C 
ATOM     21  C   UNL     1      -5.212  13.407  21.131  0.00  0.00    +0.000 C 
ENDBRANCH  15  18
ENDBRANCH   4   7
BRANCH   1  28
ATOM     22  C   UNL     1       4.381   4.748  19.353  0.00  0.00    +0.000 A 
ATOM     23  C   UNL     1       4.580   3.357  19.400  0.00  0.00    +0.000 A 
ATOM     24  C   UNL     1       3.529   2.467  19.209  0.00  0.00    +0.000 A 
ATOM     25  C   UNL     1       2.257   2.945  18.945  0.00  0.00    +0.000 A 
ATOM     26 CL   UNL     1       0.938   1.819  18.661  0.00  0.00    +0.000 Cl
ATOM     27  C   UNL     1       2.023   4.317  18.887  0.00  0.00    +0.000 A 
ATOM     28  C   UNL     1       3.061   5.263  19.100  0.00  0.00    +0.000 A 
BRANCH  22  30
ATOM     29  C   UNL     1       6.659   5.552  18.805  0.00  0.00    +0.000 C 
ATOM     30  O   UNL     1       5.502   5.495  19.550  0.00  0.00    +0.000 OA
ENDBRANCH  22  30
ENDBRANCH   1  28
TORSDOF 4
ENDMDL
MODEL 6
REMARK VINA RESULT:      -8.3      7.337     10.167
REMARK  Name = 
REMARK  5 active torsions:
REMARK  status: ('A' for Active; 'I' for Inactive)
REMARK    1  A    between atoms: C_1  and  O_2
REMARK    2  A    between atoms: O_2  and  C_3
REMARK    3  A    between atoms: C_9  and  N_10
REMARK    4  A    between atoms: N_13  and  C_14
REMARK    5  A    between atoms: N_22  and  C_23
REMARK                            x       y       z     vdW  Elec       q    Type
REMARK                         _______ _______ _______ _____ _____    ______ ____
ROOT
ATOM      1  N   UNL     1       2.425   6.236  18.001  0.00  0.00    +0.000 N 
ATOM      2  C   UNL     1       2.178   7.493  18.492  0.00  0.00    +0.000 C 
ATOM      3  O   UNL     1       2.360   7.758  19.673  0.00  0.00    +0.000 OA
ATOM      4  N   UNL     1       1.742   8.492  17.662  0.00  0.00    +0.000 N 
ATOM      5  H   UNL     1       2.293   6.120  16.990  0.00  0.00    +0.000 HD
ATOM      6  H   UNL     1       1.603   8.311  16.655  0.00  0.00    +0.000 HD
ENDROOT
BRANCH   4   7
ATOM      7  C   UNL     1       1.474   9.782  18.183  0.00  0.00    +0.000 A 
ATOM      8  C   UNL     1       2.347  10.835  17.922  0.00  0.00    +0.000 A 
ATOM      9  C   UNL     1       2.138  12.075  18.518  0.00  0.00    +0.000 A 
ATOM     10  C   UNL     1       1.067  12.290  19.411  0.00  0.00    +0.000 A 
ATOM     11  C   UNL     1       0.162  11.221  19.674  0.00  0.00    +0.000 A 
ATOM     12  C   UNL     1       0.384   9.979  19.035  0.00  0.00    +0.000 A 
ATOM     13  C   UNL     1      -1.002  11.288  20.651  0.00  0.00    +0.000 C 
ATOM     14  C   UNL     1      -1.943  12.503  20.545  0.00  0.00    +0.000 C 
ATOM     15  N   UNL     1      -1.341  13.782  20.970  0.00  0.00    +0.000 NA
ATOM     16  C   UNL     1      -0.382  14.330  19.994  0.00  0.00    +0.000 C 
ATOM     17  C   UNL     1       0.992  13.659  20.050  0.00  0.00    +0.000 C 
BRANCH  15  18
ATOM     18  C   UNL     1      -0.877  13.813  22.388  0.00  0.00    +0.000 C 
ATOM     19  C   UNL     1      -0.681  15.207  22.999  0.00  0.00    +0.000 C 
ATOM     20  C   UNL     1      -1.317  14.683  24.279  0.00  0.00    +0.000 C 
ATOM     21  C   UNL     1      -1.963  13.576  23.443  0.00  0.00    +0.000 C 
ENDBRANCH  15  18
ENDBRANCH   4   7
BRANCH   1  28
ATOM     22  C   UNL     1       4.138   4.466  18.551  0.00  0.00    +0.000 A 
ATOM     23  C   UNL     1       4.493   3.334  19.305  0.00  0.00    +0.000 A 
ATOM     24  C   UNL     1       3.639   2.804  20.266  0.00  0.00    +0.000 A 
ATOM     25  C   UNL     1       2.400   3.381  20.482  0.00  0.00    +0.000 A 
ATOM     26 CL   UNL     1       1.304   2.686  21.667  0.00  0.00    +0.000 Cl
ATOM     27  C   UNL     1       2.012   4.501  19.751  0.00  0.00    +0.000 A 
ATOM     28  C   UNL     1       2.861   5.090  18.777  0.00  0.00    +0.000 A 
BRANCH  22  30
ATOM     29  C   UNL     1       5.305   4.401  16.367  0.00  0.00    +0.000 C 
ATOM     30  O   UNL     1       5.069   4.866  17.642  0.00  0.00    +0.000 OA
ENDBRANCH  22  30
ENDBRANCH   1  28
TORSDOF 4
ENDMDL
MODEL 7
REMARK VINA RESULT:      -8.2      8.297     10.930
REMARK  Name = 
REMARK  5 active torsions:
REMARK  status: ('A' for Active; 'I' for Inactive)
REMARK    1  A    between atoms: C_1  and  O_2
REMARK    2  A    between atoms: O_2  and  C_3
REMARK    3  A    between atoms: C_9  and  N_10
REMARK    4  A    between atoms: N_13  and  C_14
REMARK    5  A    between atoms: N_22  and  C_23
REMARK                            x       y       z     vdW  Elec       q    Type
REMARK                         _______ _______ _______ _____ _____    ______ ____
ROOT
ATOM      1  N   UNL     1       2.154   6.882  20.721  0.00  0.00    +0.000 N 
ATOM      2  C   UNL     1       1.507   8.087  20.609  0.00  0.00    +0.000 C 
ATOM      3  O   UNL     1       1.088   8.482  19.529  0.00  0.00    +0.000 OA
ATOM      4  N   UNL     1       1.292   8.868  21.714  0.00  0.00    +0.000 N 
ATOM      5  H   UNL     1       2.424   6.609  21.672  0.00  0.00    +0.000 HD
ATOM      6  H   UNL     1       1.608   8.554  22.645  0.00  0.00    +0.000 HD
ENDROOT
BRANCH   4   7
ATOM      7  C   UNL     1       0.638  10.118  21.583  0.00  0.00    +0.000 A 
ATOM      8  C   UNL     1       1.144  11.084  20.718  0.00  0.00    +0.000 A 
ATOM      9  C   UNL     1       0.561  12.345  20.667  0.00  0.00    +0.000 A 
ATOM     10  C   UNL     1      -0.528  12.687  21.498  0.00  0.00    +0.000 A 
ATOM     11  C   UNL     1      -1.060  11.701  22.377  0.00  0.00    +0.000 A 
ATOM     12  C   UNL     1      -0.463  10.418  22.390  0.00  0.00    +0.000 A 
ATOM     13  C   UNL     1      -2.192  11.937  23.366  0.00  0.00    +0.000 C 
ATOM     14  C   UNL     1      -3.460  12.629  22.833  0.00  0.00    +0.000 C 
ATOM     15  N   UNL     1      -3.284  14.054  22.493  0.00  0.00    +0.000 NA
ATOM     16  C   UNL     1      -2.536  14.267  21.240  0.00  0.00    +0.000 C 
ATOM     17  C   UNL     1      -1.023  14.113  21.402  0.00  0.00    +0.000 C 
BRANCH  15  18
ATOM     18  C   UNL     1      -2.857  14.919  23.631  0.00  0.00    +0.000 C 
ATOM     19  C   UNL     1      -3.157  16.418  23.483  0.00  0.00    +0.000 C 
ATOM     20  C   UNL     1      -3.568  16.431  24.949  0.00  0.00    +0.000 C 
ATOM     21  C   UNL     1      -3.790  14.920  24.846  0.00  0.00    +0.000 C 
ENDBRANCH  15  18
ENDBRANCH   4   7
BRANCH   1  28
ATOM     22  C   UNL     1       1.925   4.646  19.572  0.00  0.00    +0.000 A 
ATOM     23  C   UNL     1       2.292   3.800  18.511  0.00  0.00    +0.000 A 
ATOM     24  C   UNL     1       3.164   4.222  17.513  0.00  0.00    +0.000 A 
ATOM     25  C   UNL     1       3.708   5.494  17.564  0.00  0.00    +0.000 A 
ATOM     26 CL   UNL     1       4.843   6.012  16.326  0.00  0.00    +0.000 Cl
ATOM     27  C   UNL     1       3.371   6.359  18.602  0.00  0.00    +0.000 A 
ATOM     28  C   UNL     1       2.466   5.979  19.628  0.00  0.00    +0.000 A 
BRANCH  22  30
ATOM     29  C   UNL     1       1.144   2.882  21.124  0.00  0.00    +0.000 C 
ATOM     30  O   UNL     1       1.071   4.095  20.477  0.00  0.00    +0.000 OA
ENDBRANCH  22  30
ENDBRANCH   1  28
TORSDOF 4
ENDMDL
MODEL 8
REMARK VINA RESULT:      -8.1      7.584      9.877
REMARK  Name = 
REMARK  5 active torsions:
REMARK  status: ('A' for Active; 'I' for Inactive)
REMARK    1  A    between atoms: C_1  and  O_2
REMARK    2  A    between atoms: O_2  and  C_3
REMARK    3  A    between atoms: C_9  and  N_10
REMARK    4  A    between atoms: N_13  and  C_14
REMARK    5  A    between atoms: N_22  and  C_23
REMARK                            x       y       z     vdW  Elec       q    Type
REMARK                         _______ _______ _______ _____ _____    ______ ____
ROOT
ATOM      1  N   UNL     1       3.077   7.557  17.797  0.00  0.00    +0.000 N 
ATOM      2  C   UNL     1       2.051   8.292  18.333  0.00  0.00    +0.000 C 
ATOM      3  O   UNL     1       1.524   7.966  19.389  0.00  0.00    +0.000 OA
ATOM      4  N   UNL     1       1.606   9.428  17.709  0.00  0.00    +0.000 N 
ATOM      5  H   UNL     1       3.492   7.933  16.937  0.00  0.00    +0.000 HD
ATOM      6  H   UNL     1       2.045   9.746  16.831  0.00  0.00    +0.000 HD
ENDROOT
BRANCH   4   7
ATOM      7  C   UNL     1       0.534  10.170  18.264  0.00  0.00    +0.000 A 
ATOM      8  C   UNL     1       0.752  10.990  19.367  0.00  0.00    +0.000 A 
ATOM      9  C   UNL     1      -0.320  11.638  19.973  0.00  0.00    +0.000 A 
ATOM     10  C   UNL     1      -1.642  11.465  19.509  0.00  0.00    +0.000 A 
ATOM     11  C   UNL     1      -1.871  10.637  18.373  0.00  0.00    +0.000 A 
ATOM     12  C   UNL     1      -0.760  10.010  17.761  0.00  0.00    +0.000 A 
ATOM     13  C   UNL     1      -3.240  10.314  17.794  0.00  0.00    +0.000 C 
ATOM     14  C   UNL     1      -4.197  11.495  17.545  0.00  0.00    +0.000 C 
ATOM     15  N   UNL     1      -4.719  12.130  18.771  0.00  0.00    +0.000 NA
ATOM     16  C   UNL     1      -3.724  12.969  19.465  0.00  0.00    +0.000 C 
ATOM     17  C   UNL     1      -2.726  12.163  20.299  0.00  0.00    +0.000 C 
BRANCH  15  18
ATOM     18  C   UNL     1      -5.499  11.220  19.661  0.00  0.00    +0.000 C 
ATOM     19  C   UNL     1      -6.398  11.907  20.698  0.00  0.00    +0.000 C 
ATOM     20  C   UNL     1      -7.466  10.867  20.390  0.00  0.00    +0.000 C 
ATOM     21  C   UNL     1      -6.772  10.629  19.047  0.00  0.00    +0.000 C 
ENDBRANCH  15  18
ENDBRANCH   4   7
BRANCH   1  28
ATOM     22  C   UNL     1       5.014   5.993  18.219  0.00  0.00    +0.000 A 
ATOM     23  C   UNL     1       5.477   4.770  18.733  0.00  0.00    +0.000 A 
ATOM     24  C   UNL     1       4.619   3.874  19.362  0.00  0.00    +0.000 A 
ATOM     25  C   UNL     1       3.272   4.171  19.474  0.00  0.00    +0.000 A 
ATOM     26 CL   UNL     1       2.180   3.021  20.231  0.00  0.00    +0.000 Cl
ATOM     27  C   UNL     1       2.775   5.372  18.973  0.00  0.00    +0.000 A 
ATOM     28  C   UNL     1       3.619   6.326  18.344  0.00  0.00    +0.000 A 
BRANCH  22  30
ATOM     29  C   UNL     1       7.224   6.417  17.185  0.00  0.00    +0.000 C 
ATOM     30  O   UNL     1       5.965   6.763  17.623  0.00  0.00    +0.000 OA
ENDBRANCH  22  30
ENDBRANCH   1  28
TORSDOF 4
ENDMDL
MODEL 9
REMARK VINA RESULT:      -8.1      6.859      9.661
REMARK  Name = 
REMARK  5 active torsions:
REMARK  status: ('A' for Active; 'I' for Inactive)
REMARK    1  A    between atoms: C_1  and  O_2
REMARK    2  A    between atoms: O_2  and  C_3
REMARK    3  A    between atoms: C_9  and  N_10
REMARK    4  A    between atoms: N_13  and  C_14
REMARK    5  A    between atoms: N_22  and  C_23
REMARK                            x       y       z     vdW  Elec       q    Type
REMARK                         _______ _______ _______ _____ _____    ______ ____
ROOT
ATOM      1  N   UNL     1       3.165   5.834  20.075  0.00  0.00    +0.000 N 
ATOM      2  C   UNL     1       2.356   6.941  20.066  0.00  0.00    +0.000 C 
ATOM      3  O   UNL     1       2.030   7.478  19.015  0.00  0.00    +0.000 OA
ATOM      4  N   UNL     1       1.870   7.460  21.237  0.00  0.00    +0.000 N 
ATOM      5  H   UNL     1       3.344   5.421  20.997  0.00  0.00    +0.000 HD
ATOM      6  H   UNL     1       2.103   7.017  22.140  0.00  0.00    +0.000 HD
ENDROOT
BRANCH   4   7
ATOM      7  C   UNL     1       1.048   8.614  21.216  0.00  0.00    +0.000 A 
ATOM      8  C   UNL     1       0.911   9.393  22.362  0.00  0.00    +0.000 A 
ATOM      9  C   UNL     1       0.026  10.466  22.370  0.00  0.00    +0.000 A 
ATOM     10  C   UNL     1      -0.767  10.775  21.244  0.00  0.00    +0.000 A 
ATOM     11  C   UNL     1      -0.624   9.989  20.064  0.00  0.00    +0.000 A 
ATOM     12  C   UNL     1       0.302   8.920  20.075  0.00  0.00    +0.000 A 
ATOM     13  C   UNL     1      -1.446  10.168  18.796  0.00  0.00    +0.000 C 
ATOM     14  C   UNL     1      -1.573  11.596  18.234  0.00  0.00    +0.000 C 
ATOM     15  N   UNL     1      -2.397  12.506  19.053  0.00  0.00    +0.000 NA
ATOM     16  C   UNL     1      -1.722  12.957  20.284  0.00  0.00    +0.000 C 
ATOM     17  C   UNL     1      -1.744  11.917  21.405  0.00  0.00    +0.000 C 
BRANCH  15  18
ATOM     18  C   UNL     1      -3.812  12.068  19.240  0.00  0.00    +0.000 C 
ATOM     19  C   UNL     1      -4.788  13.148  19.727  0.00  0.00    +0.000 C 
ATOM     20  C   UNL     1      -5.811  12.598  18.744  0.00  0.00    +0.000 C 
ATOM     21  C   UNL     1      -4.650  11.982  17.961  0.00  0.00    +0.000 C 
ENDBRANCH  15  18
ENDBRANCH   4   7
BRANCH   1  28
ATOM     22  C   UNL     1       3.009   4.333  18.051  0.00  0.00    +0.000 A 
ATOM     23  C   UNL     1       3.649   3.722  16.959  0.00  0.00    +0.000 A 
ATOM     24  C   UNL     1       4.994   3.943  16.689  0.00  0.00    +0.000 A 
ATOM     25  C   UNL     1       5.739   4.766  17.516  0.00  0.00    +0.000 A 
ATOM     26 CL   UNL     1       7.450   5.013  17.199  0.00  0.00    +0.000 Cl
ATOM     27  C   UNL     1       5.140   5.386  18.610  0.00  0.00    +0.000 A 
ATOM     28  C   UNL     1       3.763   5.207  18.910  0.00  0.00    +0.000 A 
BRANCH  22  30
ATOM     29  C   UNL     1       1.116   2.830  18.589  0.00  0.00    +0.000 C 
ATOM     30  O   UNL     1       1.693   4.017  18.197  0.00  0.00    +0.000 OA
ENDBRANCH  22  30
ENDBRANCH   1  28
TORSDOF 4
ENDMDL
