MODEL 1
REMARK VINA RESULT:      -8.5      0.000      0.000
REMARK  Name = 
REMARK  8 active torsions:
REMARK  status: ('A' for Active; 'I' for Inactive)
REMARK    1  A    between atoms: C_1  and  C_2
REMARK    2  A    between atoms: N_4  and  C_5
REMARK    3  A    between atoms: C_6  and  C_7
REMARK    4  A    between atoms: C_8  and  C_9
REMARK    5  A    between atoms: C_9  and  C_10
REMARK    6  A    between atoms: C_10  and  N_11
REMARK    7  A    between atoms: N_13  and  C_14
REMARK    8  A    between atoms: C_22  and  C_24
REMARK                            x       y       z     vdW  Elec       q    Type
REMARK                         _______ _______ _______ _____ _____    ______ ____
ROOT
ATOM      1  N   UNL     1       2.757   4.762  18.049  0.00  0.00    +0.000 N 
ATOM      2  C   UNL     1       3.110   6.098  17.969  0.00  0.00    +0.000 C 
ATOM      3  N   UNL     1       4.151   6.629  17.435  0.00  0.00    +0.000 NA
ATOM      4  N   UNL     1       2.221   6.995  18.547  0.00  0.00    +0.000 N 
ATOM      5  C   UNL     1       2.092   8.339  18.219  0.00  0.00    +0.000 C 
ATOM      6  O   UNL     1       2.600   8.895  17.245  0.00  0.00    +0.000 OA
ATOM      7  H   UNL     1       3.325   4.203  17.418  0.00  0.00    +0.000 HD
ATOM      8  H   UNL     1       1.561   6.610  19.196  0.00  0.00    +0.000 HD
ENDROOT
BRANCH   3   9
ATOM      9  C   UNL     1       5.215   6.058  16.741  0.00  0.00    +0.000 A 
ATOM     10  C   UNL     1       5.276   5.882  15.358  0.00  0.00    +0.000 A 
ATOM     11  C   UNL     1       6.348   5.200  14.768  0.00  0.00    +0.000 A 
ATOM     12  C   UNL     1       7.358   4.655  15.565  0.00  0.00    +0.000 A 
ATOM     13  C   UNL     1       7.279   4.792  16.942  0.00  0.00    +0.000 A 
ATOM     14  F   UNL     1       8.218   4.230  17.714  0.00  0.00    +0.000 F 
ATOM     15  C   UNL     1       6.224   5.486  17.526  0.00  0.00    +0.000 A 
ENDBRANCH   3   9
BRANCH   5  16
ATOM     16  C   UNL     1       1.136   9.136  19.037  0.00  0.00    +0.000 A 
ATOM     17  C   UNL     1       1.071   9.051  20.435  0.00  0.00    +0.000 A 
ATOM     18  C   UNL     1       0.184   9.877  21.138  0.00  0.00    +0.000 A 
ATOM     19  C   UNL     1      -0.624  10.776  20.448  0.00  0.00    +0.000 A 
ATOM     20  F   UNL     1      -1.453  11.577  21.132  0.00  0.00    +0.000 F 
ATOM     21  C   UNL     1      -0.575  10.867  19.065  0.00  0.00    +0.000 A 
ATOM     22  C   UNL     1       0.306  10.047  18.360  0.00  0.00    +0.000 A 
ENDBRANCH   5  16
BRANCH   1  23
ATOM     23  C   UNL     1       1.346   4.343  18.053  0.00  0.00    +0.000 C 
BRANCH  23  24
ATOM     24  C   UNL     1       1.110   2.939  18.618  0.00  0.00    +0.000 C 
BRANCH  24  32
ATOM     25  C   UNL     1       1.086   3.095  21.918  0.00  0.00    +0.000 C 
ATOM     26  C   UNL     1       2.175   2.647  21.016  0.00  0.00    +0.000 A 
ATOM     27  N   UNL     1       3.313   2.211  21.560  0.00  0.00    +0.000 NA
ATOM     28  N   UNL     1       4.058   1.817  20.519  0.00  0.00    +0.000 N 
ATOM     29  C   UNL     1       5.382   1.299  20.779  0.00  0.00    +0.000 C 
ATOM     30  C   UNL     1       3.402   1.918  19.316  0.00  0.00    +0.000 A 
ATOM     31  C   UNL     1       3.957   1.400  18.039  0.00  0.00    +0.000 C 
ATOM     32  C   UNL     1       2.190   2.541  19.592  0.00  0.00    +0.000 A 
ENDBRANCH  24  32
ENDBRANCH  23  24
ENDBRANCH   1  23
TORSDOF 5
ENDMDL
MODEL 2
REMARK VINA RESULT:      -8.3      1.608      2.424
REMARK  Name = 
REMARK  8 active torsions:
REMARK  status: ('A' for Active; 'I' for Inactive)
REMARK    1  A    between atoms: C_1  and  C_2
REMARK    2  A    between atoms: N_4  and  C_5
REMARK    3  A    between atoms: C_6  and  C_7
REMARK    4  A    between atoms: C_8  and  C_9
REMARK    5  A    between atoms: C_9  and  C_10
REMARK    6  A    between atoms: C_10  and  N_11
REMARK    7  A    between atoms: N_13  and  C_14
REMARK    8  A    between atoms: C_22  and  C_24
REMARK                            x       y       z     vdW  Elec       q    Type
REMARK                         _______ _______ _______ _____ _____    ______ ____
ROOT
ATOM      1  N   UNL     1       2.785   5.977  20.190  0.00  0.00    +0.000 N 
ATOM      2  C   UNL     1       2.931   6.977  19.244  0.00  0.00    +0.000 C 
ATOM      3  N   UNL     1       3.719   7.022  18.231  0.00  0.00    +0.000 NA
ATOM      4  N   UNL     1       2.118   8.090  19.410  0.00  0.00    +0.000 N 
ATOM      5  C   UNL     1       1.738   8.976  18.409  0.00  0.00    +0.000 C 
ATOM      6  O   UNL     1       1.897   8.809  17.200  0.00  0.00    +0.000 OA
ATOM      7  H   UNL     1       3.234   5.120  19.878  0.00  0.00    +0.000 HD
ATOM      8  H   UNL     1       1.706   8.208  20.317  0.00  0.00    +0.000 HD
ENDROOT
BRANCH   3   9
ATOM      9  C   UNL     1       4.628   6.090  17.735  0.00  0.00    +0.000 A 
ATOM     10  C   UNL     1       5.440   5.262  18.512  0.00  0.00    +0.000 A 
ATOM     11  C   UNL     1       6.398   4.432  17.916  0.00  0.00    +0.000 A 
ATOM     12  C   UNL     1       6.577   4.449  16.530  0.00  0.00    +0.000 A 
ATOM     13  C   UNL     1       5.801   5.300  15.760  0.00  0.00    +0.000 A 
ATOM     14  F   UNL     1       6.001   5.357  14.437  0.00  0.00    +0.000 F 
ATOM     15  C   UNL     1       4.836   6.110  16.351  0.00  0.00    +0.000 A 
ENDBRANCH   3   9
BRANCH   5  16
ATOM     16  C   UNL     1       0.936  10.157  18.835  0.00  0.00    +0.000 A 
ATOM     17  C   UNL     1      -0.332  10.049  19.423  0.00  0.00    +0.000 A 
ATOM     18  C   UNL     1      -0.998  11.205  19.850  0.00  0.00    +0.000 A 
ATOM     19  C   UNL     1      -0.400  12.452  19.690  0.00  0.00    +0.000 A 
ATOM     20  F   UNL     1      -1.035  13.549  20.122  0.00  0.00    +0.000 F 
ATOM     21  C   UNL     1       0.852  12.575  19.104  0.00  0.00    +0.000 A 
ATOM     22  C   UNL     1       1.520  11.427  18.677  0.00  0.00    +0.000 A 
ENDBRANCH   5  16
BRANCH   1  23
ATOM     23  C   UNL     1       1.490   5.724  20.842  0.00  0.00    +0.000 C 
BRANCH  23  24
ATOM     24  C   UNL     1       0.831   4.402  20.437  0.00  0.00    +0.000 C 
BRANCH  24  32
ATOM     25  C   UNL     1       1.212   4.465  17.156  0.00  0.00    +0.000 C 
ATOM     26  C   UNL     1       1.868   3.583  18.152  0.00  0.00    +0.000 A 
ATOM     27  N   UNL     1       2.765   2.694  17.721  0.00  0.00    +0.000 NA
ATOM     28  N   UNL     1       3.226   2.110  18.835  0.00  0.00    +0.000 N 
ATOM     29  C   UNL     1       4.220   1.069  18.704  0.00  0.00    +0.000 C 
ATOM     30  C   UNL     1       2.704   2.650  19.984  0.00  0.00    +0.000 A 
ATOM     31  C   UNL     1       3.173   2.282  21.346  0.00  0.00    +0.000 C 
ATOM     32  C   UNL     1       1.741   3.566  19.574  0.00  0.00    +0.000 A 
ENDBRANCH  24  32
ENDBRANCH  23  24
ENDBRANCH   1  23
TORSDOF 5
ENDMDL
MODEL 3
REMARK VINA RESULT:      -8.2      1.673      2.360
REMARK  Name = 
REMARK  8 active torsions:
REMARK  status: ('A' for Active; 'I' for Inactive)
REMARK    1  A    between atoms: C_1  and  C_2
REMARK    2  A    between atoms: N_4  and  C_5
REMARK    3  A    between atoms: C_6  and  C_7
REMARK    4  A    between atoms: C_8  and  C_9
REMARK    5  A    between atoms: C_9  and  C_10
REMARK    6  A    between atoms: C_10  and  N_11
REMARK    7  A    between atoms: N_13  and  C_14
REMARK    8  A    between atoms: C_22  and  C_24
REMARK                            x       y       z     vdW  Elec       q    Type
REMARK                         _______ _______ _______ _____ _____    ______ ____
ROOT
ATOM      1  N   UNL     1       2.735   6.229  20.198  0.00  0.00    +0.000 N 
ATOM      2  C   UNL     1       2.894   7.190  19.214  0.00  0.00    +0.000 C 
ATOM      3  N   UNL     1       3.703   7.198  18.217  0.00  0.00    +0.000 NA
ATOM      4  N   UNL     1       2.071   8.302  19.316  0.00  0.00    +0.000 N 
ATOM      5  C   UNL     1       1.706   9.142  18.271  0.00  0.00    +0.000 C 
ATOM      6  O   UNL     1       1.892   8.926  17.073  0.00  0.00    +0.000 OA
ATOM      7  H   UNL     1       3.196   5.363  19.932  0.00  0.00    +0.000 HD
ATOM      8  H   UNL     1       1.639   8.456  20.208  0.00  0.00    +0.000 HD
ENDROOT
BRANCH   3   9
ATOM      9  C   UNL     1       4.629   6.252  17.780  0.00  0.00    +0.000 A 
ATOM     10  C   UNL     1       5.476   5.510  18.605  0.00  0.00    +0.000 A 
ATOM     11  C   UNL     1       6.446   4.660  18.059  0.00  0.00    +0.000 A 
ATOM     12  C   UNL     1       6.601   4.571  16.674  0.00  0.00    +0.000 A 
ATOM     13  C   UNL     1       5.791   5.338  15.852  0.00  0.00    +0.000 A 
ATOM     14  F   UNL     1       5.967   5.294  14.525  0.00  0.00    +0.000 F 
ATOM     15  C   UNL     1       4.813   6.168  16.395  0.00  0.00    +0.000 A 
ENDBRANCH   3   9
BRANCH   5  16
ATOM     16  C   UNL     1       0.888  10.335  18.629  0.00  0.00    +0.000 A 
ATOM     17  C   UNL     1       1.448  11.586  18.925  0.00  0.00    +0.000 A 
ATOM     18  C   UNL     1       0.608  12.673  19.197  0.00  0.00    +0.000 A 
ATOM     19  C   UNL     1      -0.774  12.509  19.170  0.00  0.00    +0.000 A 
ATOM     20  F   UNL     1      -1.568  13.561  19.408  0.00  0.00    +0.000 F 
ATOM     21  C   UNL     1      -1.343  11.276  18.884  0.00  0.00    +0.000 A 
ATOM     22  C   UNL     1      -0.511  10.190  18.613  0.00  0.00    +0.000 A 
ENDBRANCH   5  16
BRANCH   1  23
ATOM     23  C   UNL     1       1.429   5.995  20.833  0.00  0.00    +0.000 C 
BRANCH  23  24
ATOM     24  C   UNL     1       0.786   4.652  20.470  0.00  0.00    +0.000 C 
BRANCH  24  32
ATOM     25  C   UNL     1       2.586   2.254  21.858  0.00  0.00    +0.000 C 
ATOM     26  C   UNL     1       2.571   2.708  20.446  0.00  0.00    +0.000 A 
ATOM     27  N   UNL     1       3.351   2.076  19.567  0.00  0.00    +0.000 NA
ATOM     28  N   UNL     1       3.071   2.650  18.390  0.00  0.00    +0.000 N 
ATOM     29  C   UNL     1       3.777   2.191  17.215  0.00  0.00    +0.000 C 
ATOM     30  C   UNL     1       2.072   3.589  18.471  0.00  0.00    +0.000 A 
ATOM     31  C   UNL     1       1.475   4.250  17.281  0.00  0.00    +0.000 C 
ATOM     32  C   UNL     1       1.776   3.717  19.823  0.00  0.00    +0.000 A 
ENDBRANCH  24  32
ENDBRANCH  23  24
ENDBRANCH   1  23
TORSDOF 5
ENDMDL
MODEL 4
REMARK VINA RESULT:      -8.0      1.484      2.152
REMARK  Name = 
REMARK  8 active torsions:
REMARK  status: ('A' for Active; 'I' for Inactive)
REMARK    1  A    between atoms: C_1  and  C_2
REMARK    2  A    between atoms: N_4  and  C_5
REMARK    3  A    between atoms: C_6  and  C_7
REMARK    4  A    between atoms: C_8  and  C_9
REMARK    5  A    between atoms: C_9  and  C_10
REMARK    6  A    between atoms: C_10  and  N_11
REMARK    7  A    between atoms: N_13  and  C_14
REMARK    8  A    between atoms: C_22  and  C_24
REMARK                            x       y       z     vdW  Elec       q    Type
REMARK                         _______ _______ _______ _____ _____    ______ ____
ROOT
ATOM      1  N   UNL     1       2.890   6.005  19.962  0.00  0.00    +0.000 N 
ATOM      2  C   UNL     1       3.040   7.020  19.033  0.00  0.00    +0.000 C 
ATOM      3  N   UNL     1       3.854   7.094  18.042  0.00  0.00    +0.000 NA
ATOM      4  N   UNL     1       2.199   8.113  19.189  0.00  0.00    +0.000 N 
ATOM      5  C   UNL     1       1.826   9.002  18.188  0.00  0.00    +0.000 C 
ATOM      6  O   UNL     1       2.022   8.854  16.982  0.00  0.00    +0.000 OA
ATOM      7  H   UNL     1       3.366   5.162  19.653  0.00  0.00    +0.000 HD
ATOM      8  H   UNL     1       1.759   8.211  20.085  0.00  0.00    +0.000 HD
ENDROOT
BRANCH   3   9
ATOM      9  C   UNL     1       4.797   6.188  17.562  0.00  0.00    +0.000 A 
ATOM     10  C   UNL     1       4.573   5.247  16.555  0.00  0.00    +0.000 A 
ATOM     11  C   UNL     1       5.558   4.309  16.218  0.00  0.00    +0.000 A 
ATOM     12  C   UNL     1       6.769   4.283  16.912  0.00  0.00    +0.000 A 
ATOM     13  C   UNL     1       6.979   5.188  17.940  0.00  0.00    +0.000 A 
ATOM     14  F   UNL     1       8.118   5.137  18.642  0.00  0.00    +0.000 F 
ATOM     15  C   UNL     1       6.008   6.133  18.262  0.00  0.00    +0.000 A 
ENDBRANCH   3   9
BRANCH   5  16
ATOM     16  C   UNL     1       0.988  10.161  18.605  0.00  0.00    +0.000 A 
ATOM     17  C   UNL     1      -0.377  10.047  18.908  0.00  0.00    +0.000 A 
ATOM     18  C   UNL     1      -1.084  11.173  19.349  0.00  0.00    +0.000 A 
ATOM     19  C   UNL     1      -0.431  12.395  19.486  0.00  0.00    +0.000 A 
ATOM     20  F   UNL     1      -1.112  13.460  19.930  0.00  0.00    +0.000 F 
ATOM     21  C   UNL     1       0.917  12.524  19.185  0.00  0.00    +0.000 A 
ATOM     22  C   UNL     1       1.626  11.406  18.745  0.00  0.00    +0.000 A 
ENDBRANCH   5  16
BRANCH   1  23
ATOM     23  C   UNL     1       1.583   5.717  20.575  0.00  0.00    +0.000 C 
BRANCH  23  24
ATOM     24  C   UNL     1       1.252   4.224  20.675  0.00  0.00    +0.000 C 
BRANCH  24  32
ATOM     25  C   UNL     1       0.981   4.368  17.384  0.00  0.00    +0.000 C 
ATOM     26  C   UNL     1       1.828   3.472  18.210  0.00  0.00    +0.000 A 
ATOM     27  N   UNL     1       2.630   2.605  17.590  0.00  0.00    +0.000 NA
ATOM     28  N   UNL     1       3.305   2.002  18.576  0.00  0.00    +0.000 N 
ATOM     29  C   UNL     1       4.262   0.976  18.226  0.00  0.00    +0.000 C 
ATOM     30  C   UNL     1       3.014   2.508  19.819  0.00  0.00    +0.000 A 
ATOM     31  C   UNL     1       3.744   2.114  21.052  0.00  0.00    +0.000 C 
ATOM     32  C   UNL     1       1.982   3.420  19.629  0.00  0.00    +0.000 A 
ENDBRANCH  24  32
ENDBRANCH  23  24
ENDBRANCH   1  23
TORSDOF 5
ENDMDL
MODEL 5
REMARK VINA RESULT:      -7.9      1.601      2.288
REMARK  Name = 
REMARK  8 active torsions:
REMARK  status: ('A' for Active; 'I' for Inactive)
REMARK    1  A    between atoms: C_1  and  C_2
REMARK    2  A    between atoms: N_4  and  C_5
REMARK    3  A    between atoms: C_6  and  C_7
REMARK    4  A    between atoms: C_8  and  C_9
REMARK    5  A    between atoms: C_9  and  C_10
REMARK    6  A    between atoms: C_10  and  N_11
REMARK    7  A    between atoms: N_13  and  C_14
REMARK    8  A    between atoms: C_22  and  C_24
REMARK                            x       y       z     vdW  Elec       q    Type
REMARK                         _______ _______ _______ _____ _____    ______ ____
ROOT
ATOM      1  N   UNL     1       3.034   5.292  20.516  0.00  0.00    +0.000 N 
ATOM      2  C   UNL     1       2.870   6.505  19.869  0.00  0.00    +0.000 C 
ATOM      3  N   UNL     1       3.361   6.896  18.749  0.00  0.00    +0.000 NA
ATOM      4  N   UNL     1       2.068   7.433  20.519  0.00  0.00    +0.000 N 
ATOM      5  C   UNL     1       1.388   8.484  19.915  0.00  0.00    +0.000 C 
ATOM      6  O   UNL     1       1.234   8.642  18.704  0.00  0.00    +0.000 OA
ATOM      7  H   UNL     1       3.434   4.601  19.886  0.00  0.00    +0.000 HD
ATOM      8  H   UNL     1       1.902   7.271  21.495  0.00  0.00    +0.000 HD
ENDROOT
BRANCH   3   9
ATOM      9  C   UNL     1       4.160   6.235  17.818  0.00  0.00    +0.000 A 
ATOM     10  C   UNL     1       3.845   5.024  17.199  0.00  0.00    +0.000 A 
ATOM     11  C   UNL     1       4.766   4.389  16.355  0.00  0.00    +0.000 A 
ATOM     12  C   UNL     1       6.030   4.945  16.151  0.00  0.00    +0.000 A 
ATOM     13  C   UNL     1       6.362   6.125  16.798  0.00  0.00    +0.000 A 
ATOM     14  F   UNL     1       7.589   6.639  16.645  0.00  0.00    +0.000 F 
ATOM     15  C   UNL     1       5.440   6.767  17.620  0.00  0.00    +0.000 A 
ENDBRANCH   3   9
BRANCH   5  16
ATOM     16  C   UNL     1       0.661   9.415  20.822  0.00  0.00    +0.000 A 
ATOM     17  C   UNL     1       0.259   9.062  22.119  0.00  0.00    +0.000 A 
ATOM     18  C   UNL     1      -0.370  10.014  22.932  0.00  0.00    +0.000 A 
ATOM     19  C   UNL     1      -0.591  11.301  22.452  0.00  0.00    +0.000 A 
ATOM     20  F   UNL     1      -1.173  12.210  23.246  0.00  0.00    +0.000 F 
ATOM     21  C   UNL     1      -0.204  11.664  21.170  0.00  0.00    +0.000 A 
ATOM     22  C   UNL     1       0.422  10.721  20.356  0.00  0.00    +0.000 A 
ENDBRANCH   5  16
BRANCH   1  23
ATOM     23  C   UNL     1       1.973   4.728  21.364  0.00  0.00    +0.000 C 
BRANCH  23  24
ATOM     24  C   UNL     1       1.947   3.197  21.403  0.00  0.00    +0.000 C 
BRANCH  24  32
ATOM     25  C   UNL     1       0.231   3.035  18.584  0.00  0.00    +0.000 C 
ATOM     26  C   UNL     1       1.585   2.507  18.881  0.00  0.00    +0.000 A 
ATOM     27  N   UNL     1       2.259   1.900  17.903  0.00  0.00    +0.000 NA
ATOM     28  N   UNL     1       3.449   1.605  18.442  0.00  0.00    +0.000 N 
ATOM     29  C   UNL     1       4.421   0.913  17.626  0.00  0.00    +0.000 C 
ATOM     30  C   UNL     1       3.591   2.072  19.725  0.00  0.00    +0.000 A 
ATOM     31  C   UNL     1       4.870   2.009  20.480  0.00  0.00    +0.000 C 
ATOM     32  C   UNL     1       2.354   2.598  20.081  0.00  0.00    +0.000 A 
ENDBRANCH  24  32
ENDBRANCH  23  24
ENDBRANCH   1  23
TORSDOF 5
ENDMDL
MODEL 6
REMARK VINA RESULT:      -7.8      1.539      2.020
REMARK  Name = 
REMARK  8 active torsions:
REMARK  status: ('A' for Active; 'I' for Inactive)
REMARK    1  A    between atoms: C_1  and  C_2
REMARK    2  A    between atoms: N_4  and  C_5
REMARK    3  A    between atoms: C_6  and  C_7
REMARK    4  A    between atoms: C_8  and  C_9
REMARK    5  A    between atoms: C_9  and  C_10
REMARK    6  A    between atoms: C_10  and  N_11
REMARK    7  A    between atoms: N_13  and  C_14
REMARK    8  A    between atoms: C_22  and  C_24
REMARK                            x       y       z     vdW  Elec       q    Type
REMARK                         _______ _______ _______ _____ _____    ______ ____
ROOT
ATOM      1  N   UNL     1       2.705   6.454  20.073  0.00  0.00    +0.000 N 
ATOM      2  C   UNL     1       2.681   7.438  19.100  0.00  0.00    +0.000 C 
ATOM      3  N   UNL     1       3.385   7.533  18.030  0.00  0.00    +0.000 NA
ATOM      4  N   UNL     1       1.775   8.469  19.305  0.00  0.00    +0.000 N 
ATOM      5  C   UNL     1       1.236   9.286  18.318  0.00  0.00    +0.000 C 
ATOM      6  O   UNL     1       1.323   9.104  17.104  0.00  0.00    +0.000 OA
ATOM      7  H   UNL     1       3.214   5.637  19.745  0.00  0.00    +0.000 HD
ATOM      8  H   UNL     1       1.420   8.570  20.238  0.00  0.00    +0.000 HD
ENDROOT
BRANCH   3   9
ATOM      9  C   UNL     1       4.345   6.683  17.487  0.00  0.00    +0.000 A 
ATOM     10  C   UNL     1       4.708   6.631  16.140  0.00  0.00    +0.000 A 
ATOM     11  C   UNL     1       5.611   5.665  15.677  0.00  0.00    +0.000 A 
ATOM     12  C   UNL     1       6.135   4.715  16.557  0.00  0.00    +0.000 A 
ATOM     13  C   UNL     1       5.745   4.738  17.887  0.00  0.00    +0.000 A 
ATOM     14  F   UNL     1       6.206   3.801  18.725  0.00  0.00    +0.000 F 
ATOM     15  C   UNL     1       4.863   5.710  18.350  0.00  0.00    +0.000 A 
ENDBRANCH   3   9
BRANCH   5  16
ATOM     16  C   UNL     1       0.352  10.393  18.780  0.00  0.00    +0.000 A 
ATOM     17  C   UNL     1       0.759  11.357  19.714  0.00  0.00    +0.000 A 
ATOM     18  C   UNL     1      -0.111  12.401  20.054  0.00  0.00    +0.000 A 
ATOM     19  C   UNL     1      -1.369  12.479  19.463  0.00  0.00    +0.000 A 
ATOM     20  F   UNL     1      -2.184  13.495  19.778  0.00  0.00    +0.000 F 
ATOM     21  C   UNL     1      -1.787  11.530  18.541  0.00  0.00    +0.000 A 
ATOM     22  C   UNL     1      -0.926  10.488  18.199  0.00  0.00    +0.000 A 
ENDBRANCH   5  16
BRANCH   1  23
ATOM     23  C   UNL     1       1.493   6.092  20.825  0.00  0.00    +0.000 C 
BRANCH  23  24
ATOM     24  C   UNL     1       0.708   4.921  20.225  0.00  0.00    +0.000 C 
BRANCH  24  32
ATOM     25  C   UNL     1       1.833   2.485  22.153  0.00  0.00    +0.000 C 
ATOM     26  C   UNL     1       2.117   2.744  20.720  0.00  0.00    +0.000 A 
ATOM     27  N   UNL     1       2.906   1.891  20.063  0.00  0.00    +0.000 NA
ATOM     28  N   UNL     1       2.915   2.340  18.801  0.00  0.00    +0.000 N 
ATOM     29  C   UNL     1       3.708   1.628  17.825  0.00  0.00    +0.000 C 
ATOM     30  C   UNL     1       2.091   3.420  18.606  0.00  0.00    +0.000 A 
ATOM     31  C   UNL     1       1.809   4.000  17.267  0.00  0.00    +0.000 C 
ATOM     32  C   UNL     1       1.613   3.770  19.864  0.00  0.00    +0.000 A 
ENDBRANCH  24  32
ENDBRANCH  23  24
ENDBRANCH   1  23
TORSDOF 5
ENDMDL
MODEL 7
REMARK VINA RESULT:      -7.8      2.668      4.971
REMARK  Name = 
REMARK  8 active torsions:
REMARK  status: ('A' for Active; 'I' for Inactive)
REMARK    1  A    between atoms: C_1  and  C_2
REMARK    2  A    between atoms: N_4  and  C_5
REMARK    3  A    between atoms: C_6  and  C_7
REMARK    4  A    between atoms: C_8  and  C_9
REMARK    5  A    between atoms: C_9  and  C_10
REMARK    6  A    between atoms: C_10  and  N_11
REMARK    7  A    between atoms: N_13  and  C_14
REMARK    8  A    between atoms: C_22  and  C_24
REMARK                            x       y       z     vdW  Elec       q    Type
REMARK                         _______ _______ _______ _____ _____    ______ ____
ROOT
ATOM      1  N   UNL     1       3.214   6.545  17.519  0.00  0.00    +0.000 N 
ATOM      2  C   UNL     1       2.406   6.961  18.563  0.00  0.00    +0.000 C 
ATOM      3  N   UNL     1       2.081   6.329  19.634  0.00  0.00    +0.000 NA
ATOM      4  N   UNL     1       1.868   8.234  18.442  0.00  0.00    +0.000 N 
ATOM      5  C   UNL     1       1.437   9.039  19.490  0.00  0.00    +0.000 C 
ATOM      6  O   UNL     1       1.641   8.834  20.687  0.00  0.00    +0.000 OA
ATOM      7  H   UNL     1       3.743   5.717  17.782  0.00  0.00    +0.000 HD
ATOM      8  H   UNL     1       1.873   8.633  17.522  0.00  0.00    +0.000 HD
ENDROOT
BRANCH   3   9
ATOM      9  C   UNL     1       2.456   5.074  20.106  0.00  0.00    +0.000 A 
ATOM     10  C   UNL     1       3.589   4.364  19.703  0.00  0.00    +0.000 A 
ATOM     11  C   UNL     1       3.820   3.061  20.162  0.00  0.00    +0.000 A 
ATOM     12  C   UNL     1       2.897   2.440  21.006  0.00  0.00    +0.000 A 
ATOM     13  C   UNL     1       1.751   3.126  21.375  0.00  0.00    +0.000 A 
ATOM     14  F   UNL     1       0.838   2.519  22.145  0.00  0.00    +0.000 F 
ATOM     15  C   UNL     1       1.531   4.428  20.935  0.00  0.00    +0.000 A 
ENDBRANCH   3   9
BRANCH   5  16
ATOM     16  C   UNL     1       0.804  10.334  19.119  0.00  0.00    +0.000 A 
ATOM     17  C   UNL     1      -0.584  10.535  19.119  0.00  0.00    +0.000 A 
ATOM     18  C   UNL     1      -1.101  11.801  18.813  0.00  0.00    +0.000 A 
ATOM     19  C   UNL     1      -0.237  12.851  18.513  0.00  0.00    +0.000 A 
ATOM     20  F   UNL     1      -0.741  14.063  18.244  0.00  0.00    +0.000 F 
ATOM     21  C   UNL     1       1.138  12.666  18.503  0.00  0.00    +0.000 A 
ATOM     22  C   UNL     1       1.658  11.408  18.807  0.00  0.00    +0.000 A 
ENDBRANCH   5  16
BRANCH   1  23
ATOM     23  C   UNL     1       4.022   7.504  16.749  0.00  0.00    +0.000 C 
BRANCH  23  24
ATOM     24  C   UNL     1       5.226   6.880  16.036  0.00  0.00    +0.000 C 
BRANCH  24  32
ATOM     25  C   UNL     1       5.282   3.612  16.526  0.00  0.00    +0.000 C 
ATOM     26  C   UNL     1       6.069   4.669  17.208  0.00  0.00    +0.000 A 
ATOM     27  N   UNL     1       6.956   4.303  18.135  0.00  0.00    +0.000 NA
ATOM     28  N   UNL     1       7.548   5.445  18.508  0.00  0.00    +0.000 N 
ATOM     29  C   UNL     1       8.567   5.388  19.532  0.00  0.00    +0.000 C 
ATOM     30  C   UNL     1       7.118   6.536  17.793  0.00  0.00    +0.000 A 
ATOM     31  C   UNL     1       7.733   7.883  17.911  0.00  0.00    +0.000 C 
ATOM     32  C   UNL     1       6.082   6.080  16.985  0.00  0.00    +0.000 A 
ENDBRANCH  24  32
ENDBRANCH  23  24
ENDBRANCH   1  23
TORSDOF 5
ENDMDL
MODEL 8
REMARK VINA RESULT:      -7.7      2.613      4.983
REMARK  Name = 
REMARK  8 active torsions:
REMARK  status: ('A' for Active; 'I' for Inactive)
REMARK    1  A    between atoms: C_1  and  C_2
REMARK    2  A    between atoms: N_4  and  C_5
REMARK    3  A    between atoms: C_6  and  C_7
REMARK    4  A    between atoms: C_8  and  C_9
REMARK    5  A    between atoms: C_9  and  C_10
REMARK    6  A    between atoms: C_10  and  N_11
REMARK    7  A    between atoms: N_13  and  C_14
REMARK    8  A    between atoms: C_22  and  C_24
REMARK                            x       y       z     vdW  Elec       q    Type
REMARK                         _______ _______ _______ _____ _____    ______ ____
ROOT
ATOM      1  N   UNL     1       2.654   6.615  18.037  0.00  0.00    +0.000 N 
ATOM      2  C   UNL     1       1.867   7.007  19.106  0.00  0.00    +0.000 C 
ATOM      3  N   UNL     1       1.405   6.297  20.072  0.00  0.00    +0.000 NA
ATOM      4  N   UNL     1       1.523   8.351  19.143  0.00  0.00    +0.000 N 
ATOM      5  C   UNL     1       1.164   9.068  20.279  0.00  0.00    +0.000 C 
ATOM      6  O   UNL     1       1.281   8.682  21.442  0.00  0.00    +0.000 OA
ATOM      7  H   UNL     1       3.046   5.691  18.200  0.00  0.00    +0.000 HD
ATOM      8  H   UNL     1       1.628   8.860  18.286  0.00  0.00    +0.000 HD
ENDROOT
BRANCH   3   9
ATOM      9  C   UNL     1       1.574   4.950  20.381  0.00  0.00    +0.000 A 
ATOM     10  C   UNL     1       2.373   4.451  21.411  0.00  0.00    +0.000 A 
ATOM     11  C   UNL     1       2.559   3.072  21.572  0.00  0.00    +0.000 A 
ATOM     12  C   UNL     1       1.971   2.175  20.676  0.00  0.00    +0.000 A 
ATOM     13  C   UNL     1       1.212   2.668  19.627  0.00  0.00    +0.000 A 
ATOM     14  F   UNL     1       0.686   1.817  18.737  0.00  0.00    +0.000 F 
ATOM     15  C   UNL     1       1.011   4.038  19.479  0.00  0.00    +0.000 A 
ENDBRANCH   3   9
BRANCH   5  16
ATOM     16  C   UNL     1       0.741  10.480  20.068  0.00  0.00    +0.000 A 
ATOM     17  C   UNL     1      -0.346  10.840  19.258  0.00  0.00    +0.000 A 
ATOM     18  C   UNL     1      -0.718  12.187  19.158  0.00  0.00    +0.000 A 
ATOM     19  C   UNL     1      -0.010  13.159  19.860  0.00  0.00    +0.000 A 
ATOM     20  F   UNL     1      -0.388  14.441  19.774  0.00  0.00    +0.000 F 
ATOM     21  C   UNL     1       1.071  12.818  20.660  0.00  0.00    +0.000 A 
ATOM     22  C   UNL     1       1.445  11.479  20.765  0.00  0.00    +0.000 A 
ENDBRANCH   5  16
BRANCH   1  23
ATOM     23  C   UNL     1       3.626   7.535  17.426  0.00  0.00    +0.000 C 
BRANCH  23  24
ATOM     24  C   UNL     1       4.753   6.837  16.657  0.00  0.00    +0.000 C 
BRANCH  24  32
ATOM     25  C   UNL     1       4.449   3.738  17.761  0.00  0.00    +0.000 C 
ATOM     26  C   UNL     1       5.499   4.739  18.073  0.00  0.00    +0.000 A 
ATOM     27  N   UNL     1       6.497   4.381  18.884  0.00  0.00    +0.000 NA
ATOM     28  N   UNL     1       7.307   5.447  18.916  0.00  0.00    +0.000 N 
ATOM     29  C   UNL     1       8.495   5.383  19.736  0.00  0.00    +0.000 C 
ATOM     30  C   UNL     1       6.897   6.462  18.087  0.00  0.00    +0.000 A 
ATOM     31  C   UNL     1       7.706   7.682  17.829  0.00  0.00    +0.000 C 
ATOM     32  C   UNL     1       5.664   6.068  17.579  0.00  0.00    +0.000 A 
ENDBRANCH  24  32
ENDBRANCH  23  24
ENDBRANCH   1  23
TORSDOF 5
ENDMDL
MODEL 9
REMARK VINA RESULT:      -7.7      2.299      4.792
REMARK  Name = 
REMARK  8 active torsions:
REMARK  status: ('A' for Active; 'I' for Inactive)
REMARK    1  A    between atoms: C_1  and  C_2
REMARK    2  A    between atoms: N_4  and  C_5
REMARK    3  A    between atoms: C_6  and  C_7
REMARK    4  A    between atoms: C_8  and  C_9
REMARK    5  A    between atoms: C_9  and  C_10
REMARK    6  A    between atoms: C_10  and  N_11
REMARK    7  A    between atoms: N_13  and  C_14
REMARK    8  A    between atoms: C_22  and  C_24
REMARK                            x       y       z     vdW  Elec       q    Type
REMARK                         _______ _______ _______ _____ _____    ______ ____
ROOT
ATOM      1  N   UNL     1       3.050   6.636  17.520  0.00  0.00    +0.000 N 
ATOM      2  C   UNL     1       2.210   7.068  18.532  0.00  0.00    +0.000 C 
ATOM      3  N   UNL     1       1.733   6.405  19.523  0.00  0.00    +0.000 NA
ATOM      4  N   UNL     1       1.823   8.399  18.471  0.00  0.00    +0.000 N 
ATOM      5  C   UNL     1       1.398   9.173  19.544  0.00  0.00    +0.000 C 
ATOM      6  O   UNL     1       1.481   8.865  20.733  0.00  0.00    +0.000 OA
ATOM      7  H   UNL     1       3.464   5.738  17.756  0.00  0.00    +0.000 HD
ATOM      8  H   UNL     1       1.946   8.857  17.587  0.00  0.00    +0.000 HD
ENDROOT
BRANCH   3   9
ATOM      9  C   UNL     1       1.932   5.085  19.923  0.00  0.00    +0.000 A 
ATOM     10  C   UNL     1       0.992   4.291  20.582  0.00  0.00    +0.000 A 
ATOM     11  C   UNL     1       1.327   3.009  21.035  0.00  0.00    +0.000 A 
ATOM     12  C   UNL     1       2.625   2.521  20.864  0.00  0.00    +0.000 A 
ATOM     13  C   UNL     1       3.572   3.323  20.248  0.00  0.00    +0.000 A 
ATOM     14  F   UNL     1       4.830   2.881  20.124  0.00  0.00    +0.000 F 
ATOM     15  C   UNL     1       3.233   4.589  19.780  0.00  0.00    +0.000 A 
ENDBRANCH   3   9
BRANCH   5  16
ATOM     16  C   UNL     1       0.940  10.555  19.229  0.00  0.00    +0.000 A 
ATOM     17  C   UNL     1       1.807  11.566  18.788  0.00  0.00    +0.000 A 
ATOM     18  C   UNL     1       1.289  12.825  18.456  0.00  0.00    +0.000 A 
ATOM     19  C   UNL     1      -0.078  13.065  18.563  0.00  0.00    +0.000 A 
ATOM     20  F   UNL     1      -0.566  14.265  18.222  0.00  0.00    +0.000 F 
ATOM     21  C   UNL     1      -0.946  12.076  19.004  0.00  0.00    +0.000 A 
ATOM     22  C   UNL     1      -0.437  10.821  19.335  0.00  0.00    +0.000 A 
ENDBRANCH   5  16
BRANCH   1  23
ATOM     23  C   UNL     1       4.016   7.548  16.888  0.00  0.00    +0.000 C 
BRANCH  23  24
ATOM     24  C   UNL     1       5.162   6.841  16.156  0.00  0.00    +0.000 C 
BRANCH  24  32
ATOM     25  C   UNL     1       5.117   3.595  16.774  0.00  0.00    +0.000 C 
ATOM     26  C   UNL     1       5.966   4.647  17.384  0.00  0.00    +0.000 A 
ATOM     27  N   UNL     1       6.874   4.283  18.293  0.00  0.00    +0.000 NA
ATOM     28  N   UNL     1       7.519   5.416  18.599  0.00  0.00    +0.000 N 
ATOM     29  C   UNL     1       8.573   5.360  19.588  0.00  0.00    +0.000 C 
ATOM     30  C   UNL     1       7.103   6.493  17.857  0.00  0.00    +0.000 A 
ATOM     31  C   UNL     1       7.770   7.821  17.899  0.00  0.00    +0.000 C 
ATOM     32  C   UNL     1       6.023   6.046  17.105  0.00  0.00    +0.000 A 
ENDBRANCH  24  32
ENDBRANCH  23  24
ENDBRANCH   1  23
TORSDOF 5
ENDMDL
