MODEL 1
REMARK VINA RESULT:      -8.1      0.000      0.000
REMARK  Name = 
REMARK  4 active torsions:
REMARK  status: ('A' for Active; 'I' for Inactive)
REMARK    1  A    between atoms: C_1  and  C_2
REMARK    2  A    between atoms: C_6  and  C_7
REMARK    3  A    between atoms: C_7  and  N_8
REMARK    4  A    between atoms: C_9  and  C_11
REMARK                            x       y       z     vdW  Elec       q    Type
REMARK                         _______ _______ _______ _____ _____    ______ ____
ROOT
ATOM      1  C   UNL     1       5.518   5.266  16.816  0.00  0.00    +0.000 A 
ATOM      2  C   UNL     1       5.286   4.496  17.895  0.00  0.00    +0.000 A 
ATOM      3  N   UNL     1       4.401   4.776  18.907  0.00  0.00    +0.000 NA
ATOM      4  C   UNL     1       3.732   5.867  18.759  0.00  0.00    +0.000 A 
ATOM      5  S   UNL     1       2.573   6.441  19.894  0.00  0.00    +0.000 S 
ATOM      6  C   UNL     1       2.288   7.825  18.838  0.00  0.00    +0.000 A 
ATOM      7  N   UNL     1       1.349   8.763  19.197  0.00  0.00    +0.000 N 
ATOM      8  C   UNL     1       0.945   9.848  18.288  0.00  0.00    +0.000 C 
ATOM      9  C   UNL     1       1.265  11.213  18.917  0.00  0.00    +0.000 C 
ATOM     10  O   UNL     1       0.676  11.345  20.222  0.00  0.00    +0.000 OA
ATOM     11  C   UNL     1       1.149  10.308  21.094  0.00  0.00    +0.000 C 
ATOM     12  C   UNL     1       0.777   8.923  20.546  0.00  0.00    +0.000 C 
ATOM     13  N   UNL     1       3.007   7.842  17.752  0.00  0.00    +0.000 NA
ATOM     14  N   UNL     1       3.832   6.736  17.710  0.00  0.00    +0.000 N 
ATOM     15  C   UNL     1       4.740   6.530  16.684  0.00  0.00    +0.000 A 
ATOM     16  O   UNL     1       4.935   7.290  15.738  0.00  0.00    +0.000 OA
ENDROOT
BRANCH   1  18
ATOM     17  N   UNL     1       6.257   4.913  14.538  0.00  0.00    +0.000 N 
ATOM     18  C   UNL     1       6.565   4.805  15.867  0.00  0.00    +0.000 C 
ATOM     19  O   UNL     1       7.650   4.390  16.268  0.00  0.00    +0.000 OA
ATOM     20  H   UNL     1       5.299   5.124  14.261  0.00  0.00    +0.000 HD
BRANCH  17  21
ATOM     21  C   UNL     1       7.196   4.528  13.510  0.00  0.00    +0.000 C 
BRANCH  21  27
ATOM     22  C   UNL     1       3.168   2.965  10.917  0.00  0.00    +0.000 C 
ATOM     23  C   UNL     1       4.622   2.820  11.259  0.00  0.00    +0.000 A 
ATOM     24  C   UNL     1       5.389   1.788  10.711  0.00  0.00    +0.000 A 
ATOM     25  C   UNL     1       6.734   1.653  11.053  0.00  0.00    +0.000 A 
ATOM     26  C   UNL     1       7.323   2.547  11.947  0.00  0.00    +0.000 A 
ATOM     27  C   UNL     1       6.573   3.592  12.506  0.00  0.00    +0.000 A 
ATOM     28  C   UNL     1       5.221   3.718  12.155  0.00  0.00    +0.000 A 
ENDBRANCH  21  27
ENDBRANCH  17  21
ENDBRANCH   1  18
TORSDOF 3
ENDMDL
MODEL 2
REMARK VINA RESULT:      -8.1      2.860      5.217
REMARK  Name = 
REMARK  4 active torsions:
REMARK  status: ('A' for Active; 'I' for Inactive)
REMARK    1  A    between atoms: C_1  and  C_2
REMARK    2  A    between atoms: C_6  and  C_7
REMARK    3  A    between atoms: C_7  and  N_8
REMARK    4  A    between atoms: C_9  and  C_11
REMARK                            x       y       z     vdW  Elec       q    Type
REMARK                         _______ _______ _______ _____ _____    ______ ____
ROOT
ATOM      1  C   UNL     1       2.224   7.574  19.115  0.00  0.00    +0.000 A 
ATOM      2  C   UNL     1       2.279   8.318  17.995  0.00  0.00    +0.000 A 
ATOM      3  N   UNL     1       1.717   9.560  17.826  0.00  0.00    +0.000 NA
ATOM      4  C   UNL     1       1.116  10.031  18.865  0.00  0.00    +0.000 A 
ATOM      5  S   UNL     1       0.326  11.558  18.901  0.00  0.00    +0.000 S 
ATOM      6  C   UNL     1      -0.091  11.254  20.588  0.00  0.00    +0.000 A 
ATOM      7  N   UNL     1      -0.788  12.208  21.292  0.00  0.00    +0.000 N 
ATOM      8  C   UNL     1      -1.022  12.091  22.740  0.00  0.00    +0.000 C 
ATOM      9  C   UNL     1      -2.530  12.040  23.030  0.00  0.00    +0.000 C 
ATOM     10  O   UNL     1      -3.218  13.164  22.455  0.00  0.00    +0.000 OA
ATOM     11  C   UNL     1      -3.018  13.201  21.035  0.00  0.00    +0.000 C 
ATOM     12  C   UNL     1      -1.526  13.336  20.696  0.00  0.00    +0.000 C 
ATOM     13  N   UNL     1       0.322  10.111  21.056  0.00  0.00    +0.000 NA
ATOM     14  N   UNL     1       1.001   9.413  20.077  0.00  0.00    +0.000 N 
ATOM     15  C   UNL     1       1.507   8.141  20.292  0.00  0.00    +0.000 A 
ATOM     16  O   UNL     1       1.394   7.493  21.330  0.00  0.00    +0.000 OA
ENDROOT
BRANCH   1  18
ATOM     17  N   UNL     1       2.798   5.588  17.857  0.00  0.00    +0.000 N 
ATOM     18  C   UNL     1       2.850   6.227  19.065  0.00  0.00    +0.000 C 
ATOM     19  O   UNL     1       3.411   5.749  20.049  0.00  0.00    +0.000 OA
ATOM     20  H   UNL     1       2.202   5.959  17.119  0.00  0.00    +0.000 HD
BRANCH  17  21
ATOM     21  C   UNL     1       3.395   4.286  17.663  0.00  0.00    +0.000 C 
BRANCH  21  27
ATOM     22  C   UNL     1       6.284   3.943  13.549  0.00  0.00    +0.000 C 
ATOM     23  C   UNL     1       6.157   4.203  15.021  0.00  0.00    +0.000 A 
ATOM     24  C   UNL     1       7.284   4.469  15.805  0.00  0.00    +0.000 A 
ATOM     25  C   UNL     1       7.152   4.689  17.175  0.00  0.00    +0.000 A 
ATOM     26  C   UNL     1       5.893   4.644  17.774  0.00  0.00    +0.000 A 
ATOM     27  C   UNL     1       4.749   4.384  17.007  0.00  0.00    +0.000 A 
ATOM     28  C   UNL     1       4.893   4.164  15.630  0.00  0.00    +0.000 A 
ENDBRANCH  21  27
ENDBRANCH  17  21
ENDBRANCH   1  18
TORSDOF 3
ENDMDL
MODEL 3
REMARK VINA RESULT:      -8.1      3.310      5.887
REMARK  Name = 
REMARK  4 active torsions:
REMARK  status: ('A' for Active; 'I' for Inactive)
REMARK    1  A    between atoms: C_1  and  C_2
REMARK    2  A    between atoms: C_6  and  C_7
REMARK    3  A    between atoms: C_7  and  N_8
REMARK    4  A    between atoms: C_9  and  C_11
REMARK                            x       y       z     vdW  Elec       q    Type
REMARK                         _______ _______ _______ _____ _____    ______ ____
ROOT
ATOM      1  C   UNL     1       2.018   8.015  18.962  0.00  0.00    +0.000 A 
ATOM      2  C   UNL     1       2.166   8.880  17.942  0.00  0.00    +0.000 A 
ATOM      3  N   UNL     1       1.680  10.164  17.900  0.00  0.00    +0.000 NA
ATOM      4  C   UNL     1       1.057  10.545  18.961  0.00  0.00    +0.000 A 
ATOM      5  S   UNL     1       0.348  12.101  19.147  0.00  0.00    +0.000 S 
ATOM      6  C   UNL     1      -0.164  11.627  20.767  0.00  0.00    +0.000 A 
ATOM      7  N   UNL     1      -0.841  12.531  21.551  0.00  0.00    +0.000 N 
ATOM      8  C   UNL     1      -1.149  12.260  22.965  0.00  0.00    +0.000 C 
ATOM      9  C   UNL     1      -2.670  12.264  23.185  0.00  0.00    +0.000 C 
ATOM     10  O   UNL     1      -3.269  13.486  22.720  0.00  0.00    +0.000 OA
ATOM     11  C   UNL     1      -3.000  13.676  21.324  0.00  0.00    +0.000 C 
ATOM     12  C   UNL     1      -1.489  13.763  21.065  0.00  0.00    +0.000 C 
ATOM     13  N   UNL     1       0.166  10.415  21.112  0.00  0.00    +0.000 NA
ATOM     14  N   UNL     1       0.852   9.797  20.085  0.00  0.00    +0.000 N 
ATOM     15  C   UNL     1       1.279   8.482  20.167  0.00  0.00    +0.000 A 
ATOM     16  O   UNL     1       1.081   7.725  21.116  0.00  0.00    +0.000 OA
ENDROOT
BRANCH   1  18
ATOM     17  N   UNL     1       3.503   6.252  19.699  0.00  0.00    +0.000 N 
ATOM     18  C   UNL     1       2.574   6.649  18.777  0.00  0.00    +0.000 C 
ATOM     19  O   UNL     1       2.183   5.919  17.869  0.00  0.00    +0.000 OA
ATOM     20  H   UNL     1       3.898   6.939  20.341  0.00  0.00    +0.000 HD
BRANCH  17  21
ATOM     21  C   UNL     1       4.102   4.937  19.654  0.00  0.00    +0.000 C 
BRANCH  21  27
ATOM     22  C   UNL     1       6.106   3.754  15.185  0.00  0.00    +0.000 C 
ATOM     23  C   UNL     1       6.270   4.309  16.570  0.00  0.00    +0.000 A 
ATOM     24  C   UNL     1       7.522   4.726  17.033  0.00  0.00    +0.000 A 
ATOM     25  C   UNL     1       7.663   5.222  18.329  0.00  0.00    +0.000 A 
ATOM     26  C   UNL     1       6.555   5.304  19.172  0.00  0.00    +0.000 A 
ATOM     27  C   UNL     1       5.289   4.895  18.726  0.00  0.00    +0.000 A 
ATOM     28  C   UNL     1       5.160   4.398  17.422  0.00  0.00    +0.000 A 
ENDBRANCH  21  27
ENDBRANCH  17  21
ENDBRANCH   1  18
TORSDOF 3
ENDMDL
MODEL 4
REMARK VINA RESULT:      -8.1      5.301      7.877
REMARK  Name = 
REMARK  4 active torsions:
REMARK  status: ('A' for Active; 'I' for Inactive)
REMARK    1  A    between atoms: C_1  and  C_2
REMARK    2  A    between atoms: C_6  and  C_7
REMARK    3  A    between atoms: C_7  and  N_8
REMARK    4  A    between atoms: C_9  and  C_11
REMARK                            x       y       z     vdW  Elec       q    Type
REMARK                         _______ _______ _______ _____ _____    ______ ____
ROOT
ATOM      1  C   UNL     1       0.535   9.784  18.878  0.00  0.00    +0.000 A 
ATOM      2  C   UNL     1      -0.232  10.175  17.844  0.00  0.00    +0.000 A 
ATOM      3  N   UNL     1      -1.335  10.989  17.923  0.00  0.00    +0.000 NA
ATOM      4  C   UNL     1      -1.611  11.419  19.107  0.00  0.00    +0.000 A 
ATOM      5  S   UNL     1      -2.947  12.441  19.466  0.00  0.00    +0.000 S 
ATOM      6  C   UNL     1      -2.444  12.431  21.157  0.00  0.00    +0.000 A 
ATOM      7  N   UNL     1      -3.161  13.159  22.077  0.00  0.00    +0.000 N 
ATOM      8  C   UNL     1      -2.702  13.328  23.466  0.00  0.00    +0.000 C 
ATOM      9  C   UNL     1      -3.734  12.737  24.439  0.00  0.00    +0.000 C 
ATOM     10  O   UNL     1      -5.043  13.293  24.225  0.00  0.00    +0.000 OA
ATOM     11  C   UNL     1      -5.478  13.048  22.879  0.00  0.00    +0.000 C 
ATOM     12  C   UNL     1      -4.519  13.693  21.869  0.00  0.00    +0.000 C 
ATOM     13  N   UNL     1      -1.383  11.718  21.408  0.00  0.00    +0.000 NA
ATOM     14  N   UNL     1      -0.914  11.137  20.247  0.00  0.00    +0.000 N 
ATOM     15  C   UNL     1       0.179  10.286  20.235  0.00  0.00    +0.000 A 
ATOM     16  O   UNL     1       0.822   9.935  21.223  0.00  0.00    +0.000 OA
ENDROOT
BRANCH   1  18
ATOM     17  N   UNL     1       1.868   7.863  19.502  0.00  0.00    +0.000 N 
ATOM     18  C   UNL     1       1.651   8.850  18.579  0.00  0.00    +0.000 C 
ATOM     19  O   UNL     1       2.304   8.948  17.543  0.00  0.00    +0.000 OA
ATOM     20  H   UNL     1       1.400   7.911  20.406  0.00  0.00    +0.000 HD
BRANCH  17  21
ATOM     21  C   UNL     1       2.902   6.870  19.320  0.00  0.00    +0.000 C 
BRANCH  21  27
ATOM     22  C   UNL     1       1.498   2.610  21.616  0.00  0.00    +0.000 C 
ATOM     23  C   UNL     1       1.665   3.404  20.354  0.00  0.00    +0.000 A 
ATOM     24  C   UNL     1       1.363   2.845  19.108  0.00  0.00    +0.000 A 
ATOM     25  C   UNL     1       1.541   3.588  17.941  0.00  0.00    +0.000 A 
ATOM     26  C   UNL     1       2.025   4.895  18.010  0.00  0.00    +0.000 A 
ATOM     27  C   UNL     1       2.331   5.476  19.249  0.00  0.00    +0.000 A 
ATOM     28  C   UNL     1       2.148   4.720  20.415  0.00  0.00    +0.000 A 
ENDBRANCH  21  27
ENDBRANCH  17  21
ENDBRANCH   1  18
TORSDOF 3
ENDMDL
MODEL 5
REMARK VINA RESULT:      -7.8      5.099      8.253
REMARK  Name = 
REMARK  4 active torsions:
REMARK  status: ('A' for Active; 'I' for Inactive)
REMARK    1  A    between atoms: C_1  and  C_2
REMARK    2  A    between atoms: C_6  and  C_7
REMARK    3  A    between atoms: C_7  and  N_8
REMARK    4  A    between atoms: C_9  and  C_11
REMARK                            x       y       z     vdW  Elec       q    Type
REMARK                         _______ _______ _______ _____ _____    ______ ____
ROOT
ATOM      1  C   UNL     1       0.100  10.348  18.901  0.00  0.00    +0.000 A 
ATOM      2  C   UNL     1       0.276  11.105  19.999  0.00  0.00    +0.000 A 
ATOM      3  N   UNL     1      -0.664  11.928  20.568  0.00  0.00    +0.000 NA
ATOM      4  C   UNL     1      -1.813  11.926  19.985  0.00  0.00    +0.000 A 
ATOM      5  S   UNL     1      -3.149  12.880  20.500  0.00  0.00    +0.000 S 
ATOM      6  C   UNL     1      -4.095  12.190  19.181  0.00  0.00    +0.000 A 
ATOM      7  N   UNL     1      -5.410  12.562  19.029  0.00  0.00    +0.000 N 
ATOM      8  C   UNL     1      -6.299  11.904  18.058  0.00  0.00    +0.000 C 
ATOM      9  C   UNL     1      -6.808  12.926  17.029  0.00  0.00    +0.000 C 
ATOM     10  O   UNL     1      -7.434  14.052  17.668  0.00  0.00    +0.000 OA
ATOM     11  C   UNL     1      -6.513  14.703  18.554  0.00  0.00    +0.000 C 
ATOM     12  C   UNL     1      -6.039  13.741  19.653  0.00  0.00    +0.000 C 
ATOM     13  N   UNL     1      -3.452  11.338  18.434  0.00  0.00    +0.000 NA
ATOM     14  N   UNL     1      -2.155  11.194  18.885  0.00  0.00    +0.000 N 
ATOM     15  C   UNL     1      -1.235  10.382  18.241  0.00  0.00    +0.000 A 
ATOM     16  O   UNL     1      -1.445   9.739  17.214  0.00  0.00    +0.000 OA
ENDROOT
BRANCH   1  18
ATOM     17  N   UNL     1       1.539   8.412  19.088  0.00  0.00    +0.000 N 
ATOM     18  C   UNL     1       1.272   9.573  18.417  0.00  0.00    +0.000 C 
ATOM     19  O   UNL     1       1.927   9.948  17.447  0.00  0.00    +0.000 OA
ATOM     20  H   UNL     1       1.061   8.220  19.967  0.00  0.00    +0.000 HD
BRANCH  17  21
ATOM     21  C   UNL     1       2.632   7.548  18.702  0.00  0.00    +0.000 C 
BRANCH  21  27
ATOM     22  C   UNL     1       2.461   2.658  17.496  0.00  0.00    +0.000 C 
ATOM     23  C   UNL     1       2.276   3.747  18.513  0.00  0.00    +0.000 A 
ATOM     24  C   UNL     1       1.807   3.458  19.798  0.00  0.00    +0.000 A 
ATOM     25  C   UNL     1       1.622   4.481  20.726  0.00  0.00    +0.000 A 
ATOM     26  C   UNL     1       1.902   5.803  20.377  0.00  0.00    +0.000 A 
ATOM     27  C   UNL     1       2.377   6.115  19.095  0.00  0.00    +0.000 A 
ATOM     28  C   UNL     1       2.559   5.077  18.170  0.00  0.00    +0.000 A 
ENDBRANCH  21  27
ENDBRANCH  17  21
ENDBRANCH   1  18
TORSDOF 3
ENDMDL
MODEL 6
REMARK VINA RESULT:      -7.7      4.961      7.842
REMARK  Name = 
REMARK  4 active torsions:
REMARK  status: ('A' for Active; 'I' for Inactive)
REMARK    1  A    between atoms: C_1  and  C_2
REMARK    2  A    between atoms: C_6  and  C_7
REMARK    3  A    between atoms: C_7  and  N_8
REMARK    4  A    between atoms: C_9  and  C_11
REMARK                            x       y       z     vdW  Elec       q    Type
REMARK                         _______ _______ _______ _____ _____    ______ ____
ROOT
ATOM      1  C   UNL     1       0.402   9.804  18.787  0.00  0.00    +0.000 A 
ATOM      2  C   UNL     1      -0.472  10.011  17.785  0.00  0.00    +0.000 A 
ATOM      3  N   UNL     1      -1.623  10.756  17.863  0.00  0.00    +0.000 NA
ATOM      4  C   UNL     1      -1.835  11.313  19.006  0.00  0.00    +0.000 A 
ATOM      5  S   UNL     1      -3.210  12.284  19.356  0.00  0.00    +0.000 S 
ATOM      6  C   UNL     1      -2.576  12.518  20.985  0.00  0.00    +0.000 A 
ATOM      7  N   UNL     1      -3.270  13.309  21.871  0.00  0.00    +0.000 N 
ATOM      8  C   UNL     1      -2.717  13.680  23.183  0.00  0.00    +0.000 C 
ATOM      9  C   UNL     1      -3.621  13.152  24.308  0.00  0.00    +0.000 C 
ATOM     10  O   UNL     1      -4.981  13.591  24.144  0.00  0.00    +0.000 OA
ATOM     11  C   UNL     1      -5.501  13.151  22.881  0.00  0.00    +0.000 C 
ATOM     12  C   UNL     1      -4.676  13.724  21.720  0.00  0.00    +0.000 C 
ATOM     13  N   UNL     1      -1.448  11.913  21.226  0.00  0.00    +0.000 NA
ATOM     14  N   UNL     1      -1.030  11.222  20.106  0.00  0.00    +0.000 N 
ATOM     15  C   UNL     1       0.119  10.448  20.101  0.00  0.00    +0.000 A 
ATOM     16  O   UNL     1       0.862  10.266  21.063  0.00  0.00    +0.000 OA
ENDROOT
BRANCH   1  18
ATOM     17  N   UNL     1       1.805   7.942  19.438  0.00  0.00    +0.000 N 
ATOM     18  C   UNL     1       1.558   8.913  18.506  0.00  0.00    +0.000 C 
ATOM     19  O   UNL     1       2.216   9.030  17.475  0.00  0.00    +0.000 OA
ATOM     20  H   UNL     1       1.327   7.977  20.337  0.00  0.00    +0.000 HD
BRANCH  17  21
ATOM     21  C   UNL     1       2.880   6.990  19.273  0.00  0.00    +0.000 C 
BRANCH  21  27
ATOM     22  C   UNL     1       2.567   2.263  17.556  0.00  0.00    +0.000 C 
ATOM     23  C   UNL     1       2.230   3.283  18.604  0.00  0.00    +0.000 A 
ATOM     24  C   UNL     1       1.422   2.952  19.696  0.00  0.00    +0.000 A 
ATOM     25  C   UNL     1       1.101   3.916  20.651  0.00  0.00    +0.000 A 
ATOM     26  C   UNL     1       1.584   5.218  20.523  0.00  0.00    +0.000 A 
ATOM     27  C   UNL     1       2.399   5.571  19.438  0.00  0.00    +0.000 A 
ATOM     28  C   UNL     1       2.715   4.594  18.483  0.00  0.00    +0.000 A 
ENDBRANCH  21  27
ENDBRANCH  17  21
ENDBRANCH   1  18
TORSDOF 3
ENDMDL
MODEL 7
REMARK VINA RESULT:      -7.7      3.012      9.261
REMARK  Name = 
REMARK  4 active torsions:
REMARK  status: ('A' for Active; 'I' for Inactive)
REMARK    1  A    between atoms: C_1  and  C_2
REMARK    2  A    between atoms: C_6  and  C_7
REMARK    3  A    between atoms: C_7  and  N_8
REMARK    4  A    between atoms: C_9  and  C_11
REMARK                            x       y       z     vdW  Elec       q    Type
REMARK                         _______ _______ _______ _____ _____    ______ ____
ROOT
ATOM      1  C   UNL     1       1.008   8.808  19.990  0.00  0.00    +0.000 A 
ATOM      2  C   UNL     1       1.016   7.814  20.898  0.00  0.00    +0.000 A 
ATOM      3  N   UNL     1       1.783   6.676  20.839  0.00  0.00    +0.000 NA
ATOM      4  C   UNL     1       2.572   6.605  19.823  0.00  0.00    +0.000 A 
ATOM      5  S   UNL     1       3.622   5.276  19.519  0.00  0.00    +0.000 S 
ATOM      6  C   UNL     1       4.184   6.107  18.068  0.00  0.00    +0.000 A 
ATOM      7  N   UNL     1       5.157   5.523  17.292  0.00  0.00    +0.000 N 
ATOM      8  C   UNL     1       5.787   6.233  16.167  0.00  0.00    +0.000 C 
ATOM      9  C   UNL     1       5.526   5.480  14.853  0.00  0.00    +0.000 C 
ATOM     10  O   UNL     1       5.947   4.107  14.937  0.00  0.00    +0.000 OA
ATOM     11  C   UNL     1       5.260   3.437  16.004  0.00  0.00    +0.000 C 
ATOM     12  C   UNL     1       5.558   4.106  17.353  0.00  0.00    +0.000 C 
ATOM     13  N   UNL     1       3.621   7.261  17.846  0.00  0.00    +0.000 NA
ATOM     14  N   UNL     1       2.701   7.540  18.836  0.00  0.00    +0.000 N 
ATOM     15  C   UNL     1       1.921   8.685  18.819  0.00  0.00    +0.000 A 
ATOM     16  O   UNL     1       1.932   9.544  17.939  0.00  0.00    +0.000 OA
ENDROOT
BRANCH   1  18
ATOM     17  N   UNL     1      -0.437  10.528  19.092  0.00  0.00    +0.000 N 
ATOM     18  C   UNL     1       0.055   9.925  20.217  0.00  0.00    +0.000 C 
ATOM     19  O   UNL     1      -0.288  10.250  21.351  0.00  0.00    +0.000 OA
ATOM     20  H   UNL     1      -0.016  10.322  18.187  0.00  0.00    +0.000 HD
BRANCH  17  21
ATOM     21  C   UNL     1      -1.394  11.608  19.169  0.00  0.00    +0.000 C 
BRANCH  21  27
ATOM     22  C   UNL     1      -3.056  10.170  14.634  0.00  0.00    +0.000 C 
ATOM     23  C   UNL     1      -3.338  10.740  15.993  0.00  0.00    +0.000 A 
ATOM     24  C   UNL     1      -4.624  11.162  16.343  0.00  0.00    +0.000 A 
ATOM     25  C   UNL     1      -4.867  11.709  17.603  0.00  0.00    +0.000 A 
ATOM     26  C   UNL     1      -3.826  11.840  18.522  0.00  0.00    +0.000 A 
ATOM     27  C   UNL     1      -2.529  11.420  18.194  0.00  0.00    +0.000 A 
ATOM     28  C   UNL     1      -2.297  10.872  16.924  0.00  0.00    +0.000 A 
ENDBRANCH  21  27
ENDBRANCH  17  21
ENDBRANCH   1  18
TORSDOF 3
ENDMDL
MODEL 8
REMARK VINA RESULT:      -7.6      3.489      5.745
REMARK  Name = 
REMARK  4 active torsions:
REMARK  status: ('A' for Active; 'I' for Inactive)
REMARK    1  A    between atoms: C_1  and  C_2
REMARK    2  A    between atoms: C_6  and  C_7
REMARK    3  A    between atoms: C_7  and  N_8
REMARK    4  A    between atoms: C_9  and  C_11
REMARK                            x       y       z     vdW  Elec       q    Type
REMARK                         _______ _______ _______ _____ _____    ______ ____
ROOT
ATOM      1  C   UNL     1       2.050   7.726  19.150  0.00  0.00    +0.000 A 
ATOM      2  C   UNL     1       2.182   8.484  18.046  0.00  0.00    +0.000 A 
ATOM      3  N   UNL     1       1.692   9.756  17.880  0.00  0.00    +0.000 NA
ATOM      4  C   UNL     1       1.081  10.242  18.906  0.00  0.00    +0.000 A 
ATOM      5  S   UNL     1       0.369  11.807  18.942  0.00  0.00    +0.000 S 
ATOM      6  C   UNL     1      -0.121  11.498  20.608  0.00  0.00    +0.000 A 
ATOM      7  N   UNL     1      -0.791  12.476  21.305  0.00  0.00    +0.000 N 
ATOM      8  C   UNL     1      -1.081  12.349  22.743  0.00  0.00    +0.000 C 
ATOM      9  C   UNL     1      -2.598  12.372  22.981  0.00  0.00    +0.000 C 
ATOM     10  O   UNL     1      -3.207  13.539  22.402  0.00  0.00    +0.000 OA
ATOM     11  C   UNL     1      -2.956  13.588  20.990  0.00  0.00    +0.000 C 
ATOM     12  C   UNL     1      -1.449  13.651  20.705  0.00  0.00    +0.000 C 
ATOM     13  N   UNL     1       0.217  10.328  21.070  0.00  0.00    +0.000 NA
ATOM     14  N   UNL     1       0.892   9.611  20.102  0.00  0.00    +0.000 N 
ATOM     15  C   UNL     1       1.324   8.311  20.312  0.00  0.00    +0.000 A 
ATOM     16  O   UNL     1       1.141   7.654  21.334  0.00  0.00    +0.000 OA
ENDROOT
BRANCH   1  18
ATOM     17  N   UNL     1       2.673   5.777  17.857  0.00  0.00    +0.000 N 
ATOM     18  C   UNL     1       2.608   6.349  19.098  0.00  0.00    +0.000 C 
ATOM     19  O   UNL     1       3.016   5.789  20.112  0.00  0.00    +0.000 OA
ATOM     20  H   UNL     1       2.193   6.221  17.075  0.00  0.00    +0.000 HD
BRANCH  17  21
ATOM     21  C   UNL     1       3.221   4.455  17.661  0.00  0.00    +0.000 C 
BRANCH  21  27
ATOM     22  C   UNL     1       7.985   5.490  18.937  0.00  0.00    +0.000 C 
ATOM     23  C   UNL     1       6.994   5.018  17.913  0.00  0.00    +0.000 A 
ATOM     24  C   UNL     1       7.401   4.688  16.617  0.00  0.00    +0.000 A 
ATOM     25  C   UNL     1       6.466   4.270  15.671  0.00  0.00    +0.000 A 
ATOM     26  C   UNL     1       5.116   4.181  16.012  0.00  0.00    +0.000 A 
ATOM     27  C   UNL     1       4.686   4.503  17.307  0.00  0.00    +0.000 A 
ATOM     28  C   UNL     1       5.635   4.922  18.250  0.00  0.00    +0.000 A 
ENDBRANCH  21  27
ENDBRANCH  17  21
ENDBRANCH   1  18
TORSDOF 3
ENDMDL
MODEL 9
REMARK VINA RESULT:      -7.6      5.357      8.118
REMARK  Name = 
REMARK  4 active torsions:
REMARK  status: ('A' for Active; 'I' for Inactive)
REMARK    1  A    between atoms: C_1  and  C_2
REMARK    2  A    between atoms: C_6  and  C_7
REMARK    3  A    between atoms: C_7  and  N_8
REMARK    4  A    between atoms: C_9  and  C_11
REMARK                            x       y       z     vdW  Elec       q    Type
REMARK                         _______ _______ _______ _____ _____    ______ ____
ROOT
ATOM      1  C   UNL     1       0.392  10.233  19.090  0.00  0.00    +0.000 A 
ATOM      2  C   UNL     1       0.706  10.913  20.208  0.00  0.00    +0.000 A 
ATOM      3  N   UNL     1      -0.124  11.770  20.888  0.00  0.00    +0.000 NA
ATOM      4  C   UNL     1      -1.309  11.885  20.396  0.00  0.00    +0.000 A 
ATOM      5  S   UNL     1      -2.525  12.905  21.059  0.00  0.00    +0.000 S 
ATOM      6  C   UNL     1      -3.615  12.361  19.784  0.00  0.00    +0.000 A 
ATOM      7  N   UNL     1      -4.905  12.837  19.753  0.00  0.00    +0.000 N 
ATOM      8  C   UNL     1      -5.911  12.302  18.821  0.00  0.00    +0.000 C 
ATOM      9  C   UNL     1      -6.413  13.414  17.887  0.00  0.00    +0.000 C 
ATOM     10  O   UNL     1      -6.902  14.546  18.627  0.00  0.00    +0.000 OA
ATOM     11  C   UNL     1      -5.870  15.077  19.471  0.00  0.00    +0.000 C 
ATOM     12  C   UNL     1      -5.393  14.023  20.480  0.00  0.00    +0.000 C 
ATOM     13  N   UNL     1      -3.097  11.507  18.948  0.00  0.00    +0.000 NA
ATOM     14  N   UNL     1      -1.786  11.242  19.290  0.00  0.00    +0.000 N 
ATOM     15  C   UNL     1      -0.982  10.402  18.538  0.00  0.00    +0.000 A 
ATOM     16  O   UNL     1      -1.315   9.834  17.500  0.00  0.00    +0.000 OA
ENDROOT
BRANCH   1  18
ATOM     17  N   UNL     1       1.720   8.210  19.099  0.00  0.00    +0.000 N 
ATOM     18  C   UNL     1       1.461   9.402  18.479  0.00  0.00    +0.000 C 
ATOM     19  O   UNL     1       2.041   9.760  17.457  0.00  0.00    +0.000 OA
ATOM     20  H   UNL     1       1.318   8.025  20.018  0.00  0.00    +0.000 HD
BRANCH  17  21
ATOM     21  C   UNL     1       2.714   7.292  18.592  0.00  0.00    +0.000 C 
BRANCH  21  27
ATOM     22  C   UNL     1       2.092   3.408  21.741  0.00  0.00    +0.000 C 
ATOM     23  C   UNL     1       2.036   3.966  20.349  0.00  0.00    +0.000 A 
ATOM     24  C   UNL     1       1.691   3.156  19.263  0.00  0.00    +0.000 A 
ATOM     25  C   UNL     1       1.662   3.683  17.973  0.00  0.00    +0.000 A 
ATOM     26  C   UNL     1       1.978   5.024  17.757  0.00  0.00    +0.000 A 
ATOM     27  C   UNL     1       2.323   5.856  18.832  0.00  0.00    +0.000 A 
ATOM     28  C   UNL     1       2.349   5.315  20.125  0.00  0.00    +0.000 A 
ENDBRANCH  21  27
ENDBRANCH  17  21
ENDBRANCH   1  18
TORSDOF 3
ENDMDL
