MODEL 1
REMARK VINA RESULT:      -6.9      0.000      0.000
REMARK  Name = 
REMARK  8 active torsions:
REMARK  status: ('A' for Active; 'I' for Inactive)
REMARK    1  A    between atoms: C_1  and  C_2
REMARK    2  A    between atoms: C_2  and  O_3
REMARK    3  A    between atoms: O_3  and  C_4
REMARK    4  A    between atoms: C_4  and  C_6
REMARK    5  A    between atoms: C_7  and  C_8
REMARK    6  A    between atoms: C_12  and  O_13
REMARK    7  A    between atoms: O_13  and  C_14
REMARK    8  A    between atoms: C_15  and  O_16
REMARK                            x       y       z     vdW  Elec       q    Type
REMARK                         _______ _______ _______ _____ _____    ______ ____
ROOT
ATOM      1  C   UNL     1       3.786   3.536  18.341  0.00  0.00    +0.000 A 
ATOM      2  C   UNL     1       4.526   3.110  19.432  0.00  0.00    +0.000 A 
ATOM      3  C   UNL     1       4.327   2.086  20.487  0.00  0.00    +0.000 C 
ATOM      4  O   UNL     1       5.708   3.792  19.506  0.00  0.00    +0.000 OA
ATOM      5  C   UNL     1       5.737   4.661  18.460  0.00  0.00    +0.000 A 
ATOM      6  C   UNL     1       6.780   5.532  18.149  0.00  0.00    +0.000 A 
ATOM      7  C   UNL     1       6.642   6.370  17.022  0.00  0.00    +0.000 A 
ATOM      8  C   UNL     1       5.467   6.300  16.264  0.00  0.00    +0.000 A 
ATOM      9  C   UNL     1       4.439   5.404  16.601  0.00  0.00    +0.000 A 
ATOM     10  C   UNL     1       4.570   4.563  17.720  0.00  0.00    +0.000 A 
ENDROOT
BRANCH   1  11
ATOM     11  C   UNL     1       2.517   2.981  17.907  0.00  0.00    +0.000 C 
ATOM     12  O   UNL     1       2.411   2.017  17.158  0.00  0.00    +0.000 OA
BRANCH  11  13
ATOM     13  O   UNL     1       1.463   3.728  18.339  0.00  0.00    +0.000 OA
BRANCH  13  15
ATOM     14  C   UNL     1       1.163   4.371  20.618  0.00  0.00    +0.000 C 
ATOM     15  C   UNL     1       0.864   3.312  19.571  0.00  0.00    +0.000 C 
ENDBRANCH  13  15
ENDBRANCH  11  13
ENDBRANCH   1  11
BRANCH   7  16
ATOM     16  O   UNL     1       7.748   7.156  16.861  0.00  0.00    +0.000 OA
ATOM     17  C   UNL     1       7.966   8.300  17.663  0.00  0.00    +0.000 C 
ENDBRANCH   7  16
BRANCH   8  18
ATOM     18  O   UNL     1       5.154   7.042  15.160  0.00  0.00    +0.000 OA
ATOM     19  H   UNL     1       5.199   7.984  15.354  0.00  0.00    +0.000 HD
ENDBRANCH   8  18
TORSDOF 5
ENDMDL
MODEL 2
REMARK VINA RESULT:      -6.8      1.740      5.556
REMARK  Name = 
REMARK  8 active torsions:
REMARK  status: ('A' for Active; 'I' for Inactive)
REMARK    1  A    between atoms: C_1  and  C_2
REMARK    2  A    between atoms: C_2  and  O_3
REMARK    3  A    between atoms: O_3  and  C_4
REMARK    4  A    between atoms: C_4  and  C_6
REMARK    5  A    between atoms: C_7  and  C_8
REMARK    6  A    between atoms: C_12  and  O_13
REMARK    7  A    between atoms: O_13  and  C_14
REMARK    8  A    between atoms: C_15  and  O_16
REMARK                            x       y       z     vdW  Elec       q    Type
REMARK                         _______ _______ _______ _____ _____    ______ ____
ROOT
ATOM      1  C   UNL     1       5.362   4.868  17.173  0.00  0.00    +0.000 A 
ATOM      2  C   UNL     1       6.410   4.654  18.053  0.00  0.00    +0.000 A 
ATOM      3  C   UNL     1       7.843   5.039  18.076  0.00  0.00    +0.000 C 
ATOM      4  O   UNL     1       5.984   3.949  19.143  0.00  0.00    +0.000 OA
ATOM      5  C   UNL     1       4.658   3.705  18.972  0.00  0.00    +0.000 A 
ATOM      6  C   UNL     1       3.827   3.033  19.867  0.00  0.00    +0.000 A 
ATOM      7  C   UNL     1       2.467   2.868  19.528  0.00  0.00    +0.000 A 
ATOM      8  C   UNL     1       2.005   3.378  18.309  0.00  0.00    +0.000 A 
ATOM      9  C   UNL     1       2.869   4.057  17.433  0.00  0.00    +0.000 A 
ATOM     10  C   UNL     1       4.224   4.230  17.766  0.00  0.00    +0.000 A 
ENDROOT
BRANCH   1  11
ATOM     11  C   UNL     1       5.426   5.646  15.949  0.00  0.00    +0.000 C 
ATOM     12  O   UNL     1       5.496   6.869  15.917  0.00  0.00    +0.000 OA
BRANCH  11  13
ATOM     13  O   UNL     1       5.286   4.863  14.843  0.00  0.00    +0.000 OA
BRANCH  13  15
ATOM     14  C   UNL     1       6.181   3.642  12.998  0.00  0.00    +0.000 C 
ATOM     15  C   UNL     1       6.481   4.240  14.361  0.00  0.00    +0.000 C 
ENDBRANCH  13  15
ENDBRANCH  11  13
ENDBRANCH   1  11
BRANCH   7  16
ATOM     16  O   UNL     1       1.799   2.192  20.510  0.00  0.00    +0.000 OA
ATOM     17  C   UNL     1       1.381   2.834  21.698  0.00  0.00    +0.000 C 
ENDBRANCH   7  16
BRANCH   8  18
ATOM     18  O   UNL     1       0.736   3.295  17.810  0.00  0.00    +0.000 OA
ATOM     19  H   UNL     1       0.745   3.259  16.848  0.00  0.00    +0.000 HD
ENDBRANCH   8  18
TORSDOF 5
ENDMDL
MODEL 3
REMARK VINA RESULT:      -6.8      1.677      5.547
REMARK  Name = 
REMARK  8 active torsions:
REMARK  status: ('A' for Active; 'I' for Inactive)
REMARK    1  A    between atoms: C_1  and  C_2
REMARK    2  A    between atoms: C_2  and  O_3
REMARK    3  A    between atoms: O_3  and  C_4
REMARK    4  A    between atoms: C_4  and  C_6
REMARK    5  A    between atoms: C_7  and  C_8
REMARK    6  A    between atoms: C_12  and  O_13
REMARK    7  A    between atoms: O_13  and  C_14
REMARK    8  A    between atoms: C_15  and  O_16
REMARK                            x       y       z     vdW  Elec       q    Type
REMARK                         _______ _______ _______ _____ _____    ______ ____
ROOT
ATOM      1  C   UNL     1       6.061   5.187  17.472  0.00  0.00    +0.000 A 
ATOM      2  C   UNL     1       6.753   5.420  18.650  0.00  0.00    +0.000 A 
ATOM      3  C   UNL     1       7.977   6.179  19.003  0.00  0.00    +0.000 C 
ATOM      4  O   UNL     1       6.121   4.821  19.703  0.00  0.00    +0.000 OA
ATOM      5  C   UNL     1       5.017   4.199  19.209  0.00  0.00    +0.000 A 
ATOM      6  C   UNL     1       4.077   3.488  19.954  0.00  0.00    +0.000 A 
ATOM      7  C   UNL     1       2.986   2.903  19.276  0.00  0.00    +0.000 A 
ATOM      8  C   UNL     1       2.891   3.053  17.887  0.00  0.00    +0.000 A 
ATOM      9  C   UNL     1       3.852   3.784  17.169  0.00  0.00    +0.000 A 
ATOM     10  C   UNL     1       4.940   4.373  17.838  0.00  0.00    +0.000 A 
ENDROOT
BRANCH   1  11
ATOM     11  C   UNL     1       6.395   5.734  16.170  0.00  0.00    +0.000 C 
ATOM     12  O   UNL     1       5.855   6.720  15.681  0.00  0.00    +0.000 OA
BRANCH  11  13
ATOM     13  O   UNL     1       7.297   4.956  15.509  0.00  0.00    +0.000 OA
BRANCH  13  15
ATOM     14  C   UNL     1       6.046   3.834  13.814  0.00  0.00    +0.000 C 
ATOM     15  C   UNL     1       7.125   4.865  14.091  0.00  0.00    +0.000 C 
ENDBRANCH  13  15
ENDBRANCH  11  13
ENDBRANCH   1  11
BRANCH   7  16
ATOM     16  O   UNL     1       2.165   2.247  20.149  0.00  0.00    +0.000 OA
ATOM     17  C   UNL     1       1.484   2.932  21.182  0.00  0.00    +0.000 C 
ENDBRANCH   7  16
BRANCH   8  18
ATOM     18  O   UNL     1       1.922   2.544  17.068  0.00  0.00    +0.000 OA
ATOM     19  H   UNL     1       1.072   2.514  17.517  0.00  0.00    +0.000 HD
ENDBRANCH   8  18
TORSDOF 5
ENDMDL
MODEL 4
REMARK VINA RESULT:      -6.8      1.791      5.427
REMARK  Name = 
REMARK  8 active torsions:
REMARK  status: ('A' for Active; 'I' for Inactive)
REMARK    1  A    between atoms: C_1  and  C_2
REMARK    2  A    between atoms: C_2  and  O_3
REMARK    3  A    between atoms: O_3  and  C_4
REMARK    4  A    between atoms: C_4  and  C_6
REMARK    5  A    between atoms: C_7  and  C_8
REMARK    6  A    between atoms: C_12  and  O_13
REMARK    7  A    between atoms: O_13  and  C_14
REMARK    8  A    between atoms: C_15  and  O_16
REMARK                            x       y       z     vdW  Elec       q    Type
REMARK                         _______ _______ _______ _____ _____    ______ ____
ROOT
ATOM      1  C   UNL     1       5.556   5.495  17.428  0.00  0.00    +0.000 A 
ATOM      2  C   UNL     1       6.348   5.633  18.557  0.00  0.00    +0.000 A 
ATOM      3  C   UNL     1       7.733   6.104  18.803  0.00  0.00    +0.000 C 
ATOM      4  O   UNL     1       5.656   5.265  19.676  0.00  0.00    +0.000 OA
ATOM      5  C   UNL     1       4.412   4.890  19.275  0.00  0.00    +0.000 A 
ATOM      6  C   UNL     1       3.377   4.467  20.108  0.00  0.00    +0.000 A 
ATOM      7  C   UNL     1       2.144   4.113  19.520  0.00  0.00    +0.000 A 
ATOM      8  C   UNL     1       2.007   4.194  18.129  0.00  0.00    +0.000 A 
ATOM      9  C   UNL     1       3.069   4.633  17.320  0.00  0.00    +0.000 A 
ATOM     10  C   UNL     1       4.299   4.992  17.898  0.00  0.00    +0.000 A 
ENDROOT
BRANCH   1  11
ATOM     11  C   UNL     1       5.932   5.866  16.076  0.00  0.00    +0.000 C 
ATOM     12  O   UNL     1       5.430   6.796  15.455  0.00  0.00    +0.000 OA
BRANCH  11  13
ATOM     13  O   UNL     1       6.827   4.990  15.541  0.00  0.00    +0.000 OA
BRANCH  13  15
ATOM     14  C   UNL     1       6.100   3.895  13.548  0.00  0.00    +0.000 C 
ATOM     15  C   UNL     1       6.283   3.761  15.050  0.00  0.00    +0.000 C 
ENDBRANCH  13  15
ENDBRANCH  11  13
ENDBRANCH   1  11
BRANCH   7  16
ATOM     16  O   UNL     1       1.244   3.723  20.472  0.00  0.00    +0.000 OA
ATOM     17  C   UNL     1       1.633   2.932  21.577  0.00  0.00    +0.000 C 
ENDBRANCH   7  16
BRANCH   8  18
ATOM     18  O   UNL     1       0.902   3.876  17.390  0.00  0.00    +0.000 OA
ATOM     19  H   UNL     1       1.035   4.089  16.461  0.00  0.00    +0.000 HD
ENDBRANCH   8  18
TORSDOF 5
ENDMDL
MODEL 5
REMARK VINA RESULT:      -6.7      1.840      5.559
REMARK  Name = 
REMARK  8 active torsions:
REMARK  status: ('A' for Active; 'I' for Inactive)
REMARK    1  A    between atoms: C_1  and  C_2
REMARK    2  A    between atoms: C_2  and  O_3
REMARK    3  A    between atoms: O_3  and  C_4
REMARK    4  A    between atoms: C_4  and  C_6
REMARK    5  A    between atoms: C_7  and  C_8
REMARK    6  A    between atoms: C_12  and  O_13
REMARK    7  A    between atoms: O_13  and  C_14
REMARK    8  A    between atoms: C_15  and  O_16
REMARK                            x       y       z     vdW  Elec       q    Type
REMARK                         _______ _______ _______ _____ _____    ______ ____
ROOT
ATOM      1  C   UNL     1       4.646   5.478  16.945  0.00  0.00    +0.000 A 
ATOM      2  C   UNL     1       4.844   4.175  16.518  0.00  0.00    +0.000 A 
ATOM      3  C   UNL     1       5.662   3.542  15.454  0.00  0.00    +0.000 C 
ATOM      4  O   UNL     1       4.126   3.304  17.289  0.00  0.00    +0.000 OA
ATOM      5  C   UNL     1       3.463   4.042  18.218  0.00  0.00    +0.000 A 
ATOM      6  C   UNL     1       2.634   3.541  19.221  0.00  0.00    +0.000 A 
ATOM      7  C   UNL     1       2.022   4.454  20.106  0.00  0.00    +0.000 A 
ATOM      8  C   UNL     1       2.264   5.823  19.942  0.00  0.00    +0.000 A 
ATOM      9  C   UNL     1       3.112   6.293  18.925  0.00  0.00    +0.000 A 
ATOM     10  C   UNL     1       3.730   5.390  18.043  0.00  0.00    +0.000 A 
ENDROOT
BRANCH   1  11
ATOM     11  C   UNL     1       5.308   6.655  16.413  0.00  0.00    +0.000 C 
ATOM     12  O   UNL     1       5.258   6.997  15.237  0.00  0.00    +0.000 OA
BRANCH  11  13
ATOM     13  O   UNL     1       6.083   7.269  17.351  0.00  0.00    +0.000 OA
BRANCH  13  15
ATOM     14  C   UNL     1       7.743   6.209  18.698  0.00  0.00    +0.000 C 
ATOM     15  C   UNL     1       7.462   6.889  17.369  0.00  0.00    +0.000 C 
ENDBRANCH  13  15
ENDBRANCH  11  13
ENDBRANCH   1  11
BRANCH   7  16
ATOM     16  O   UNL     1       1.247   3.800  21.022  0.00  0.00    +0.000 OA
ATOM     17  C   UNL     1       1.687   2.613  21.651  0.00  0.00    +0.000 C 
ENDBRANCH   7  16
BRANCH   8  18
ATOM     18  O   UNL     1       1.746   6.846  20.686  0.00  0.00    +0.000 OA
ATOM     19  H   UNL     1       2.086   6.824  21.586  0.00  0.00    +0.000 HD
ENDBRANCH   8  18
TORSDOF 5
ENDMDL
MODEL 6
REMARK VINA RESULT:      -6.7      1.994      5.815
REMARK  Name = 
REMARK  8 active torsions:
REMARK  status: ('A' for Active; 'I' for Inactive)
REMARK    1  A    between atoms: C_1  and  C_2
REMARK    2  A    between atoms: C_2  and  O_3
REMARK    3  A    between atoms: O_3  and  C_4
REMARK    4  A    between atoms: C_4  and  C_6
REMARK    5  A    between atoms: C_7  and  C_8
REMARK    6  A    between atoms: C_12  and  O_13
REMARK    7  A    between atoms: O_13  and  C_14
REMARK    8  A    between atoms: C_15  and  O_16
REMARK                            x       y       z     vdW  Elec       q    Type
REMARK                         _______ _______ _______ _____ _____    ______ ____
ROOT
ATOM      1  C   UNL     1       4.131   6.350  17.805  0.00  0.00    +0.000 A 
ATOM      2  C   UNL     1       3.033   7.128  18.131  0.00  0.00    +0.000 A 
ATOM      3  C   UNL     1       2.521   8.445  17.678  0.00  0.00    +0.000 C 
ATOM      4  O   UNL     1       2.258   6.498  19.063  0.00  0.00    +0.000 OA
ATOM      5  C   UNL     1       2.853   5.307  19.342  0.00  0.00    +0.000 A 
ATOM      6  C   UNL     1       2.375   4.341  20.225  0.00  0.00    +0.000 A 
ATOM      7  C   UNL     1       3.123   3.156  20.396  0.00  0.00    +0.000 A 
ATOM      8  C   UNL     1       4.315   2.999  19.679  0.00  0.00    +0.000 A 
ATOM      9  C   UNL     1       4.764   3.990  18.790  0.00  0.00    +0.000 A 
ATOM     10  C   UNL     1       4.022   5.170  18.611  0.00  0.00    +0.000 A 
ENDROOT
BRANCH   1  11
ATOM     11  C   UNL     1       5.126   6.665  16.795  0.00  0.00    +0.000 C 
ATOM     12  O   UNL     1       5.093   6.243  15.645  0.00  0.00    +0.000 OA
BRANCH  11  13
ATOM     13  O   UNL     1       6.157   7.392  17.309  0.00  0.00    +0.000 OA
BRANCH  13  15
ATOM     14  C   UNL     1       7.735   6.226  18.668  0.00  0.00    +0.000 C 
ATOM     15  C   UNL     1       7.442   6.763  17.278  0.00  0.00    +0.000 C 
ENDBRANCH  13  15
ENDBRANCH  11  13
ENDBRANCH   1  11
BRANCH   7  16
ATOM     16  O   UNL     1       2.517   2.321  21.291  0.00  0.00    +0.000 OA
ATOM     17  C   UNL     1       1.275   2.646  21.882  0.00  0.00    +0.000 C 
ENDBRANCH   7  16
BRANCH   8  18
ATOM     18  O   UNL     1       5.173   1.936  19.731  0.00  0.00    +0.000 OA
ATOM     19  H   UNL     1       5.185   1.545  20.610  0.00  0.00    +0.000 HD
ENDBRANCH   8  18
TORSDOF 5
ENDMDL
MODEL 7
REMARK VINA RESULT:      -6.5      1.865      5.473
REMARK  Name = 
REMARK  8 active torsions:
REMARK  status: ('A' for Active; 'I' for Inactive)
REMARK    1  A    between atoms: C_1  and  C_2
REMARK    2  A    between atoms: C_2  and  O_3
REMARK    3  A    between atoms: O_3  and  C_4
REMARK    4  A    between atoms: C_4  and  C_6
REMARK    5  A    between atoms: C_7  and  C_8
REMARK    6  A    between atoms: C_12  and  O_13
REMARK    7  A    between atoms: O_13  and  C_14
REMARK    8  A    between atoms: C_15  and  O_16
REMARK                            x       y       z     vdW  Elec       q    Type
REMARK                         _______ _______ _______ _____ _____    ______ ____
ROOT
ATOM      1  C   UNL     1       6.299   4.862  17.662  0.00  0.00    +0.000 A 
ATOM      2  C   UNL     1       6.727   5.537  18.794  0.00  0.00    +0.000 A 
ATOM      3  C   UNL     1       7.984   6.221  19.183  0.00  0.00    +0.000 C 
ATOM      4  O   UNL     1       5.731   5.584  19.728  0.00  0.00    +0.000 OA
ATOM      5  C   UNL     1       4.655   4.939  19.203  0.00  0.00    +0.000 A 
ATOM      6  C   UNL     1       3.415   4.780  19.820  0.00  0.00    +0.000 A 
ATOM      7  C   UNL     1       2.404   4.080  19.127  0.00  0.00    +0.000 A 
ATOM      8  C   UNL     1       2.684   3.569  17.854  0.00  0.00    +0.000 A 
ATOM      9  C   UNL     1       3.943   3.755  17.258  0.00  0.00    +0.000 A 
ATOM     10  C   UNL     1       4.953   4.456  17.940  0.00  0.00    +0.000 A 
ENDROOT
BRANCH   1  11
ATOM     11  C   UNL     1       7.062   4.687  16.439  0.00  0.00    +0.000 C 
ATOM     12  O   UNL     1       8.129   4.088  16.376  0.00  0.00    +0.000 OA
BRANCH  11  13
ATOM     13  O   UNL     1       6.507   5.365  15.395  0.00  0.00    +0.000 OA
BRANCH  13  15
ATOM     14  C   UNL     1       5.899   3.841  13.662  0.00  0.00    +0.000 C 
ATOM     15  C   UNL     1       6.882   4.918  14.089  0.00  0.00    +0.000 C 
ENDBRANCH  13  15
ENDBRANCH  11  13
ENDBRANCH   1  11
BRANCH   7  16
ATOM     16  O   UNL     1       1.260   4.015  19.870  0.00  0.00    +0.000 OA
ATOM     17  C   UNL     1       1.080   3.030  20.869  0.00  0.00    +0.000 C 
ENDBRANCH   7  16
BRANCH   8  18
ATOM     18  O   UNL     1       1.841   2.854  17.050  0.00  0.00    +0.000 OA
ATOM     19  H   UNL     1       0.944   2.862  17.398  0.00  0.00    +0.000 HD
ENDBRANCH   8  18
TORSDOF 5
ENDMDL
MODEL 8
REMARK VINA RESULT:      -6.5      2.198      5.829
REMARK  Name = 
REMARK  8 active torsions:
REMARK  status: ('A' for Active; 'I' for Inactive)
REMARK    1  A    between atoms: C_1  and  C_2
REMARK    2  A    between atoms: C_2  and  O_3
REMARK    3  A    between atoms: O_3  and  C_4
REMARK    4  A    between atoms: C_4  and  C_6
REMARK    5  A    between atoms: C_7  and  C_8
REMARK    6  A    between atoms: C_12  and  O_13
REMARK    7  A    between atoms: O_13  and  C_14
REMARK    8  A    between atoms: C_15  and  O_16
REMARK                            x       y       z     vdW  Elec       q    Type
REMARK                         _______ _______ _______ _____ _____    ______ ____
ROOT
ATOM      1  C   UNL     1       4.293   6.017  17.774  0.00  0.00    +0.000 A 
ATOM      2  C   UNL     1       3.294   6.915  18.117  0.00  0.00    +0.000 A 
ATOM      3  C   UNL     1       2.856   8.231  17.594  0.00  0.00    +0.000 C 
ATOM      4  O   UNL     1       2.554   6.432  19.159  0.00  0.00    +0.000 OA
ATOM      5  C   UNL     1       3.071   5.219  19.492  0.00  0.00    +0.000 A 
ATOM      6  C   UNL     1       2.593   4.373  20.492  0.00  0.00    +0.000 A 
ATOM      7  C   UNL     1       3.254   3.144  20.705  0.00  0.00    +0.000 A 
ATOM      8  C   UNL     1       4.362   2.824  19.912  0.00  0.00    +0.000 A 
ATOM      9  C   UNL     1       4.812   3.697  18.907  0.00  0.00    +0.000 A 
ATOM     10  C   UNL     1       4.157   4.921  18.686  0.00  0.00    +0.000 A 
ENDROOT
BRANCH   1  11
ATOM     11  C   UNL     1       5.218   6.161  16.664  0.00  0.00    +0.000 C 
ATOM     12  O   UNL     1       5.961   7.124  16.511  0.00  0.00    +0.000 OA
BRANCH  11  13
ATOM     13  O   UNL     1       5.082   5.154  15.757  0.00  0.00    +0.000 OA
BRANCH  13  15
ATOM     14  C   UNL     1       6.108   3.942  13.976  0.00  0.00    +0.000 C 
ATOM     15  C   UNL     1       6.287   4.478  15.386  0.00  0.00    +0.000 C 
ENDBRANCH  13  15
ENDBRANCH  11  13
ENDBRANCH   1  11
BRANCH   7  16
ATOM     16  O   UNL     1       2.661   2.441  21.715  0.00  0.00    +0.000 OA
ATOM     17  C   UNL     1       1.268   2.513  21.949  0.00  0.00    +0.000 C 
ENDBRANCH   7  16
BRANCH   8  18
ATOM     18  O   UNL     1       5.131   1.696  19.989  0.00  0.00    +0.000 OA
ATOM     19  H   UNL     1       6.035   1.876  19.712  0.00  0.00    +0.000 HD
ENDBRANCH   8  18
TORSDOF 5
ENDMDL
MODEL 9
REMARK VINA RESULT:      -6.5      1.585      2.652
REMARK  Name = 
REMARK  8 active torsions:
REMARK  status: ('A' for Active; 'I' for Inactive)
REMARK    1  A    between atoms: C_1  and  C_2
REMARK    2  A    between atoms: C_2  and  O_3
REMARK    3  A    between atoms: O_3  and  C_4
REMARK    4  A    between atoms: C_4  and  C_6
REMARK    5  A    between atoms: C_7  and  C_8
REMARK    6  A    between atoms: C_12  and  O_13
REMARK    7  A    between atoms: O_13  and  C_14
REMARK    8  A    between atoms: C_15  and  O_16
REMARK                            x       y       z     vdW  Elec       q    Type
REMARK                         _______ _______ _______ _____ _____    ______ ____
ROOT
ATOM      1  C   UNL     1       4.324   3.725  18.698  0.00  0.00    +0.000 A 
ATOM      2  C   UNL     1       3.477   3.942  17.622  0.00  0.00    +0.000 A 
ATOM      3  C   UNL     1       2.194   3.347  17.174  0.00  0.00    +0.000 C 
ATOM      4  O   UNL     1       3.951   4.953  16.836  0.00  0.00    +0.000 OA
ATOM      5  C   UNL     1       5.106   5.396  17.401  0.00  0.00    +0.000 A 
ATOM      6  C   UNL     1       5.900   6.440  16.928  0.00  0.00    +0.000 A 
ATOM      7  C   UNL     1       7.072   6.769  17.642  0.00  0.00    +0.000 A 
ATOM      8  C   UNL     1       7.395   6.035  18.790  0.00  0.00    +0.000 A 
ATOM      9  C   UNL     1       6.568   4.993  19.242  0.00  0.00    +0.000 A 
ATOM     10  C   UNL     1       5.396   4.663  18.539  0.00  0.00    +0.000 A 
ENDROOT
BRANCH   1  11
ATOM     11  C   UNL     1       4.098   2.785  19.780  0.00  0.00    +0.000 C 
ATOM     12  O   UNL     1       4.486   1.622  19.771  0.00  0.00    +0.000 OA
BRANCH  11  13
ATOM     13  O   UNL     1       3.307   3.315  20.755  0.00  0.00    +0.000 OA
BRANCH  13  15
ATOM     14  C   UNL     1       0.956   3.680  20.558  0.00  0.00    +0.000 C 
ATOM     15  C   UNL     1       2.037   2.683  20.942  0.00  0.00    +0.000 C 
ENDBRANCH  13  15
ENDBRANCH  11  13
ENDBRANCH   1  11
BRANCH   7  16
ATOM     16  O   UNL     1       7.729   7.808  17.048  0.00  0.00    +0.000 OA
ATOM     17  C   UNL     1       8.017   9.001  17.750  0.00  0.00    +0.000 C 
ENDBRANCH   7  16
BRANCH   8  18
ATOM     18  O   UNL     1       8.492   6.197  19.590  0.00  0.00    +0.000 OA
ATOM     19  H   UNL     1       9.016   5.392  19.625  0.00  0.00    +0.000 HD
ENDBRANCH   8  18
TORSDOF 5
ENDMDL
