MODEL 1
REMARK VINA RESULT:      -6.7      0.000      0.000
REMARK  Name = 
REMARK  6 active torsions:
REMARK  status: ('A' for Active; 'I' for Inactive)
REMARK    1  A    between atoms: C_1  and  C_2
REMARK    2  A    between atoms: C_2  and  C_4
REMARK    3  A    between atoms: C_4  and  N_5
REMARK    4  A    between atoms: N_6  and  C_7
REMARK    5  A    between atoms: C_10  and  N_11
REMARK    6  A    between atoms: C_17  and  C_18
REMARK                            x       y       z     vdW  Elec       q    Type
REMARK                         _______ _______ _______ _____ _____    ______ ____
ROOT
ATOM      1  N   UNL     1       3.691   3.682  18.650  0.00  0.00    +0.000 NA
ATOM      2  N   UNL     1       4.423   4.693  18.588  0.00  0.00    +0.000 NA
ENDROOT
BRANCH   2   3
ATOM      3  C   UNL     1       5.255   4.737  17.451  0.00  0.00    +0.000 A 
ATOM      4  C   UNL     1       4.901   3.920  16.366  0.00  0.00    +0.000 A 
ATOM      5  C   UNL     1       5.591   3.976  15.151  0.00  0.00    +0.000 A 
ATOM      6  C   UNL     1       6.662   4.866  15.015  0.00  0.00    +0.000 A 
ATOM      7  C   UNL     1       7.053   5.674  16.088  0.00  0.00    +0.000 A 
ATOM      8  C   UNL     1       6.348   5.605  17.302  0.00  0.00    +0.000 A 
BRANCH   6   9
ATOM      9  N   UNL     1       7.354   4.972  13.721  0.00  0.00    +0.000 N 
ATOM     10  O   UNL     1       8.314   5.751  13.638  0.00  0.00    +0.000 OA
ATOM     11  O   UNL     1       6.940   4.266  12.788  0.00  0.00    +0.000 OA
ENDBRANCH   6   9
ENDBRANCH   2   3
BRANCH   1  12
ATOM     12  C   UNL     1       2.806   3.619  19.800  0.00  0.00    +0.000 C 
ATOM     13  N   UNL     1       1.301   3.632  19.448  0.00  0.00    +0.000 NA
ATOM     14  C   UNL     1       1.837   4.601  20.059  0.00  0.00    +0.000 C 
ATOM     15  C   UNL     1       1.576   5.811  20.788  0.00  0.00    +0.000 C 
BRANCH  12  17
ATOM     16  C   UNL     1       4.438   1.879  20.671  0.00  0.00    +0.000 C 
ATOM     17  C   UNL     1       3.247   2.753  20.929  0.00  0.00    +0.000 C 
ATOM     18  O   UNL     1       2.605   2.720  21.976  0.00  0.00    +0.000 OA
ENDBRANCH  12  17
ENDBRANCH   1  12
TORSDOF 4
ENDMDL
MODEL 2
REMARK VINA RESULT:      -6.7      0.940      1.031
REMARK  Name = 
REMARK  6 active torsions:
REMARK  status: ('A' for Active; 'I' for Inactive)
REMARK    1  A    between atoms: C_1  and  C_2
REMARK    2  A    between atoms: C_2  and  C_4
REMARK    3  A    between atoms: C_4  and  N_5
REMARK    4  A    between atoms: N_6  and  C_7
REMARK    5  A    between atoms: C_10  and  N_11
REMARK    6  A    between atoms: C_17  and  C_18
REMARK                            x       y       z     vdW  Elec       q    Type
REMARK                         _______ _______ _______ _____ _____    ______ ____
ROOT
ATOM      1  N   UNL     1       3.955   3.487  18.165  0.00  0.00    +0.000 NA
ATOM      2  N   UNL     1       4.659   4.513  18.060  0.00  0.00    +0.000 NA
ENDROOT
BRANCH   2   3
ATOM      3  C   UNL     1       5.469   4.546  16.907  0.00  0.00    +0.000 A 
ATOM      4  C   UNL     1       4.825   4.402  15.668  0.00  0.00    +0.000 A 
ATOM      5  C   UNL     1       5.520   4.536  14.461  0.00  0.00    +0.000 A 
ATOM      6  C   UNL     1       6.889   4.818  14.491  0.00  0.00    +0.000 A 
ATOM      7  C   UNL     1       7.562   4.941  15.711  0.00  0.00    +0.000 A 
ATOM      8  C   UNL     1       6.849   4.804  16.914  0.00  0.00    +0.000 A 
BRANCH   6   9
ATOM      9  N   UNL     1       7.613   5.019  13.225  0.00  0.00    +0.000 N 
ATOM     10  O   UNL     1       8.542   5.840  13.211  0.00  0.00    +0.000 OA
ATOM     11  O   UNL     1       7.257   4.346  12.246  0.00  0.00    +0.000 OA
ENDBRANCH   6   9
ENDBRANCH   2   3
BRANCH   1  12
ATOM     12  C   UNL     1       3.093   3.435  19.333  0.00  0.00    +0.000 C 
ATOM     13  N   UNL     1       1.582   3.441  19.012  0.00  0.00    +0.000 NA
ATOM     14  C   UNL     1       2.128   4.417  19.601  0.00  0.00    +0.000 C 
ATOM     15  C   UNL     1       1.879   5.635  20.321  0.00  0.00    +0.000 C 
BRANCH  12  17
ATOM     16  C   UNL     1       2.636   2.476  21.640  0.00  0.00    +0.000 C 
ATOM     17  C   UNL     1       3.559   2.582  20.463  0.00  0.00    +0.000 C 
ATOM     18  O   UNL     1       4.675   2.071  20.438  0.00  0.00    +0.000 OA
ENDBRANCH  12  17
ENDBRANCH   1  12
TORSDOF 4
ENDMDL
MODEL 3
REMARK VINA RESULT:      -6.6      4.168      7.035
REMARK  Name = 
REMARK  6 active torsions:
REMARK  status: ('A' for Active; 'I' for Inactive)
REMARK    1  A    between atoms: C_1  and  C_2
REMARK    2  A    between atoms: C_2  and  C_4
REMARK    3  A    between atoms: C_4  and  N_5
REMARK    4  A    between atoms: N_6  and  C_7
REMARK    5  A    between atoms: C_10  and  N_11
REMARK    6  A    between atoms: C_17  and  C_18
REMARK                            x       y       z     vdW  Elec       q    Type
REMARK                         _______ _______ _______ _____ _____    ______ ____
ROOT
ATOM      1  N   UNL     1       3.777   5.755  18.798  0.00  0.00    +0.000 NA
ATOM      2  N   UNL     1       3.315   6.569  17.970  0.00  0.00    +0.000 NA
ENDROOT
BRANCH   2   3
ATOM      3  C   UNL     1       2.472   7.549  18.530  0.00  0.00    +0.000 A 
ATOM      4  C   UNL     1       2.121   7.397  19.881  0.00  0.00    +0.000 A 
ATOM      5  C   UNL     1       1.387   8.373  20.562  0.00  0.00    +0.000 A 
ATOM      6  C   UNL     1       0.991   9.528  19.879  0.00  0.00    +0.000 A 
ATOM      7  C   UNL     1       1.303   9.695  18.526  0.00  0.00    +0.000 A 
ATOM      8  C   UNL     1       2.042   8.704  17.857  0.00  0.00    +0.000 A 
BRANCH   6   9
ATOM      9  N   UNL     1       0.268  10.585  20.606  0.00  0.00    +0.000 N 
ATOM     10  O   UNL     1      -0.898  10.830  20.266  0.00  0.00    +0.000 OA
ATOM     11  O   UNL     1       0.869  11.164  21.524  0.00  0.00    +0.000 OA
ENDBRANCH   6   9
ENDBRANCH   2   3
BRANCH   1  12
ATOM     12  C   UNL     1       4.668   4.745  18.254  0.00  0.00    +0.000 C 
ATOM     13  N   UNL     1       5.493   3.982  19.314  0.00  0.00    +0.000 NA
ATOM     14  C   UNL     1       6.052   4.757  18.487  0.00  0.00    +0.000 C 
ATOM     15  C   UNL     1       7.317   5.179  17.951  0.00  0.00    +0.000 C 
BRANCH  12  17
ATOM     16  C   UNL     1       2.958   3.112  17.326  0.00  0.00    +0.000 C 
ATOM     17  C   UNL     1       4.160   3.975  17.083  0.00  0.00    +0.000 C 
ATOM     18  O   UNL     1       4.760   4.004  16.012  0.00  0.00    +0.000 OA
ENDBRANCH  12  17
ENDBRANCH   1  12
TORSDOF 4
ENDMDL
MODEL 4
REMARK VINA RESULT:      -6.6      4.026      6.615
REMARK  Name = 
REMARK  6 active torsions:
REMARK  status: ('A' for Active; 'I' for Inactive)
REMARK    1  A    between atoms: C_1  and  C_2
REMARK    2  A    between atoms: C_2  and  C_4
REMARK    3  A    between atoms: C_4  and  N_5
REMARK    4  A    between atoms: N_6  and  C_7
REMARK    5  A    between atoms: C_10  and  N_11
REMARK    6  A    between atoms: C_17  and  C_18
REMARK                            x       y       z     vdW  Elec       q    Type
REMARK                         _______ _______ _______ _____ _____    ______ ____
ROOT
ATOM      1  N   UNL     1       4.162   5.436  19.145  0.00  0.00    +0.000 NA
ATOM      2  N   UNL     1       3.344   5.932  18.341  0.00  0.00    +0.000 NA
ENDROOT
BRANCH   2   3
ATOM      3  C   UNL     1       2.656   7.058  18.835  0.00  0.00    +0.000 A 
ATOM      4  C   UNL     1       2.384   8.093  17.926  0.00  0.00    +0.000 A 
ATOM      5  C   UNL     1       1.607   9.199  18.286  0.00  0.00    +0.000 A 
ATOM      6  C   UNL     1       1.090   9.276  19.583  0.00  0.00    +0.000 A 
ATOM      7  C   UNL     1       1.366   8.272  20.518  0.00  0.00    +0.000 A 
ATOM      8  C   UNL     1       2.148   7.167  20.140  0.00  0.00    +0.000 A 
BRANCH   6   9
ATOM      9  N   UNL     1       0.223  10.407  19.950  0.00  0.00    +0.000 N 
ATOM     10  O   UNL     1      -0.831  10.560  19.316  0.00  0.00    +0.000 OA
ATOM     11  O   UNL     1       0.594  11.138  20.881  0.00  0.00    +0.000 OA
ENDBRANCH   6   9
ENDBRANCH   2   3
BRANCH   1  12
ATOM     12  C   UNL     1       4.903   4.287  18.655  0.00  0.00    +0.000 C 
ATOM     13  N   UNL     1       6.433   4.492  18.594  0.00  0.00    +0.000 NA
ATOM     14  C   UNL     1       5.751   4.356  17.539  0.00  0.00    +0.000 C 
ATOM     15  C   UNL     1       5.823   4.144  16.120  0.00  0.00    +0.000 C 
BRANCH  12  17
ATOM     16  C   UNL     1       3.395   2.303  18.159  0.00  0.00    +0.000 C 
ATOM     17  C   UNL     1       4.398   2.947  19.070  0.00  0.00    +0.000 C 
ATOM     18  O   UNL     1       4.742   2.457  20.142  0.00  0.00    +0.000 OA
ENDBRANCH  12  17
ENDBRANCH   1  12
TORSDOF 4
ENDMDL
MODEL 5
REMARK VINA RESULT:      -6.6      4.007      6.608
REMARK  Name = 
REMARK  6 active torsions:
REMARK  status: ('A' for Active; 'I' for Inactive)
REMARK    1  A    between atoms: C_1  and  C_2
REMARK    2  A    between atoms: C_2  and  C_4
REMARK    3  A    between atoms: C_4  and  N_5
REMARK    4  A    between atoms: N_6  and  C_7
REMARK    5  A    between atoms: C_10  and  N_11
REMARK    6  A    between atoms: C_17  and  C_18
REMARK                            x       y       z     vdW  Elec       q    Type
REMARK                         _______ _______ _______ _____ _____    ______ ____
ROOT
ATOM      1  N   UNL     1       3.985   5.451  19.176  0.00  0.00    +0.000 NA
ATOM      2  N   UNL     1       3.288   5.963  18.275  0.00  0.00    +0.000 NA
ENDROOT
BRANCH   2   3
ATOM      3  C   UNL     1       2.517   7.066  18.694  0.00  0.00    +0.000 A 
ATOM      4  C   UNL     1       2.116   7.093  20.039  0.00  0.00    +0.000 A 
ATOM      5  C   UNL     1       1.450   8.196  20.583  0.00  0.00    +0.000 A 
ATOM      6  C   UNL     1       1.176   9.298  19.766  0.00  0.00    +0.000 A 
ATOM      7  C   UNL     1       1.542   9.289  18.417  0.00  0.00    +0.000 A 
ATOM      8  C   UNL     1       2.210   8.173  17.885  0.00  0.00    +0.000 A 
BRANCH   6   9
ATOM      9  N   UNL     1       0.529  10.486  20.348  0.00  0.00    +0.000 N 
ATOM     10  O   UNL     1       1.070  11.587  20.173  0.00  0.00    +0.000 OA
ATOM     11  O   UNL     1      -0.529  10.315  20.973  0.00  0.00    +0.000 OA
ENDBRANCH   6   9
ENDBRANCH   2   3
BRANCH   1  12
ATOM     12  C   UNL     1       4.807   4.325  18.769  0.00  0.00    +0.000 C 
ATOM     13  N   UNL     1       6.325   4.541  18.958  0.00  0.00    +0.000 NA
ATOM     14  C   UNL     1       5.819   4.441  17.804  0.00  0.00    +0.000 C 
ATOM     15  C   UNL     1       6.116   4.281  16.407  0.00  0.00    +0.000 C 
BRANCH  12  17
ATOM     16  C   UNL     1       3.489   2.317  17.940  0.00  0.00    +0.000 C 
ATOM     17  C   UNL     1       4.259   2.968  19.051  0.00  0.00    +0.000 C 
ATOM     18  O   UNL     1       4.378   2.468  20.167  0.00  0.00    +0.000 OA
ENDBRANCH  12  17
ENDBRANCH   1  12
TORSDOF 4
ENDMDL
MODEL 6
REMARK VINA RESULT:      -6.5      4.542      6.422
REMARK  Name = 
REMARK  6 active torsions:
REMARK  status: ('A' for Active; 'I' for Inactive)
REMARK    1  A    between atoms: C_1  and  C_2
REMARK    2  A    between atoms: C_2  and  C_4
REMARK    3  A    between atoms: C_4  and  N_5
REMARK    4  A    between atoms: N_6  and  C_7
REMARK    5  A    between atoms: C_10  and  N_11
REMARK    6  A    between atoms: C_17  and  C_18
REMARK                            x       y       z     vdW  Elec       q    Type
REMARK                         _______ _______ _______ _____ _____    ______ ____
ROOT
ATOM      1  N   UNL     1       2.499   5.427  18.176  0.00  0.00    +0.000 NA
ATOM      2  N   UNL     1       2.858   6.107  19.160  0.00  0.00    +0.000 NA
ENDROOT
BRANCH   2   3
ATOM      3  C   UNL     1       2.308   7.404  19.201  0.00  0.00    +0.000 A 
ATOM      4  C   UNL     1       2.329   8.147  18.009  0.00  0.00    +0.000 A 
ATOM      5  C   UNL     1       1.705   9.395  17.913  0.00  0.00    +0.000 A 
ATOM      6  C   UNL     1       1.047   9.916  19.031  0.00  0.00    +0.000 A 
ATOM      7  C   UNL     1       1.032   9.211  20.239  0.00  0.00    +0.000 A 
ATOM      8  C   UNL     1       1.663   7.958  20.319  0.00  0.00    +0.000 A 
BRANCH   6   9
ATOM      9  N   UNL     1       0.339  11.202  18.919  0.00  0.00    +0.000 N 
ATOM     10  O   UNL     1       0.874  12.205  19.414  0.00  0.00    +0.000 OA
ATOM     11  O   UNL     1      -0.750  11.208  18.324  0.00  0.00    +0.000 OA
ENDBRANCH   6   9
ENDBRANCH   2   3
BRANCH   1  12
ATOM     12  C   UNL     1       3.032   4.078  18.118  0.00  0.00    +0.000 C 
ATOM     13  N   UNL     1       2.336   3.159  17.089  0.00  0.00    +0.000 NA
ATOM     14  C   UNL     1       2.235   2.942  18.330  0.00  0.00    +0.000 C 
ATOM     15  C   UNL     1       1.804   1.994  19.320  0.00  0.00    +0.000 C 
BRANCH  12  17
ATOM     16  C   UNL     1       5.353   4.413  17.140  0.00  0.00    +0.000 C 
ATOM     17  C   UNL     1       4.506   3.940  18.285  0.00  0.00    +0.000 C 
ATOM     18  O   UNL     1       4.972   3.395  19.282  0.00  0.00    +0.000 OA
ENDBRANCH  12  17
ENDBRANCH   1  12
TORSDOF 4
ENDMDL
MODEL 7
REMARK VINA RESULT:      -6.5      0.717      1.022
REMARK  Name = 
REMARK  6 active torsions:
REMARK  status: ('A' for Active; 'I' for Inactive)
REMARK    1  A    between atoms: C_1  and  C_2
REMARK    2  A    between atoms: C_2  and  C_4
REMARK    3  A    between atoms: C_4  and  N_5
REMARK    4  A    between atoms: N_6  and  C_7
REMARK    5  A    between atoms: C_10  and  N_11
REMARK    6  A    between atoms: C_17  and  C_18
REMARK                            x       y       z     vdW  Elec       q    Type
REMARK                         _______ _______ _______ _____ _____    ______ ____
ROOT
ATOM      1  N   UNL     1       3.515   3.771  18.644  0.00  0.00    +0.000 NA
ATOM      2  N   UNL     1       3.882   4.920  18.316  0.00  0.00    +0.000 NA
ENDROOT
BRANCH   2   3
ATOM      3  C   UNL     1       4.704   4.962  17.172  0.00  0.00    +0.000 A 
ATOM      4  C   UNL     1       5.268   3.749  16.744  0.00  0.00    +0.000 A 
ATOM      5  C   UNL     1       6.001   3.662  15.556  0.00  0.00    +0.000 A 
ATOM      6  C   UNL     1       6.178   4.810  14.778  0.00  0.00    +0.000 A 
ATOM      7  C   UNL     1       5.649   6.036  15.192  0.00  0.00    +0.000 A 
ATOM      8  C   UNL     1       4.914   6.108  16.388  0.00  0.00    +0.000 A 
BRANCH   6   9
ATOM      9  N   UNL     1       6.898   4.711  13.497  0.00  0.00    +0.000 N 
ATOM     10  O   UNL     1       6.542   3.834  12.697  0.00  0.00    +0.000 OA
ATOM     11  O   UNL     1       7.816   5.520  13.291  0.00  0.00    +0.000 OA
ENDBRANCH   6   9
ENDBRANCH   2   3
BRANCH   1  12
ATOM     12  C   UNL     1       2.649   3.698  19.807  0.00  0.00    +0.000 C 
ATOM     13  N   UNL     1       1.139   3.727  19.482  0.00  0.00    +0.000 NA
ATOM     14  C   UNL     1       1.691   4.683  20.097  0.00  0.00    +0.000 C 
ATOM     15  C   UNL     1       1.452   5.885  20.847  0.00  0.00    +0.000 C 
BRANCH  12  17
ATOM     16  C   UNL     1       4.333   1.996  20.655  0.00  0.00    +0.000 C 
ATOM     17  C   UNL     1       3.103   2.813  20.917  0.00  0.00    +0.000 C 
ATOM     18  O   UNL     1       2.443   2.719  21.948  0.00  0.00    +0.000 OA
ENDBRANCH  12  17
ENDBRANCH   1  12
TORSDOF 4
ENDMDL
MODEL 8
REMARK VINA RESULT:      -6.5      4.252      6.630
REMARK  Name = 
REMARK  6 active torsions:
REMARK  status: ('A' for Active; 'I' for Inactive)
REMARK    1  A    between atoms: C_1  and  C_2
REMARK    2  A    between atoms: C_2  and  C_4
REMARK    3  A    between atoms: C_4  and  N_5
REMARK    4  A    between atoms: N_6  and  C_7
REMARK    5  A    between atoms: C_10  and  N_11
REMARK    6  A    between atoms: C_17  and  C_18
REMARK                            x       y       z     vdW  Elec       q    Type
REMARK                         _______ _______ _______ _____ _____    ______ ____
ROOT
ATOM      1  N   UNL     1       4.217   5.686  19.033  0.00  0.00    +0.000 NA
ATOM      2  N   UNL     1       3.212   5.995  18.358  0.00  0.00    +0.000 NA
ENDROOT
BRANCH   2   3
ATOM      3  C   UNL     1       2.571   7.177  18.782  0.00  0.00    +0.000 A 
ATOM      4  C   UNL     1       2.377   8.181  17.820  0.00  0.00    +0.000 A 
ATOM      5  C   UNL     1       1.649   9.340  18.107  0.00  0.00    +0.000 A 
ATOM      6  C   UNL     1       1.104   9.503  19.385  0.00  0.00    +0.000 A 
ATOM      7  C   UNL     1       1.303   8.532  20.371  0.00  0.00    +0.000 A 
ATOM      8  C   UNL     1       2.036   7.372  20.066  0.00  0.00    +0.000 A 
BRANCH   6   9
ATOM      9  N   UNL     1       0.287  10.694  19.675  0.00  0.00    +0.000 N 
ATOM     10  O   UNL     1       0.867  11.785  19.772  0.00  0.00    +0.000 OA
ATOM     11  O   UNL     1      -0.937  10.535  19.797  0.00  0.00    +0.000 OA
ENDBRANCH   6   9
ENDBRANCH   2   3
BRANCH   1  12
ATOM     12  C   UNL     1       4.912   4.484  18.607  0.00  0.00    +0.000 C 
ATOM     13  N   UNL     1       6.400   4.426  19.020  0.00  0.00    +0.000 NA
ATOM     14  C   UNL     1       6.064   4.524  17.806  0.00  0.00    +0.000 C 
ATOM     15  C   UNL     1       6.541   4.455  16.452  0.00  0.00    +0.000 C 
BRANCH  12  17
ATOM     16  C   UNL     1       3.703   2.742  20.005  0.00  0.00    +0.000 C 
ATOM     17  C   UNL     1       4.130   3.217  18.648  0.00  0.00    +0.000 C 
ATOM     18  O   UNL     1       3.929   2.575  17.620  0.00  0.00    +0.000 OA
ENDBRANCH  12  17
ENDBRANCH   1  12
TORSDOF 4
ENDMDL
MODEL 9
REMARK VINA RESULT:      -6.5      4.544      6.290
REMARK  Name = 
REMARK  6 active torsions:
REMARK  status: ('A' for Active; 'I' for Inactive)
REMARK    1  A    between atoms: C_1  and  C_2
REMARK    2  A    between atoms: C_2  and  C_4
REMARK    3  A    between atoms: C_4  and  N_5
REMARK    4  A    between atoms: N_6  and  C_7
REMARK    5  A    between atoms: C_10  and  N_11
REMARK    6  A    between atoms: C_17  and  C_18
REMARK                            x       y       z     vdW  Elec       q    Type
REMARK                         _______ _______ _______ _____ _____    ______ ____
ROOT
ATOM      1  N   UNL     1       2.394   5.244  18.877  0.00  0.00    +0.000 NA
ATOM      2  N   UNL     1       2.680   6.151  19.688  0.00  0.00    +0.000 NA
ENDROOT
BRANCH   2   3
ATOM      3  C   UNL     1       2.149   7.414  19.356  0.00  0.00    +0.000 A 
ATOM      4  C   UNL     1       1.477   8.114  20.371  0.00  0.00    +0.000 A 
ATOM      5  C   UNL     1       1.018   9.420  20.179  0.00  0.00    +0.000 A 
ATOM      6  C   UNL     1       1.230  10.043  18.945  0.00  0.00    +0.000 A 
ATOM      7  C   UNL     1       1.873   9.361  17.907  0.00  0.00    +0.000 A 
ATOM      8  C   UNL     1       2.329   8.049  18.116  0.00  0.00    +0.000 A 
BRANCH   6   9
ATOM      9  N   UNL     1       0.800  11.439  18.756  0.00  0.00    +0.000 N 
ATOM     10  O   UNL     1      -0.400  11.703  18.916  0.00  0.00    +0.000 OA
ATOM     11  O   UNL     1       1.669  12.272  18.456  0.00  0.00    +0.000 OA
ENDBRANCH   6   9
ENDBRANCH   2   3
BRANCH   1  12
ATOM     12  C   UNL     1       2.908   3.926  19.205  0.00  0.00    +0.000 C 
ATOM     13  N   UNL     1       1.884   2.781  19.040  0.00  0.00    +0.000 NA
ATOM     14  C   UNL     1       2.319   3.108  20.181  0.00  0.00    +0.000 C 
ATOM     15  C   UNL     1       2.379   2.721  21.563  0.00  0.00    +0.000 C 
BRANCH  12  17
ATOM     16  C   UNL     1       4.698   3.962  17.402  0.00  0.00    +0.000 C 
ATOM     17  C   UNL     1       4.322   3.653  18.821  0.00  0.00    +0.000 C 
ATOM     18  O   UNL     1       5.094   3.130  19.620  0.00  0.00    +0.000 OA
ENDBRANCH  12  17
ENDBRANCH   1  12
TORSDOF 4
ENDMDL
