MODEL 1
REMARK VINA RESULT:      -5.6      0.000      0.000
REMARK  Name = 
REMARK  10 active torsions:
REMARK  status: ('A' for Active; 'I' for Inactive)
REMARK    1  A    between atoms: C_1  and  O_2
REMARK    2  A    between atoms: O_2  and  C_3
REMARK    3  A    between atoms: C_3  and  C_5
REMARK    4  A    between atoms: C_5  and  C_6
REMARK    5  A    between atoms: C_7  and  C_8
REMARK    6  A    between atoms: C_8  and  O_10
REMARK    7  A    between atoms: O_10  and  C_11
REMARK    8  A    between atoms: N_15  and  C_16
REMARK    9  A    between atoms: C_23  and  C_24
REMARK   10  A    between atoms: C_26  and  N_27
REMARK                            x       y       z     vdW  Elec       q    Type
REMARK                         _______ _______ _______ _____ _____    ______ ____
ROOT
ATOM      1  C   UNL     1      -3.404  12.326  19.754  0.00  0.00    +0.000 C 
ATOM      2  C   UNL     1      -2.287  11.796  19.201  0.00  0.00    +0.000 C 
ATOM      3  C   UNL     1      -0.927  12.014  19.856  0.00  0.00    +0.000 C 
ATOM      4  C   UNL     1       0.174  12.441  18.836  0.00  0.00    +0.000 C 
ATOM      5  O   UNL     1       0.165  13.451  18.144  0.00  0.00    +0.000 OA
ATOM      6  N   UNL     1       1.174  11.453  18.877  0.00  0.00    +0.000 N 
ATOM      7  C   UNL     1       2.339  11.439  18.031  0.00  0.00    +0.000 C 
ATOM      8  C   UNL     1       0.852  10.430  19.777  0.00  0.00    +0.000 A 
ATOM      9  C   UNL     1       1.550   9.273  20.064  0.00  0.00    +0.000 A 
ATOM     10  C   UNL     1       1.001   8.395  21.007  0.00  0.00    +0.000 A 
ATOM     11  C   UNL     1      -0.219   8.683  21.640  0.00  0.00    +0.000 A 
ATOM     12  C   UNL     1      -0.916   9.850  21.336  0.00  0.00    +0.000 A 
ATOM     13  C   UNL     1      -0.366  10.713  20.397  0.00  0.00    +0.000 A 
ATOM     14  C   UNL     1      -0.969  13.072  20.938  0.00  0.00    +0.000 C 
ATOM     15  C   UNL     1      -2.139  13.513  21.440  0.00  0.00    +0.000 C 
ATOM     16  O   UNL     1      -3.348  13.095  20.912  0.00  0.00    +0.000 OA
ENDROOT
BRANCH  15  17
ATOM     17  N   UNL     1      -2.289  14.380  22.494  0.00  0.00    +0.000 N 
ATOM     18  H   UNL     1      -1.700  14.231  23.308  0.00  0.00    +0.000 HD
ATOM     19  H   UNL     1      -2.369  15.353  22.209  0.00  0.00    +0.000 HD
ENDBRANCH  15  17
BRANCH   2  20
ATOM     20  C   UNL     1      -2.414  10.880  18.030  0.00  0.00    +0.000 C 
ATOM     21  O   UNL     1      -2.581   9.673  18.117  0.00  0.00    +0.000 OA
BRANCH  20  22
ATOM     22  O   UNL     1      -2.316  11.559  16.868  0.00  0.00    +0.000 OA
ATOM     23  C   UNL     1      -2.870  10.932  15.709  0.00  0.00    +0.000 C 
ENDBRANCH  20  22
ENDBRANCH   2  20
BRANCH  14  24
ATOM     24  C   UNL     1       0.312  13.664  21.503  0.00  0.00    +0.000 C 
ATOM     25  N   UNL     1       1.375  14.155  21.972  0.00  0.00    +0.000 NA
ENDBRANCH  14  24
BRANCH   1  26
ATOM     26  C   UNL     1      -4.824  12.212  19.247  0.00  0.00    +0.000 C 
BRANCH  26  27
ATOM     27  C   UNL     1      -5.850  12.672  20.270  0.00  0.00    +0.000 C 
ATOM     28  O   UNL     1      -6.292  13.804  20.394  0.00  0.00    +0.000 OA
BRANCH  27  30
ATOM     29  C   UNL     1      -7.459  10.972  20.624  0.00  0.00    +0.000 C 
ATOM     30  O   UNL     1      -6.233  11.590  21.017  0.00  0.00    +0.000 OA
ENDBRANCH  27  30
ENDBRANCH  26  27
ENDBRANCH   1  26
TORSDOF 7
ENDMDL
MODEL 2
REMARK VINA RESULT:      -5.6      2.395      4.310
REMARK  Name = 
REMARK  10 active torsions:
REMARK  status: ('A' for Active; 'I' for Inactive)
REMARK    1  A    between atoms: C_1  and  O_2
REMARK    2  A    between atoms: O_2  and  C_3
REMARK    3  A    between atoms: C_3  and  C_5
REMARK    4  A    between atoms: C_5  and  C_6
REMARK    5  A    between atoms: C_7  and  C_8
REMARK    6  A    between atoms: C_8  and  O_10
REMARK    7  A    between atoms: O_10  and  C_11
REMARK    8  A    between atoms: N_15  and  C_16
REMARK    9  A    between atoms: C_23  and  C_24
REMARK   10  A    between atoms: C_26  and  N_27
REMARK                            x       y       z     vdW  Elec       q    Type
REMARK                         _______ _______ _______ _____ _____    ______ ____
ROOT
ATOM      1  C   UNL     1      -3.096  12.441  21.611  0.00  0.00    +0.000 C 
ATOM      2  C   UNL     1      -1.852  12.025  21.272  0.00  0.00    +0.000 C 
ATOM      3  C   UNL     1      -1.475  11.854  19.804  0.00  0.00    +0.000 C 
ATOM      4  C   UNL     1      -0.742  10.505  19.522  0.00  0.00    +0.000 C 
ATOM      5  O   UNL     1      -1.199   9.384  19.701  0.00  0.00    +0.000 OA
ATOM      6  N   UNL     1       0.529  10.828  19.013  0.00  0.00    +0.000 N 
ATOM      7  C   UNL     1       1.545   9.863  18.689  0.00  0.00    +0.000 C 
ATOM      8  C   UNL     1       0.721  12.214  18.950  0.00  0.00    +0.000 A 
ATOM      9  C   UNL     1       1.841  12.919  18.554  0.00  0.00    +0.000 A 
ATOM     10  C   UNL     1       1.783  14.317  18.594  0.00  0.00    +0.000 A 
ATOM     11  C   UNL     1       0.621  14.981  19.022  0.00  0.00    +0.000 A 
ATOM     12  C   UNL     1      -0.499  14.258  19.426  0.00  0.00    +0.000 A 
ATOM     13  C   UNL     1      -0.430  12.872  19.387  0.00  0.00    +0.000 A 
ATOM     14  C   UNL     1      -2.676  11.911  18.886  0.00  0.00    +0.000 C 
ATOM     15  C   UNL     1      -3.867  12.369  19.321  0.00  0.00    +0.000 C 
ATOM     16  O   UNL     1      -4.065  12.703  20.649  0.00  0.00    +0.000 OA
ENDROOT
BRANCH  15  17
ATOM     17  N   UNL     1      -4.985  12.569  18.549  0.00  0.00    +0.000 N 
ATOM     18  H   UNL     1      -4.857  12.599  17.541  0.00  0.00    +0.000 HD
ATOM     19  H   UNL     1      -5.788  12.025  18.852  0.00  0.00    +0.000 HD
ENDBRANCH  15  17
BRANCH   2  20
ATOM     20  C   UNL     1      -0.815  11.873  22.333  0.00  0.00    +0.000 C 
ATOM     21  O   UNL     1       0.097  12.665  22.519  0.00  0.00    +0.000 OA
BRANCH  20  22
ATOM     22  O   UNL     1      -1.015  10.750  23.053  0.00  0.00    +0.000 OA
ATOM     23  C   UNL     1       0.021   9.766  23.008  0.00  0.00    +0.000 C 
ENDBRANCH  20  22
ENDBRANCH   2  20
BRANCH  14  24
ATOM     24  C   UNL     1      -2.577  11.464  17.437  0.00  0.00    +0.000 C 
ATOM     25  N   UNL     1      -2.493  11.092  16.234  0.00  0.00    +0.000 NA
ENDBRANCH  14  24
BRANCH   1  26
ATOM     26  C   UNL     1      -3.641  12.665  23.005  0.00  0.00    +0.000 C 
BRANCH  26  27
ATOM     27  C   UNL     1      -4.993  13.360  23.000  0.00  0.00    +0.000 C 
ATOM     28  O   UNL     1      -5.187  14.564  22.919  0.00  0.00    +0.000 OA
BRANCH  27  30
ATOM     29  C   UNL     1      -7.010  12.652  24.015  0.00  0.00    +0.000 C 
ATOM     30  O   UNL     1      -5.973  12.406  23.064  0.00  0.00    +0.000 OA
ENDBRANCH  27  30
ENDBRANCH  26  27
ENDBRANCH   1  26
TORSDOF 7
ENDMDL
MODEL 3
REMARK VINA RESULT:      -5.6      2.442      4.712
REMARK  Name = 
REMARK  10 active torsions:
REMARK  status: ('A' for Active; 'I' for Inactive)
REMARK    1  A    between atoms: C_1  and  O_2
REMARK    2  A    between atoms: O_2  and  C_3
REMARK    3  A    between atoms: C_3  and  C_5
REMARK    4  A    between atoms: C_5  and  C_6
REMARK    5  A    between atoms: C_7  and  C_8
REMARK    6  A    between atoms: C_8  and  O_10
REMARK    7  A    between atoms: O_10  and  C_11
REMARK    8  A    between atoms: N_15  and  C_16
REMARK    9  A    between atoms: C_23  and  C_24
REMARK   10  A    between atoms: C_26  and  N_27
REMARK                            x       y       z     vdW  Elec       q    Type
REMARK                         _______ _______ _______ _____ _____    ______ ____
ROOT
ATOM      1  C   UNL     1      -2.937  12.500  21.720  0.00  0.00    +0.000 C 
ATOM      2  C   UNL     1      -1.703  12.123  21.307  0.00  0.00    +0.000 C 
ATOM      3  C   UNL     1      -1.408  11.964  19.819  0.00  0.00    +0.000 C 
ATOM      4  C   UNL     1      -0.650  10.638  19.493  0.00  0.00    +0.000 C 
ATOM      5  O   UNL     1      -1.060   9.503  19.698  0.00  0.00    +0.000 OA
ATOM      6  N   UNL     1       0.577  11.001  18.910  0.00  0.00    +0.000 N 
ATOM      7  C   UNL     1       1.603  10.068  18.525  0.00  0.00    +0.000 C 
ATOM      8  C   UNL     1       0.721  12.393  18.837  0.00  0.00    +0.000 A 
ATOM      9  C   UNL     1       1.793  13.133  18.375  0.00  0.00    +0.000 A 
ATOM     10  C   UNL     1       1.692  14.528  18.420  0.00  0.00    +0.000 A 
ATOM     11  C   UNL     1       0.537  15.155  18.917  0.00  0.00    +0.000 A 
ATOM     12  C   UNL     1      -0.533  14.397  19.386  0.00  0.00    +0.000 A 
ATOM     13  C   UNL     1      -0.423  13.013  19.342  0.00  0.00    +0.000 A 
ATOM     14  C   UNL     1      -2.663  11.981  18.974  0.00  0.00    +0.000 C 
ATOM     15  C   UNL     1      -3.840  12.401  19.479  0.00  0.00    +0.000 C 
ATOM     16  O   UNL     1      -3.969  12.730  20.817  0.00  0.00    +0.000 OA
ENDROOT
BRANCH  15  17
ATOM     17  N   UNL     1      -5.007  12.564  18.775  0.00  0.00    +0.000 N 
ATOM     18  H   UNL     1      -5.488  13.454  18.868  0.00  0.00    +0.000 HD
ATOM     19  H   UNL     1      -4.956  12.215  17.822  0.00  0.00    +0.000 HD
ENDBRANCH  15  17
BRANCH   2  20
ATOM     20  C   UNL     1      -0.600  12.007  22.305  0.00  0.00    +0.000 C 
ATOM     21  O   UNL     1       0.402  12.706  22.306  0.00  0.00    +0.000 OA
BRANCH  20  22
ATOM     22  O   UNL     1      -0.853  11.028  23.198  0.00  0.00    +0.000 OA
ATOM     23  C   UNL     1      -0.127   9.807  23.036  0.00  0.00    +0.000 C 
ENDBRANCH  20  22
ENDBRANCH   2  20
BRANCH  14  24
ATOM     24  C   UNL     1      -2.635  11.535  17.521  0.00  0.00    +0.000 C 
ATOM     25  N   UNL     1      -2.612  11.166  16.315  0.00  0.00    +0.000 NA
ENDBRANCH  14  24
BRANCH   1  26
ATOM     26  C   UNL     1      -3.405  12.708  23.144  0.00  0.00    +0.000 C 
BRANCH  26  27
ATOM     27  C   UNL     1      -3.592  14.177  23.490  0.00  0.00    +0.000 C 
ATOM     28  O   UNL     1      -4.615  14.697  23.906  0.00  0.00    +0.000 OA
BRANCH  27  30
ATOM     29  C   UNL     1      -1.588  14.986  24.456  0.00  0.00    +0.000 C 
ATOM     30  O   UNL     1      -2.402  14.824  23.293  0.00  0.00    +0.000 OA
ENDBRANCH  27  30
ENDBRANCH  26  27
ENDBRANCH   1  26
TORSDOF 7
ENDMDL
MODEL 4
REMARK VINA RESULT:      -5.4      2.442      4.406
REMARK  Name = 
REMARK  10 active torsions:
REMARK  status: ('A' for Active; 'I' for Inactive)
REMARK    1  A    between atoms: C_1  and  O_2
REMARK    2  A    between atoms: O_2  and  C_3
REMARK    3  A    between atoms: C_3  and  C_5
REMARK    4  A    between atoms: C_5  and  C_6
REMARK    5  A    between atoms: C_7  and  C_8
REMARK    6  A    between atoms: C_8  and  O_10
REMARK    7  A    between atoms: O_10  and  C_11
REMARK    8  A    between atoms: N_15  and  C_16
REMARK    9  A    between atoms: C_23  and  C_24
REMARK   10  A    between atoms: C_26  and  N_27
REMARK                            x       y       z     vdW  Elec       q    Type
REMARK                         _______ _______ _______ _____ _____    ______ ____
ROOT
ATOM      1  C   UNL     1      -3.088  12.482  21.767  0.00  0.00    +0.000 C 
ATOM      2  C   UNL     1      -1.818  12.220  21.375  0.00  0.00    +0.000 C 
ATOM      3  C   UNL     1      -1.484  12.096  19.892  0.00  0.00    +0.000 C 
ATOM      4  C   UNL     1      -0.604  10.846  19.574  0.00  0.00    +0.000 C 
ATOM      5  O   UNL     1      -0.914   9.677  19.768  0.00  0.00    +0.000 OA
ATOM      6  N   UNL     1       0.595  11.321  19.015  0.00  0.00    +0.000 N 
ATOM      7  C   UNL     1       1.708  10.486  18.645  0.00  0.00    +0.000 C 
ATOM      8  C   UNL     1       0.615  12.720  18.950  0.00  0.00    +0.000 A 
ATOM      9  C   UNL     1       1.624  13.555  18.511  0.00  0.00    +0.000 A 
ATOM     10  C   UNL     1       1.397  14.936  18.560  0.00  0.00    +0.000 A 
ATOM     11  C   UNL     1       0.182  15.453  19.038  0.00  0.00    +0.000 A 
ATOM     12  C   UNL     1      -0.824  14.600  19.485  0.00  0.00    +0.000 A 
ATOM     13  C   UNL     1      -0.589  13.232  19.437  0.00  0.00    +0.000 A 
ATOM     14  C   UNL     1      -2.720  12.005  19.024  0.00  0.00    +0.000 C 
ATOM     15  C   UNL     1      -3.939  12.314  19.510  0.00  0.00    +0.000 C 
ATOM     16  O   UNL     1      -4.121  12.623  20.846  0.00  0.00    +0.000 OA
ENDROOT
BRANCH  15  17
ATOM     17  N   UNL     1      -5.104  12.376  18.785  0.00  0.00    +0.000 N 
ATOM     18  H   UNL     1      -5.777  13.091  19.044  0.00  0.00    +0.000 HD
ATOM     19  H   UNL     1      -4.961  12.281  17.783  0.00  0.00    +0.000 HD
ENDBRANCH  15  17
BRANCH   2  20
ATOM     20  C   UNL     1      -0.728  12.197  22.392  0.00  0.00    +0.000 C 
ATOM     21  O   UNL     1      -0.491  11.247  23.123  0.00  0.00    +0.000 OA
BRANCH  20  22
ATOM     22  O   UNL     1      -0.046  13.361  22.401  0.00  0.00    +0.000 OA
ATOM     23  C   UNL     1      -0.620  14.436  23.148  0.00  0.00    +0.000 C 
ENDBRANCH  20  22
ENDBRANCH   2  20
BRANCH  14  24
ATOM     24  C   UNL     1      -2.627  11.572  17.571  0.00  0.00    +0.000 C 
ATOM     25  N   UNL     1      -2.548  11.212  16.364  0.00  0.00    +0.000 NA
ENDBRANCH  14  24
BRANCH   1  26
ATOM     26  C   UNL     1      -3.599  12.639  23.183  0.00  0.00    +0.000 C 
BRANCH  26  27
ATOM     27  C   UNL     1      -4.979  13.274  23.240  0.00  0.00    +0.000 C 
ATOM     28  O   UNL     1      -5.246  14.446  23.025  0.00  0.00    +0.000 OA
BRANCH  27  30
ATOM     29  C   UNL     1      -7.257  12.723  23.570  0.00  0.00    +0.000 C 
ATOM     30  O   UNL     1      -5.893  12.299  23.539  0.00  0.00    +0.000 OA
ENDBRANCH  27  30
ENDBRANCH  26  27
ENDBRANCH   1  26
TORSDOF 7
ENDMDL
MODEL 5
REMARK VINA RESULT:      -5.4      3.257      6.264
REMARK  Name = 
REMARK  10 active torsions:
REMARK  status: ('A' for Active; 'I' for Inactive)
REMARK    1  A    between atoms: C_1  and  O_2
REMARK    2  A    between atoms: O_2  and  C_3
REMARK    3  A    between atoms: C_3  and  C_5
REMARK    4  A    between atoms: C_5  and  C_6
REMARK    5  A    between atoms: C_7  and  C_8
REMARK    6  A    between atoms: C_8  and  O_10
REMARK    7  A    between atoms: O_10  and  C_11
REMARK    8  A    between atoms: N_15  and  C_16
REMARK    9  A    between atoms: C_23  and  C_24
REMARK   10  A    between atoms: C_26  and  N_27
REMARK                            x       y       z     vdW  Elec       q    Type
REMARK                         _______ _______ _______ _____ _____    ______ ____
ROOT
ATOM      1  C   UNL     1       0.109  12.269  20.316  0.00  0.00    +0.000 C 
ATOM      2  C   UNL     1       0.403  13.483  20.842  0.00  0.00    +0.000 C 
ATOM      3  C   UNL     1       1.458  14.367  20.188  0.00  0.00    +0.000 C 
ATOM      4  C   UNL     1       2.465  14.971  21.218  0.00  0.00    +0.000 C 
ATOM      5  O   UNL     1       3.216  14.337  21.948  0.00  0.00    +0.000 OA
ATOM      6  N   UNL     1       2.349  16.369  21.132  0.00  0.00    +0.000 N 
ATOM      7  C   UNL     1       3.061  17.297  21.970  0.00  0.00    +0.000 C 
ATOM      8  C   UNL     1       1.380  16.750  20.194  0.00  0.00    +0.000 A 
ATOM      9  C   UNL     1       0.947  18.018  19.858  0.00  0.00    +0.000 A 
ATOM     10  C   UNL     1      -0.053  18.131  18.886  0.00  0.00    +0.000 A 
ATOM     11  C   UNL     1      -0.597  16.990  18.271  0.00  0.00    +0.000 A 
ATOM     12  C   UNL     1      -0.157  15.718  18.624  0.00  0.00    +0.000 A 
ATOM     13  C   UNL     1       0.833  15.615  19.593  0.00  0.00    +0.000 A 
ATOM     14  C   UNL     1       2.272  13.627  19.148  0.00  0.00    +0.000 C 
ATOM     15  C   UNL     1       1.874  12.431  18.671  0.00  0.00    +0.000 C 
ATOM     16  O   UNL     1       0.765  11.786  19.189  0.00  0.00    +0.000 OA
ENDROOT
BRANCH  15  17
ATOM     17  N   UNL     1       2.471  11.730  17.652  0.00  0.00    +0.000 N 
ATOM     18  H   UNL     1       3.294  12.141  17.223  0.00  0.00    +0.000 HD
ATOM     19  H   UNL     1       2.551  10.734  17.840  0.00  0.00    +0.000 HD
ENDBRANCH  15  17
BRANCH   2  20
ATOM     20  C   UNL     1      -0.412  14.005  21.977  0.00  0.00    +0.000 C 
ATOM     21  O   UNL     1      -0.076  13.942  23.150  0.00  0.00    +0.000 OA
BRANCH  20  22
ATOM     22  O   UNL     1      -1.566  14.549  21.538  0.00  0.00    +0.000 OA
ATOM     23  C   UNL     1      -2.011  15.735  22.202  0.00  0.00    +0.000 C 
ENDBRANCH  20  22
ENDBRANCH   2  20
BRANCH  14  24
ATOM     24  C   UNL     1       3.561  14.215  18.599  0.00  0.00    +0.000 C 
ATOM     25  N   UNL     1       4.632  14.702  18.142  0.00  0.00    +0.000 NA
ENDBRANCH  14  24
BRANCH   1  26
ATOM     26  C   UNL     1      -0.902  11.267  20.828  0.00  0.00    +0.000 C 
BRANCH  26  27
ATOM     27  C   UNL     1      -0.309  10.305  21.845  0.00  0.00    +0.000 C 
ATOM     28  O   UNL     1      -0.023  10.564  23.004  0.00  0.00    +0.000 OA
BRANCH  27  30
ATOM     29  C   UNL     1       1.120   8.490  21.330  0.00  0.00    +0.000 C 
ATOM     30  O   UNL     1      -0.181   9.075  21.257  0.00  0.00    +0.000 OA
ENDBRANCH  27  30
ENDBRANCH  26  27
ENDBRANCH   1  26
TORSDOF 7
ENDMDL
MODEL 6
REMARK VINA RESULT:      -5.4      3.272      6.741
REMARK  Name = 
REMARK  10 active torsions:
REMARK  status: ('A' for Active; 'I' for Inactive)
REMARK    1  A    between atoms: C_1  and  O_2
REMARK    2  A    between atoms: O_2  and  C_3
REMARK    3  A    between atoms: C_3  and  C_5
REMARK    4  A    between atoms: C_5  and  C_6
REMARK    5  A    between atoms: C_7  and  C_8
REMARK    6  A    between atoms: C_8  and  O_10
REMARK    7  A    between atoms: O_10  and  C_11
REMARK    8  A    between atoms: N_15  and  C_16
REMARK    9  A    between atoms: C_23  and  C_24
REMARK   10  A    between atoms: C_26  and  N_27
REMARK                            x       y       z     vdW  Elec       q    Type
REMARK                         _______ _______ _______ _____ _____    ______ ____
ROOT
ATOM      1  C   UNL     1      -4.430  12.057  19.454  0.00  0.00    +0.000 C 
ATOM      2  C   UNL     1      -5.450  12.412  20.272  0.00  0.00    +0.000 C 
ATOM      3  C   UNL     1      -5.259  13.523  21.299  0.00  0.00    +0.000 C 
ATOM      4  C   UNL     1      -5.799  13.137  22.713  0.00  0.00    +0.000 C 
ATOM      5  O   UNL     1      -5.407  12.207  23.406  0.00  0.00    +0.000 OA
ATOM      6  N   UNL     1      -6.803  14.067  23.035  0.00  0.00    +0.000 N 
ATOM      7  C   UNL     1      -7.602  14.020  24.231  0.00  0.00    +0.000 C 
ATOM      8  C   UNL     1      -6.999  14.992  22.002  0.00  0.00    +0.000 A 
ATOM      9  C   UNL     1      -7.916  16.022  21.920  0.00  0.00    +0.000 A 
ATOM     10  C   UNL     1      -7.916  16.808  20.762  0.00  0.00    +0.000 A 
ATOM     11  C   UNL     1      -7.012  16.556  19.717  0.00  0.00    +0.000 A 
ATOM     12  C   UNL     1      -6.097  15.510  19.808  0.00  0.00    +0.000 A 
ATOM     13  C   UNL     1      -6.107  14.733  20.960  0.00  0.00    +0.000 A 
ATOM     14  C   UNL     1      -3.807  13.914  21.467  0.00  0.00    +0.000 C 
ATOM     15  C   UNL     1      -2.872  13.527  20.577  0.00  0.00    +0.000 C 
ATOM     16  O   UNL     1      -3.184  12.670  19.537  0.00  0.00    +0.000 OA
ENDROOT
BRANCH  15  17
ATOM     17  N   UNL     1      -1.555  13.917  20.569  0.00  0.00    +0.000 N 
ATOM     18  H   UNL     1      -1.274  14.599  19.871  0.00  0.00    +0.000 HD
ATOM     19  H   UNL     1      -1.180  14.091  21.498  0.00  0.00    +0.000 HD
ENDBRANCH  15  17
BRANCH   2  20
ATOM     20  C   UNL     1      -6.799  11.811  20.063  0.00  0.00    +0.000 C 
ATOM     21  O   UNL     1      -7.633  12.249  19.284  0.00  0.00    +0.000 OA
BRANCH  20  22
ATOM     22  O   UNL     1      -6.977  10.728  20.848  0.00  0.00    +0.000 OA
ATOM     23  C   UNL     1      -7.420   9.532  20.202  0.00  0.00    +0.000 C 
ENDBRANCH  20  22
ENDBRANCH   2  20
BRANCH  14  24
ATOM     24  C   UNL     1      -3.356  14.768  22.640  0.00  0.00    +0.000 C 
ATOM     25  N   UNL     1      -2.981  15.477  23.614  0.00  0.00    +0.000 NA
ENDBRANCH  14  24
BRANCH   1  26
ATOM     26  C   UNL     1      -4.440  10.988  18.384  0.00  0.00    +0.000 C 
BRANCH  26  27
ATOM     27  C   UNL     1      -4.747  11.545  17.003  0.00  0.00    +0.000 C 
ATOM     28  O   UNL     1      -5.511  12.463  16.746  0.00  0.00    +0.000 OA
BRANCH  27  30
ATOM     29  C   UNL     1      -2.846  10.192  16.606  0.00  0.00    +0.000 C 
ATOM     30  O   UNL     1      -3.990  10.869  16.084  0.00  0.00    +0.000 OA
ENDBRANCH  27  30
ENDBRANCH  26  27
ENDBRANCH   1  26
TORSDOF 7
ENDMDL
MODEL 7
REMARK VINA RESULT:      -5.3     10.167     12.541
REMARK  Name = 
REMARK  10 active torsions:
REMARK  status: ('A' for Active; 'I' for Inactive)
REMARK    1  A    between atoms: C_1  and  O_2
REMARK    2  A    between atoms: O_2  and  C_3
REMARK    3  A    between atoms: C_3  and  C_5
REMARK    4  A    between atoms: C_5  and  C_6
REMARK    5  A    between atoms: C_7  and  C_8
REMARK    6  A    between atoms: C_8  and  O_10
REMARK    7  A    between atoms: O_10  and  C_11
REMARK    8  A    between atoms: N_15  and  C_16
REMARK    9  A    between atoms: C_23  and  C_24
REMARK   10  A    between atoms: C_26  and  N_27
REMARK                            x       y       z     vdW  Elec       q    Type
REMARK                         _______ _______ _______ _____ _____    ______ ____
ROOT
ATOM      1  C   UNL     1       9.992  12.142  18.915  0.00  0.00    +0.000 C 
ATOM      2  C   UNL     1       9.754  13.225  19.694  0.00  0.00    +0.000 C 
ATOM      3  C   UNL     1      10.037  14.627  19.165  0.00  0.00    +0.000 C 
ATOM      4  C   UNL     1      10.817  15.512  20.187  0.00  0.00    +0.000 C 
ATOM      5  O   UNL     1      11.932  15.282  20.637  0.00  0.00    +0.000 OA
ATOM      6  N   UNL     1      10.001  16.620  20.475  0.00  0.00    +0.000 N 
ATOM      7  C   UNL     1      10.328  17.645  21.431  0.00  0.00    +0.000 C 
ATOM      8  C   UNL     1       8.782  16.556  19.787  0.00  0.00    +0.000 A 
ATOM      9  C   UNL     1       7.708  17.422  19.839  0.00  0.00    +0.000 A 
ATOM     10  C   UNL     1       6.588  17.124  19.054  0.00  0.00    +0.000 A 
ATOM     11  C   UNL     1       6.560  15.980  18.239  0.00  0.00    +0.000 A 
ATOM     12  C   UNL     1       7.647  15.111  18.201  0.00  0.00    +0.000 A 
ATOM     13  C   UNL     1       8.752  15.412  18.987  0.00  0.00    +0.000 A 
ATOM     14  C   UNL     1      10.839  14.612  17.882  0.00  0.00    +0.000 C 
ATOM     15  C   UNL     1      10.993  13.480  17.167  0.00  0.00    +0.000 C 
ATOM     16  O   UNL     1      10.514  12.268  17.632  0.00  0.00    +0.000 OA
ENDROOT
BRANCH  15  17
ATOM     17  N   UNL     1      11.600  13.377  15.939  0.00  0.00    +0.000 N 
ATOM     18  H   UNL     1      12.524  13.788  15.839  0.00  0.00    +0.000 HD
ATOM     19  H   UNL     1      11.504  12.458  15.517  0.00  0.00    +0.000 HD
ENDBRANCH  15  17
BRANCH   2  20
ATOM     20  C   UNL     1       9.082  13.044  21.013  0.00  0.00    +0.000 C 
ATOM     21  O   UNL     1       9.660  12.717  22.039  0.00  0.00    +0.000 OA
BRANCH  20  22
ATOM     22  O   UNL     1       7.757  13.283  20.921  0.00  0.00    +0.000 OA
ATOM     23  C   UNL     1       7.171  14.058  21.969  0.00  0.00    +0.000 C 
ENDBRANCH  20  22
ENDBRANCH   2  20
BRANCH  14  24
ATOM     24  C   UNL     1      11.490  15.878  17.350  0.00  0.00    +0.000 C 
ATOM     25  N   UNL     1      12.031  16.930  16.910  0.00  0.00    +0.000 NA
ENDBRANCH  14  24
BRANCH   1  26
ATOM     26  C   UNL     1       9.772  10.688  19.271  0.00  0.00    +0.000 C 
BRANCH  26  27
ATOM     27  C   UNL     1       8.666  10.045  18.449  0.00  0.00    +0.000 C 
ATOM     28  O   UNL     1       7.882  10.624  17.712  0.00  0.00    +0.000 OA
BRANCH  27  30
ATOM     29  C   UNL     1       7.837   7.920  17.817  0.00  0.00    +0.000 C 
ATOM     30  O   UNL     1       8.714   8.690  18.641  0.00  0.00    +0.000 OA
ENDBRANCH  27  30
ENDBRANCH  26  27
ENDBRANCH   1  26
TORSDOF 7
ENDMDL
MODEL 8
REMARK VINA RESULT:      -5.3      2.649      5.927
REMARK  Name = 
REMARK  10 active torsions:
REMARK  status: ('A' for Active; 'I' for Inactive)
REMARK    1  A    between atoms: C_1  and  O_2
REMARK    2  A    between atoms: O_2  and  C_3
REMARK    3  A    between atoms: C_3  and  C_5
REMARK    4  A    between atoms: C_5  and  C_6
REMARK    5  A    between atoms: C_7  and  C_8
REMARK    6  A    between atoms: C_8  and  O_10
REMARK    7  A    between atoms: O_10  and  C_11
REMARK    8  A    between atoms: N_15  and  C_16
REMARK    9  A    between atoms: C_23  and  C_24
REMARK   10  A    between atoms: C_26  and  N_27
REMARK                            x       y       z     vdW  Elec       q    Type
REMARK                         _______ _______ _______ _____ _____    ______ ____
ROOT
ATOM      1  C   UNL     1       0.309  11.585  20.373  0.00  0.00    +0.000 C 
ATOM      2  C   UNL     1      -0.509  12.650  20.190  0.00  0.00    +0.000 C 
ATOM      3  C   UNL     1      -1.525  13.029  21.261  0.00  0.00    +0.000 C 
ATOM      4  C   UNL     1      -2.944  13.313  20.675  0.00  0.00    +0.000 C 
ATOM      5  O   UNL     1      -3.644  12.516  20.063  0.00  0.00    +0.000 OA
ATOM      6  N   UNL     1      -3.261  14.644  20.996  0.00  0.00    +0.000 N 
ATOM      7  C   UNL     1      -4.460  15.320  20.575  0.00  0.00    +0.000 C 
ATOM      8  C   UNL     1      -2.220  15.267  21.696  0.00  0.00    +0.000 A 
ATOM      9  C   UNL     1      -2.132  16.571  22.143  0.00  0.00    +0.000 A 
ATOM     10  C   UNL     1      -0.965  16.955  22.816  0.00  0.00    +0.000 A 
ATOM     11  C   UNL     1       0.080  16.041  23.030  0.00  0.00    +0.000 A 
ATOM     12  C   UNL     1      -0.018  14.732  22.567  0.00  0.00    +0.000 A 
ATOM     13  C   UNL     1      -1.177  14.361  21.897  0.00  0.00    +0.000 A 
ATOM     14  C   UNL     1      -1.683  11.956  22.316  0.00  0.00    +0.000 C 
ATOM     15  C   UNL     1      -0.794  10.949  22.428  0.00  0.00    +0.000 C 
ATOM     16  O   UNL     1       0.237  10.800  21.518  0.00  0.00    +0.000 OA
ENDROOT
BRANCH  15  17
ATOM     17  N   UNL     1      -0.778   9.993  23.414  0.00  0.00    +0.000 N 
ATOM     18  H   UNL     1      -1.407   9.203  23.307  0.00  0.00    +0.000 HD
ATOM     19  H   UNL     1       0.159   9.743  23.718  0.00  0.00    +0.000 HD
ENDBRANCH  15  17
BRANCH   2  20
ATOM     20  C   UNL     1      -0.310  13.530  19.002  0.00  0.00    +0.000 C 
ATOM     21  O   UNL     1      -0.812  13.329  17.906  0.00  0.00    +0.000 OA
BRANCH  20  22
ATOM     22  O   UNL     1       0.498  14.570  19.296  0.00  0.00    +0.000 OA
ATOM     23  C   UNL     1       0.101  15.852  18.803  0.00  0.00    +0.000 C 
ENDBRANCH  20  22
ENDBRANCH   2  20
BRANCH  14  24
ATOM     24  C   UNL     1      -2.847  11.983  23.293  0.00  0.00    +0.000 C 
ATOM     25  N   UNL     1      -3.814  12.006  24.104  0.00  0.00    +0.000 NA
ENDBRANCH  14  24
BRANCH   1  26
ATOM     26  C   UNL     1       1.369  11.068  19.425  0.00  0.00    +0.000 C 
BRANCH  26  27
ATOM     27  C   UNL     1       0.801  10.146  18.358  0.00  0.00    +0.000 C 
ATOM     28  O   UNL     1      -0.379   9.881  18.185  0.00  0.00    +0.000 OA
BRANCH  27  30
ATOM     29  C   UNL     1       2.260   8.349  17.865  0.00  0.00    +0.000 C 
ATOM     30  O   UNL     1       1.834   9.684  17.588  0.00  0.00    +0.000 OA
ENDBRANCH  27  30
ENDBRANCH  26  27
ENDBRANCH   1  26
TORSDOF 7
ENDMDL
MODEL 9
REMARK VINA RESULT:      -5.3      3.774      5.558
REMARK  Name = 
REMARK  10 active torsions:
REMARK  status: ('A' for Active; 'I' for Inactive)
REMARK    1  A    between atoms: C_1  and  O_2
REMARK    2  A    between atoms: O_2  and  C_3
REMARK    3  A    between atoms: C_3  and  C_5
REMARK    4  A    between atoms: C_5  and  C_6
REMARK    5  A    between atoms: C_7  and  C_8
REMARK    6  A    between atoms: C_8  and  O_10
REMARK    7  A    between atoms: O_10  and  C_11
REMARK    8  A    between atoms: N_15  and  C_16
REMARK    9  A    between atoms: C_23  and  C_24
REMARK   10  A    between atoms: C_26  and  N_27
REMARK                            x       y       z     vdW  Elec       q    Type
REMARK                         _______ _______ _______ _____ _____    ______ ____
ROOT
ATOM      1  C   UNL     1      -6.543  12.986  21.998  0.00  0.00    +0.000 C 
ATOM      2  C   UNL     1      -5.848  14.049  21.525  0.00  0.00    +0.000 C 
ATOM      3  C   UNL     1      -4.594  14.528  22.248  0.00  0.00    +0.000 C 
ATOM      4  C   UNL     1      -4.566  16.076  22.447  0.00  0.00    +0.000 C 
ATOM      5  O   UNL     1      -5.379  16.736  23.081  0.00  0.00    +0.000 OA
ATOM      6  N   UNL     1      -3.428  16.555  21.775  0.00  0.00    +0.000 N 
ATOM      7  C   UNL     1      -3.076  17.945  21.659  0.00  0.00    +0.000 C 
ATOM      8  C   UNL     1      -2.726  15.518  21.147  0.00  0.00    +0.000 A 
ATOM      9  C   UNL     1      -1.593  15.588  20.359  0.00  0.00    +0.000 A 
ATOM     10  C   UNL     1      -1.088  14.393  19.832  0.00  0.00    +0.000 A 
ATOM     11  C   UNL     1      -1.713  13.163  20.099  0.00  0.00    +0.000 A 
ATOM     12  C   UNL     1      -2.858  13.108  20.889  0.00  0.00    +0.000 A 
ATOM     13  C   UNL     1      -3.355  14.298  21.403  0.00  0.00    +0.000 A 
ATOM     14  C   UNL     1      -4.436  13.898  23.614  0.00  0.00    +0.000 C 
ATOM     15  C   UNL     1      -5.163  12.822  23.976  0.00  0.00    +0.000 C 
ATOM     16  O   UNL     1      -6.155  12.319  23.154  0.00  0.00    +0.000 OA
ENDROOT
BRANCH  15  17
ATOM     17  N   UNL     1      -5.020  12.107  25.140  0.00  0.00    +0.000 N 
ATOM     18  H   UNL     1      -4.434  11.277  25.109  0.00  0.00    +0.000 HD
ATOM     19  H   UNL     1      -4.873  12.691  25.958  0.00  0.00    +0.000 HD
ENDBRANCH  15  17
BRANCH   2  20
ATOM     20  C   UNL     1      -6.235  14.653  20.217  0.00  0.00    +0.000 C 
ATOM     21  O   UNL     1      -5.824  14.266  19.133  0.00  0.00    +0.000 OA
BRANCH  20  22
ATOM     22  O   UNL     1      -7.089  15.682  20.390  0.00  0.00    +0.000 OA
ATOM     23  C   UNL     1      -6.846  16.857  19.613  0.00  0.00    +0.000 C 
ENDBRANCH  20  22
ENDBRANCH   2  20
BRANCH  14  24
ATOM     24  C   UNL     1      -3.442  14.451  24.622  0.00  0.00    +0.000 C 
ATOM     25  N   UNL     1      -2.616  14.912  25.458  0.00  0.00    +0.000 NA
ENDBRANCH  14  24
BRANCH   1  26
ATOM     26  C   UNL     1      -7.799  12.377  21.414  0.00  0.00    +0.000 C 
BRANCH  26  27
ATOM     27  C   UNL     1      -7.518  11.122  20.602  0.00  0.00    +0.000 C 
ATOM     28  O   UNL     1      -7.360   9.995  21.043  0.00  0.00    +0.000 OA
BRANCH  27  30
ATOM     29  C   UNL     1      -6.507  10.812  18.484  0.00  0.00    +0.000 C 
ATOM     30  O   UNL     1      -7.505  11.458  19.275  0.00  0.00    +0.000 OA
ENDBRANCH  27  30
ENDBRANCH  26  27
ENDBRANCH   1  26
TORSDOF 7
ENDMDL
