MODEL 1
REMARK VINA RESULT:      -8.2      0.000      0.000
REMARK  Name = 
REMARK  8 active torsions:
REMARK  status: ('A' for Active; 'I' for Inactive)
REMARK    1  A    between atoms: C_1  and  C_2
REMARK    2  A    between atoms: C_4  and  O_5
REMARK    3  A    between atoms: O_5  and  C_6
REMARK    4  A    between atoms: C_6  and  C_7
REMARK    5  A    between atoms: C_15  and  C_16
REMARK    6  A    between atoms: C_16  and  N_17
REMARK    7  A    between atoms: C_19  and  C_20
REMARK    8  A    between atoms: C_20  and  O_22
REMARK                            x       y       z     vdW  Elec       q    Type
REMARK                         _______ _______ _______ _____ _____    ______ ____
ROOT
ATOM      1  C   UNL     1       5.030   6.752  15.929  0.00  0.00    +0.000 C 
ATOM      2  C   UNL     1       5.934   6.394  17.077  0.00  0.00    +0.000 A 
ATOM      3  C   UNL     1       6.937   7.315  17.434  0.00  0.00    +0.000 A 
ATOM      4  C   UNL     1       7.915   7.000  18.377  0.00  0.00    +0.000 A 
ATOM      5  C   UNL     1       7.925   5.729  18.939  0.00  0.00    +0.000 A 
ATOM      6  C   UNL     1       6.881   4.835  18.660  0.00  0.00    +0.000 A 
ATOM      7  C   UNL     1       5.830   5.180  17.789  0.00  0.00    +0.000 A 
ENDROOT
BRANCH   4   8
ATOM      8  O   UNL     1       8.726   8.038  18.744  0.00  0.00    +0.000 OA
BRANCH   8   9
ATOM      9  C   UNL     1       8.388   9.343  18.268  0.00  0.00    +0.000 C 
BRANCH   9  10
ATOM     10  C   UNL     1       9.275  10.459  18.772  0.00  0.00    +0.000 A 
ATOM     11  C   UNL     1      10.020  11.201  17.842  0.00  0.00    +0.000 A 
ATOM     12  C   UNL     1      10.933  12.165  18.270  0.00  0.00    +0.000 A 
ATOM     13  C   UNL     1      11.096  12.413  19.631  0.00  0.00    +0.000 A 
ATOM     14  C   UNL     1      10.308  11.736  20.560  0.00  0.00    +0.000 A 
ATOM     15  C   UNL     1       9.389  10.775  20.133  0.00  0.00    +0.000 A 
ENDBRANCH   9  10
ENDBRANCH   8   9
ENDBRANCH   4   8
BRANCH   7  16
ATOM     16  C   UNL     1       4.639   4.237  17.645  0.00  0.00    +0.000 C 
BRANCH  16  17
ATOM     17  N   UNL     1       3.733   4.229  18.828  0.00  0.00    +0.000 NA
ATOM     18  C   UNL     1       2.407   3.679  18.478  0.00  0.00    +0.000 C 
ATOM     19  C   UNL     1       2.555   2.613  19.578  0.00  0.00    +0.000 C 
ATOM     20  C   UNL     1       4.025   3.056  19.676  0.00  0.00    +0.000 C 
BRANCH  19  21
ATOM     21  C   UNL     1       1.647   2.709  20.821  0.00  0.00    +0.000 C 
ATOM     22  O   UNL     1       2.011   2.481  21.977  0.00  0.00    +0.000 OA
BRANCH  21  23
ATOM     23  O   UNL     1       0.363   3.093  20.569  0.00  0.00    +0.000 OA
ATOM     24  H   UNL     1       0.309   3.977  20.152  0.00  0.00    +0.000 HD
ENDBRANCH  21  23
ENDBRANCH  19  21
ENDBRANCH  16  17
ENDBRANCH   7  16
TORSDOF 7
ENDMDL
MODEL 2
REMARK VINA RESULT:      -8.1      0.791      1.321
REMARK  Name = 
REMARK  8 active torsions:
REMARK  status: ('A' for Active; 'I' for Inactive)
REMARK    1  A    between atoms: C_1  and  C_2
REMARK    2  A    between atoms: C_4  and  O_5
REMARK    3  A    between atoms: O_5  and  C_6
REMARK    4  A    between atoms: C_6  and  C_7
REMARK    5  A    between atoms: C_15  and  C_16
REMARK    6  A    between atoms: C_16  and  N_17
REMARK    7  A    between atoms: C_19  and  C_20
REMARK    8  A    between atoms: C_20  and  O_22
REMARK                            x       y       z     vdW  Elec       q    Type
REMARK                         _______ _______ _______ _____ _____    ______ ____
ROOT
ATOM      1  C   UNL     1       5.198   6.173  15.889  0.00  0.00    +0.000 C 
ATOM      2  C   UNL     1       6.159   6.399  17.024  0.00  0.00    +0.000 A 
ATOM      3  C   UNL     1       6.833   7.634  17.078  0.00  0.00    +0.000 A 
ATOM      4  C   UNL     1       7.853   7.870  17.999  0.00  0.00    +0.000 A 
ATOM      5  C   UNL     1       8.244   6.842  18.849  0.00  0.00    +0.000 A 
ATOM      6  C   UNL     1       7.522   5.640  18.867  0.00  0.00    +0.000 A 
ATOM      7  C   UNL     1       6.423   5.428  18.014  0.00  0.00    +0.000 A 
ENDROOT
BRANCH   4   8
ATOM      8  O   UNL     1       8.309   9.158  18.046  0.00  0.00    +0.000 OA
BRANCH   8   9
ATOM      9  C   UNL     1       8.974   9.581  19.238  0.00  0.00    +0.000 C 
BRANCH   9  10
ATOM     10  C   UNL     1       9.846  10.808  19.086  0.00  0.00    +0.000 A 
ATOM     11  C   UNL     1      10.269  11.482  20.241  0.00  0.00    +0.000 A 
ATOM     12  C   UNL     1      10.980  12.679  20.145  0.00  0.00    +0.000 A 
ATOM     13  C   UNL     1      11.294  13.203  18.894  0.00  0.00    +0.000 A 
ATOM     14  C   UNL     1      10.943  12.505  17.740  0.00  0.00    +0.000 A 
ATOM     15  C   UNL     1      10.237  11.303  17.834  0.00  0.00    +0.000 A 
ENDBRANCH   9  10
ENDBRANCH   8   9
ENDBRANCH   4   8
BRANCH   7  16
ATOM     16  C   UNL     1       5.575   4.171  18.185  0.00  0.00    +0.000 C 
BRANCH  16  17
ATOM     17  N   UNL     1       4.641   4.230  19.344  0.00  0.00    +0.000 NA
ATOM     18  C   UNL     1       3.247   4.419  18.894  0.00  0.00    +0.000 C 
ATOM     19  C   UNL     1       2.830   3.138  19.638  0.00  0.00    +0.000 C 
ATOM     20  C   UNL     1       4.333   2.864  19.812  0.00  0.00    +0.000 C 
BRANCH  19  21
ATOM     21  C   UNL     1       1.931   3.271  20.884  0.00  0.00    +0.000 C 
ATOM     22  O   UNL     1       2.344   3.448  22.033  0.00  0.00    +0.000 OA
BRANCH  21  23
ATOM     23  O   UNL     1       0.592   3.198  20.641  0.00  0.00    +0.000 OA
ATOM     24  H   UNL     1       0.061   3.688  21.302  0.00  0.00    +0.000 HD
ENDBRANCH  21  23
ENDBRANCH  19  21
ENDBRANCH  16  17
ENDBRANCH   7  16
TORSDOF 7
ENDMDL
MODEL 3
REMARK VINA RESULT:      -8.0      0.600      1.337
REMARK  Name = 
REMARK  8 active torsions:
REMARK  status: ('A' for Active; 'I' for Inactive)
REMARK    1  A    between atoms: C_1  and  C_2
REMARK    2  A    between atoms: C_4  and  O_5
REMARK    3  A    between atoms: O_5  and  C_6
REMARK    4  A    between atoms: C_6  and  C_7
REMARK    5  A    between atoms: C_15  and  C_16
REMARK    6  A    between atoms: C_16  and  N_17
REMARK    7  A    between atoms: C_19  and  C_20
REMARK    8  A    between atoms: C_20  and  O_22
REMARK                            x       y       z     vdW  Elec       q    Type
REMARK                         _______ _______ _______ _____ _____    ______ ____
ROOT
ATOM      1  C   UNL     1       4.980   6.749  15.720  0.00  0.00    +0.000 C 
ATOM      2  C   UNL     1       5.883   6.339  16.852  0.00  0.00    +0.000 A 
ATOM      3  C   UNL     1       6.840   7.270  17.298  0.00  0.00    +0.000 A 
ATOM      4  C   UNL     1       7.817   6.922  18.230  0.00  0.00    +0.000 A 
ATOM      5  C   UNL     1       7.875   5.612  18.690  0.00  0.00    +0.000 A 
ATOM      6  C   UNL     1       6.874   4.700  18.323  0.00  0.00    +0.000 A 
ATOM      7  C   UNL     1       5.822   5.069  17.464  0.00  0.00    +0.000 A 
ENDROOT
BRANCH   4   8
ATOM      8  O   UNL     1       8.578   7.961  18.692  0.00  0.00    +0.000 OA
BRANCH   8   9
ATOM      9  C   UNL     1       8.343   9.254  18.129  0.00  0.00    +0.000 C 
BRANCH   9  10
ATOM     10  C   UNL     1       9.233  10.356  18.661  0.00  0.00    +0.000 A 
ATOM     11  C   UNL     1       9.338  10.526  20.050  0.00  0.00    +0.000 A 
ATOM     12  C   UNL     1      10.057  11.597  20.582  0.00  0.00    +0.000 A 
ATOM     13  C   UNL     1      10.697  12.495  19.732  0.00  0.00    +0.000 A 
ATOM     14  C   UNL     1      10.662  12.294  18.354  0.00  0.00    +0.000 A 
ATOM     15  C   UNL     1       9.947  11.219  17.820  0.00  0.00    +0.000 A 
ENDBRANCH   9  10
ENDBRANCH   8   9
ENDBRANCH   4   8
BRANCH   7  16
ATOM     16  C   UNL     1       4.675   4.092  17.225  0.00  0.00    +0.000 C 
BRANCH  16  17
ATOM     17  N   UNL     1       3.519   4.285  18.145  0.00  0.00    +0.000 NA
ATOM     18  C   UNL     1       2.919   2.990  18.525  0.00  0.00    +0.000 C 
ATOM     19  C   UNL     1       3.141   3.319  20.012  0.00  0.00    +0.000 C 
ATOM     20  C   UNL     1       4.004   4.495  19.524  0.00  0.00    +0.000 C 
BRANCH  19  21
ATOM     21  C   UNL     1       1.907   3.596  20.895  0.00  0.00    +0.000 C 
ATOM     22  O   UNL     1       0.880   4.160  20.511  0.00  0.00    +0.000 OA
BRANCH  21  23
ATOM     23  O   UNL     1       2.005   3.150  22.179  0.00  0.00    +0.000 OA
ATOM     24  H   UNL     1       2.912   2.865  22.411  0.00  0.00    +0.000 HD
ENDBRANCH  21  23
ENDBRANCH  19  21
ENDBRANCH  16  17
ENDBRANCH   7  16
TORSDOF 7
ENDMDL
MODEL 4
REMARK VINA RESULT:      -7.7      1.042      1.513
REMARK  Name = 
REMARK  8 active torsions:
REMARK  status: ('A' for Active; 'I' for Inactive)
REMARK    1  A    between atoms: C_1  and  C_2
REMARK    2  A    between atoms: C_4  and  O_5
REMARK    3  A    between atoms: O_5  and  C_6
REMARK    4  A    between atoms: C_6  and  C_7
REMARK    5  A    between atoms: C_15  and  C_16
REMARK    6  A    between atoms: C_16  and  N_17
REMARK    7  A    between atoms: C_19  and  C_20
REMARK    8  A    between atoms: C_20  and  O_22
REMARK                            x       y       z     vdW  Elec       q    Type
REMARK                         _______ _______ _______ _____ _____    ______ ____
ROOT
ATOM      1  C   UNL     1       5.409   6.468  15.461  0.00  0.00    +0.000 C 
ATOM      2  C   UNL     1       6.205   6.203  16.709  0.00  0.00    +0.000 A 
ATOM      3  C   UNL     1       7.024   7.239  17.197  0.00  0.00    +0.000 A 
ATOM      4  C   UNL     1       7.913   7.031  18.252  0.00  0.00    +0.000 A 
ATOM      5  C   UNL     1       8.024   5.758  18.799  0.00  0.00    +0.000 A 
ATOM      6  C   UNL     1       7.151   4.743  18.383  0.00  0.00    +0.000 A 
ATOM      7  C   UNL     1       6.179   4.968  17.391  0.00  0.00    +0.000 A 
ENDROOT
BRANCH   4   8
ATOM      8  O   UNL     1       8.527   8.157  18.726  0.00  0.00    +0.000 OA
BRANCH   8   9
ATOM      9  C   UNL     1       8.346   9.370  17.990  0.00  0.00    +0.000 C 
BRANCH   9  10
ATOM     10  C   UNL     1       8.976  10.596  18.611  0.00  0.00    +0.000 A 
ATOM     11  C   UNL     1       9.535  10.492  19.894  0.00  0.00    +0.000 A 
ATOM     12  C   UNL     1      10.027  11.622  20.549  0.00  0.00    +0.000 A 
ATOM     13  C   UNL     1       9.986  12.863  19.919  0.00  0.00    +0.000 A 
ATOM     14  C   UNL     1       9.502  12.967  18.616  0.00  0.00    +0.000 A 
ATOM     15  C   UNL     1       9.014  11.836  17.957  0.00  0.00    +0.000 A 
ENDBRANCH   9  10
ENDBRANCH   8   9
ENDBRANCH   4   8
BRANCH   7  16
ATOM     16  C   UNL     1       5.151   3.881  17.091  0.00  0.00    +0.000 C 
BRANCH  16  17
ATOM     17  N   UNL     1       3.995   3.871  18.031  0.00  0.00    +0.000 NA
ATOM     18  C   UNL     1       2.715   3.958  17.299  0.00  0.00    +0.000 C 
ATOM     19  C   UNL     1       2.244   2.650  17.960  0.00  0.00    +0.000 C 
ATOM     20  C   UNL     1       3.695   2.486  18.445  0.00  0.00    +0.000 C 
BRANCH  19  21
ATOM     21  C   UNL     1       1.099   2.717  18.991  0.00  0.00    +0.000 C 
ATOM     22  O   UNL     1       0.026   2.119  18.889  0.00  0.00    +0.000 OA
BRANCH  21  23
ATOM     23  O   UNL     1       1.350   3.495  20.081  0.00  0.00    +0.000 OA
ATOM     24  H   UNL     1       2.281   3.795  20.125  0.00  0.00    +0.000 HD
ENDBRANCH  21  23
ENDBRANCH  19  21
ENDBRANCH  16  17
ENDBRANCH   7  16
TORSDOF 7
ENDMDL
MODEL 5
REMARK VINA RESULT:      -7.6      6.326      9.406
REMARK  Name = 
REMARK  8 active torsions:
REMARK  status: ('A' for Active; 'I' for Inactive)
REMARK    1  A    between atoms: C_1  and  C_2
REMARK    2  A    between atoms: C_4  and  O_5
REMARK    3  A    between atoms: O_5  and  C_6
REMARK    4  A    between atoms: C_6  and  C_7
REMARK    5  A    between atoms: C_15  and  C_16
REMARK    6  A    between atoms: C_16  and  N_17
REMARK    7  A    between atoms: C_19  and  C_20
REMARK    8  A    between atoms: C_20  and  O_22
REMARK                            x       y       z     vdW  Elec       q    Type
REMARK                         _______ _______ _______ _____ _____    ______ ____
ROOT
ATOM      1  C   UNL     1       0.752   8.770  21.738  0.00  0.00    +0.000 C 
ATOM      2  C   UNL     1       1.160   8.699  20.292  0.00  0.00    +0.000 A 
ATOM      3  C   UNL     1       2.087   7.708  19.919  0.00  0.00    +0.000 A 
ATOM      4  C   UNL     1       2.639   7.669  18.639  0.00  0.00    +0.000 A 
ATOM      5  C   UNL     1       2.300   8.663  17.728  0.00  0.00    +0.000 A 
ATOM      6  C   UNL     1       1.311   9.601  18.057  0.00  0.00    +0.000 A 
ATOM      7  C   UNL     1       0.671   9.587  19.310  0.00  0.00    +0.000 A 
ENDROOT
BRANCH   4   8
ATOM      8  O   UNL     1       3.400   6.566  18.366  0.00  0.00    +0.000 OA
BRANCH   8   9
ATOM      9  C   UNL     1       2.729   5.406  17.868  0.00  0.00    +0.000 C 
BRANCH   9  10
ATOM     10  C   UNL     1       2.292   4.415  18.923  0.00  0.00    +0.000 A 
ATOM     11  C   UNL     1       1.214   3.562  18.642  0.00  0.00    +0.000 A 
ATOM     12  C   UNL     1       0.707   2.711  19.624  0.00  0.00    +0.000 A 
ATOM     13  C   UNL     1       1.286   2.686  20.890  0.00  0.00    +0.000 A 
ATOM     14  C   UNL     1       2.403   3.475  21.159  0.00  0.00    +0.000 A 
ATOM     15  C   UNL     1       2.916   4.323  20.175  0.00  0.00    +0.000 A 
ENDBRANCH   9  10
ENDBRANCH   8   9
ENDBRANCH   4   8
BRANCH   7  16
ATOM     16  C   UNL     1      -0.508  10.525  19.558  0.00  0.00    +0.000 C 
BRANCH  16  17
ATOM     17  N   UNL     1      -1.262  10.880  18.323  0.00  0.00    +0.000 NA
ATOM     18  C   UNL     1      -2.398   9.959  18.111  0.00  0.00    +0.000 C 
ATOM     19  C   UNL     1      -3.368  11.154  18.094  0.00  0.00    +0.000 C 
ATOM     20  C   UNL     1      -2.186  11.998  18.602  0.00  0.00    +0.000 C 
BRANCH  19  21
ATOM     21  C   UNL     1      -4.053  11.526  16.763  0.00  0.00    +0.000 C 
ATOM     22  O   UNL     1      -5.246  11.812  16.643  0.00  0.00    +0.000 OA
BRANCH  21  23
ATOM     23  O   UNL     1      -3.231  11.542  15.676  0.00  0.00    +0.000 OA
ATOM     24  H   UNL     1      -3.671  11.212  14.866  0.00  0.00    +0.000 HD
ENDBRANCH  21  23
ENDBRANCH  19  21
ENDBRANCH  16  17
ENDBRANCH   7  16
TORSDOF 7
ENDMDL
MODEL 6
REMARK VINA RESULT:      -7.5      5.869      8.081
REMARK  Name = 
REMARK  8 active torsions:
REMARK  status: ('A' for Active; 'I' for Inactive)
REMARK    1  A    between atoms: C_1  and  C_2
REMARK    2  A    between atoms: C_4  and  O_5
REMARK    3  A    between atoms: O_5  and  C_6
REMARK    4  A    between atoms: C_6  and  C_7
REMARK    5  A    between atoms: C_15  and  C_16
REMARK    6  A    between atoms: C_16  and  N_17
REMARK    7  A    between atoms: C_19  and  C_20
REMARK    8  A    between atoms: C_20  and  O_22
REMARK                            x       y       z     vdW  Elec       q    Type
REMARK                         _______ _______ _______ _____ _____    ______ ____
ROOT
ATOM      1  C   UNL     1       0.857   9.090  21.607  0.00  0.00    +0.000 C 
ATOM      2  C   UNL     1       1.357   8.598  20.277  0.00  0.00    +0.000 A 
ATOM      3  C   UNL     1       1.885   7.294  20.215  0.00  0.00    +0.000 A 
ATOM      4  C   UNL     1       2.513   6.814  19.066  0.00  0.00    +0.000 A 
ATOM      5  C   UNL     1       2.662   7.663  17.975  0.00  0.00    +0.000 A 
ATOM      6  C   UNL     1       2.063   8.930  17.991  0.00  0.00    +0.000 A 
ATOM      7  C   UNL     1       1.337   9.387  19.107  0.00  0.00    +0.000 A 
ENDROOT
BRANCH   4   8
ATOM      8  O   UNL     1       2.835   5.486  19.090  0.00  0.00    +0.000 OA
BRANCH   8   9
ATOM      9  C   UNL     1       4.139   5.129  19.554  0.00  0.00    +0.000 C 
BRANCH   9  10
ATOM     10  C   UNL     1       5.155   4.857  18.467  0.00  0.00    +0.000 A 
ATOM     11  C   UNL     1       6.495   5.207  18.693  0.00  0.00    +0.000 A 
ATOM     12  C   UNL     1       7.444   5.076  17.679  0.00  0.00    +0.000 A 
ATOM     13  C   UNL     1       7.069   4.574  16.436  0.00  0.00    +0.000 A 
ATOM     14  C   UNL     1       5.757   4.154  16.223  0.00  0.00    +0.000 A 
ATOM     15  C   UNL     1       4.807   4.278  17.239  0.00  0.00    +0.000 A 
ENDBRANCH   9  10
ENDBRANCH   8   9
ENDBRANCH   4   8
BRANCH   7  16
ATOM     16  C   UNL     1       0.570  10.703  19.012  0.00  0.00    +0.000 C 
BRANCH  16  17
ATOM     17  N   UNL     1      -0.905  10.532  18.893  0.00  0.00    +0.000 NA
ATOM     18  C   UNL     1      -1.585  11.840  18.795  0.00  0.00    +0.000 C 
ATOM     19  C   UNL     1      -2.225  11.411  17.463  0.00  0.00    +0.000 C 
ATOM     20  C   UNL     1      -1.263  10.212  17.496  0.00  0.00    +0.000 C 
BRANCH  19  21
ATOM     21  C   UNL     1      -3.747  11.165  17.424  0.00  0.00    +0.000 C 
ATOM     22  O   UNL     1      -4.320  10.216  17.965  0.00  0.00    +0.000 OA
BRANCH  21  23
ATOM     23  O   UNL     1      -4.466  12.102  16.744  0.00  0.00    +0.000 OA
ATOM     24  H   UNL     1      -4.164  12.211  15.819  0.00  0.00    +0.000 HD
ENDBRANCH  21  23
ENDBRANCH  19  21
ENDBRANCH  16  17
ENDBRANCH   7  16
TORSDOF 7
ENDMDL
MODEL 7
REMARK VINA RESULT:      -7.5      6.356      9.506
REMARK  Name = 
REMARK  8 active torsions:
REMARK  status: ('A' for Active; 'I' for Inactive)
REMARK    1  A    between atoms: C_1  and  C_2
REMARK    2  A    between atoms: C_4  and  O_5
REMARK    3  A    between atoms: O_5  and  C_6
REMARK    4  A    between atoms: C_6  and  C_7
REMARK    5  A    between atoms: C_15  and  C_16
REMARK    6  A    between atoms: C_16  and  N_17
REMARK    7  A    between atoms: C_19  and  C_20
REMARK    8  A    between atoms: C_20  and  O_22
REMARK                            x       y       z     vdW  Elec       q    Type
REMARK                         _______ _______ _______ _____ _____    ______ ____
ROOT
ATOM      1  C   UNL     1       0.531   9.344  21.876  0.00  0.00    +0.000 C 
ATOM      2  C   UNL     1       0.996   9.040  20.478  0.00  0.00    +0.000 A 
ATOM      3  C   UNL     1       1.847   7.934  20.294  0.00  0.00    +0.000 A 
ATOM      4  C   UNL     1       2.451   7.673  19.065  0.00  0.00    +0.000 A 
ATOM      5  C   UNL     1       2.245   8.556  18.012  0.00  0.00    +0.000 A 
ATOM      6  C   UNL     1       1.331   9.610  18.155  0.00  0.00    +0.000 A 
ATOM      7  C   UNL     1       0.635   9.822  19.360  0.00  0.00    +0.000 A 
ENDROOT
BRANCH   4   8
ATOM      8  O   UNL     1       3.120   6.483  18.986  0.00  0.00    +0.000 OA
BRANCH   8   9
ATOM      9  C   UNL     1       2.932   5.695  17.808  0.00  0.00    +0.000 C 
BRANCH   9  10
ATOM     10  C   UNL     1       2.544   4.254  18.056  0.00  0.00    +0.000 A 
ATOM     11  C   UNL     1       1.330   3.985  18.707  0.00  0.00    +0.000 A 
ATOM     12  C   UNL     1       0.985   2.679  19.055  0.00  0.00    +0.000 A 
ATOM     13  C   UNL     1       1.838   1.625  18.735  0.00  0.00    +0.000 A 
ATOM     14  C   UNL     1       3.011   1.872  18.023  0.00  0.00    +0.000 A 
ATOM     15  C   UNL     1       3.355   3.178  17.669  0.00  0.00    +0.000 A 
ENDBRANCH   9  10
ENDBRANCH   8   9
ENDBRANCH   4   8
BRANCH   7  16
ATOM     16  C   UNL     1      -0.464  10.880  19.412  0.00  0.00    +0.000 C 
BRANCH  16  17
ATOM     17  N   UNL     1      -1.227  11.016  18.140  0.00  0.00    +0.000 NA
ATOM     18  C   UNL     1      -2.231   9.941  18.005  0.00  0.00    +0.000 C 
ATOM     19  C   UNL     1      -3.344  10.994  17.860  0.00  0.00    +0.000 C 
ATOM     20  C   UNL     1      -2.292  12.027  18.298  0.00  0.00    +0.000 C 
BRANCH  19  21
ATOM     21  C   UNL     1      -4.038  11.147  16.491  0.00  0.00    +0.000 C 
ATOM     22  O   UNL     1      -3.463  11.093  15.402  0.00  0.00    +0.000 OA
BRANCH  21  23
ATOM     23  O   UNL     1      -5.386  11.338  16.546  0.00  0.00    +0.000 OA
ATOM     24  H   UNL     1      -5.888  10.498  16.524  0.00  0.00    +0.000 HD
ENDBRANCH  21  23
ENDBRANCH  19  21
ENDBRANCH  16  17
ENDBRANCH   7  16
TORSDOF 7
ENDMDL
MODEL 8
REMARK VINA RESULT:      -7.4      6.040      9.235
REMARK  Name = 
REMARK  8 active torsions:
REMARK  status: ('A' for Active; 'I' for Inactive)
REMARK    1  A    between atoms: C_1  and  C_2
REMARK    2  A    between atoms: C_4  and  O_5
REMARK    3  A    between atoms: O_5  and  C_6
REMARK    4  A    between atoms: C_6  and  C_7
REMARK    5  A    between atoms: C_15  and  C_16
REMARK    6  A    between atoms: C_16  and  N_17
REMARK    7  A    between atoms: C_19  and  C_20
REMARK    8  A    between atoms: C_20  and  O_22
REMARK                            x       y       z     vdW  Elec       q    Type
REMARK                         _______ _______ _______ _____ _____    ______ ____
ROOT
ATOM      1  C   UNL     1       0.832   8.817  21.542  0.00  0.00    +0.000 C 
ATOM      2  C   UNL     1       1.309   8.727  20.119  0.00  0.00    +0.000 A 
ATOM      3  C   UNL     1       1.925   7.529  19.708  0.00  0.00    +0.000 A 
ATOM      4  C   UNL     1       2.536   7.413  18.460  0.00  0.00    +0.000 A 
ATOM      5  C   UNL     1       2.579   8.524  17.624  0.00  0.00    +0.000 A 
ATOM      6  C   UNL     1       1.893   9.693  17.984  0.00  0.00    +0.000 A 
ATOM      7  C   UNL     1       1.183   9.787  19.196  0.00  0.00    +0.000 A 
ENDROOT
BRANCH   4   8
ATOM      8  O   UNL     1       2.952   6.153  18.129  0.00  0.00    +0.000 OA
BRANCH   8   9
ATOM      9  C   UNL     1       1.981   5.105  18.169  0.00  0.00    +0.000 C 
BRANCH   9  10
ATOM     10  C   UNL     1       2.154   4.113  19.298  0.00  0.00    +0.000 A 
ATOM     11  C   UNL     1       1.067   3.864  20.149  0.00  0.00    +0.000 A 
ATOM     12  C   UNL     1       1.213   3.043  21.268  0.00  0.00    +0.000 A 
ATOM     13  C   UNL     1       2.442   2.445  21.535  0.00  0.00    +0.000 A 
ATOM     14  C   UNL     1       3.509   2.625  20.656  0.00  0.00    +0.000 A 
ATOM     15  C   UNL     1       3.362   3.442  19.533  0.00  0.00    +0.000 A 
ENDBRANCH   9  10
ENDBRANCH   8   9
ENDBRANCH   4   8
BRANCH   7  16
ATOM     16  C   UNL     1       0.323  11.018  19.465  0.00  0.00    +0.000 C 
BRANCH  16  17
ATOM     17  N   UNL     1      -1.132  10.797  19.228  0.00  0.00    +0.000 NA
ATOM     18  C   UNL     1      -1.828  12.075  18.971  0.00  0.00    +0.000 C 
ATOM     19  C   UNL     1      -2.335  11.531  17.623  0.00  0.00    +0.000 C 
ATOM     20  C   UNL     1      -1.354  10.365  17.833  0.00  0.00    +0.000 C 
BRANCH  19  21
ATOM     21  C   UNL     1      -3.842  11.240  17.469  0.00  0.00    +0.000 C 
ATOM     22  O   UNL     1      -4.434  10.296  17.997  0.00  0.00    +0.000 OA
BRANCH  21  23
ATOM     23  O   UNL     1      -4.525  12.130  16.694  0.00  0.00    +0.000 OA
ATOM     24  H   UNL     1      -4.422  11.953  15.737  0.00  0.00    +0.000 HD
ENDBRANCH  21  23
ENDBRANCH  19  21
ENDBRANCH  16  17
ENDBRANCH   7  16
TORSDOF 7
ENDMDL
MODEL 9
REMARK VINA RESULT:      -7.4      5.915      7.729
REMARK  Name = 
REMARK  8 active torsions:
REMARK  status: ('A' for Active; 'I' for Inactive)
REMARK    1  A    between atoms: C_1  and  C_2
REMARK    2  A    between atoms: C_4  and  O_5
REMARK    3  A    between atoms: O_5  and  C_6
REMARK    4  A    between atoms: C_6  and  C_7
REMARK    5  A    between atoms: C_15  and  C_16
REMARK    6  A    between atoms: C_16  and  N_17
REMARK    7  A    between atoms: C_19  and  C_20
REMARK    8  A    between atoms: C_20  and  O_22
REMARK                            x       y       z     vdW  Elec       q    Type
REMARK                         _______ _______ _______ _____ _____    ______ ____
ROOT
ATOM      1  C   UNL     1       0.800   9.142  21.590  0.00  0.00    +0.000 C 
ATOM      2  C   UNL     1       1.284   8.823  20.202  0.00  0.00    +0.000 A 
ATOM      3  C   UNL     1       1.900   7.575  19.991  0.00  0.00    +0.000 A 
ATOM      4  C   UNL     1       2.516   7.260  18.781  0.00  0.00    +0.000 A 
ATOM      5  C   UNL     1       2.564   8.222  17.778  0.00  0.00    +0.000 A 
ATOM      6  C   UNL     1       1.877   9.433  17.942  0.00  0.00    +0.000 A 
ATOM      7  C   UNL     1       1.163   9.721  19.120  0.00  0.00    +0.000 A 
ENDROOT
BRANCH   4   8
ATOM      8  O   UNL     1       2.932   5.963  18.659  0.00  0.00    +0.000 OA
BRANCH   8   9
ATOM      9  C   UNL     1       3.831   5.654  17.591  0.00  0.00    +0.000 C 
BRANCH   9  10
ATOM     10  C   UNL     1       5.290   5.925  17.882  0.00  0.00    +0.000 A 
ATOM     11  C   UNL     1       5.882   5.309  18.995  0.00  0.00    +0.000 A 
ATOM     12  C   UNL     1       7.192   5.616  19.364  0.00  0.00    +0.000 A 
ATOM     13  C   UNL     1       7.931   6.526  18.613  0.00  0.00    +0.000 A 
ATOM     14  C   UNL     1       7.380   7.089  17.463  0.00  0.00    +0.000 A 
ATOM     15  C   UNL     1       6.071   6.777  17.088  0.00  0.00    +0.000 A 
ENDBRANCH   9  10
ENDBRANCH   8   9
ENDBRANCH   4   8
BRANCH   7  16
ATOM     16  C   UNL     1       0.302  10.980  19.184  0.00  0.00    +0.000 C 
BRANCH  16  17
ATOM     17  N   UNL     1      -1.145  10.731  18.932  0.00  0.00    +0.000 NA
ATOM     18  C   UNL     1      -1.822  11.959  18.466  0.00  0.00    +0.000 C 
ATOM     19  C   UNL     1      -2.288  11.224  17.197  0.00  0.00    +0.000 C 
ATOM     20  C   UNL     1      -1.324  10.098  17.610  0.00  0.00    +0.000 C 
BRANCH  19  21
ATOM     21  C   UNL     1      -3.791  10.918  17.035  0.00  0.00    +0.000 C 
ATOM     22  O   UNL     1      -4.454  11.168  16.026  0.00  0.00    +0.000 OA
BRANCH  21  23
ATOM     23  O   UNL     1      -4.376  10.313  18.107  0.00  0.00    +0.000 OA
ATOM     24  H   UNL     1      -4.851   9.492  17.864  0.00  0.00    +0.000 HD
ENDBRANCH  21  23
ENDBRANCH  19  21
ENDBRANCH  16  17
ENDBRANCH   7  16
TORSDOF 7
ENDMDL
