MODEL 1
REMARK VINA RESULT:      -8.4      0.000      0.000
REMARK  Name = 
REMARK  6 active torsions:
REMARK  status: ('A' for Active; 'I' for Inactive)
REMARK    1  A    between atoms: C_1  and  C_2
REMARK    2  A    between atoms: C_2  and  N_3
REMARK    3  A    between atoms: C_2  and  C_23
REMARK    4  A    between atoms: C_4  and  C_6
REMARK    5  A    between atoms: C_6  and  C_7
REMARK    6  A    between atoms: C_6  and  N_8
REMARK                            x       y       z     vdW  Elec       q    Type
REMARK                         _______ _______ _______ _____ _____    ______ ____
ROOT
ATOM      1  N   UNL     1       0.869   9.101  19.937  0.00  0.00    +0.000 N 
ATOM      2  C   UNL     1       0.562  10.126  20.786  0.00  0.00    +0.000 C 
ATOM      3  O   UNL     1       1.185  10.317  21.828  0.00  0.00    +0.000 OA
ATOM      4  N   UNL     1      -0.503  10.903  20.407  0.00  0.00    +0.000 N 
ATOM      5  C   UNL     1      -1.086  12.010  21.182  0.00  0.00    +0.000 C 
ATOM      6  C   UNL     1      -2.385  12.378  20.421  0.00  0.00    +0.000 C 
ATOM      7  N   UNL     1      -2.258  11.593  19.206  0.00  0.00    +0.000 N 
ATOM      8  C   UNL     1      -1.190  10.757  19.236  0.00  0.00    +0.000 A 
ATOM      9  N   UNL     1      -1.091  10.020  18.166  0.00  0.00    +0.000 NA
ATOM     10  C   UNL     1      -2.190  10.405  17.416  0.00  0.00    +0.000 A 
ATOM     11  C   UNL     1      -2.602   9.941  16.159  0.00  0.00    +0.000 A 
ATOM     12  C   UNL     1      -3.784  10.449  15.610  0.00  0.00    +0.000 A 
ATOM     13  C   UNL     1      -4.541  11.404  16.296  0.00  0.00    +0.000 A 
ATOM     14  C   UNL     1      -4.144  11.899  17.546  0.00  0.00    +0.000 A 
ATOM     15  C   UNL     1      -2.958  11.384  18.073  0.00  0.00    +0.000 A 
ATOM     16  H   UNL     1       0.462   9.159  19.005  0.00  0.00    +0.000 HD
ENDROOT
BRANCH   1  17
ATOM     17  C   UNL     1       1.926   8.122  20.148  0.00  0.00    +0.000 C 
ATOM     18  C   UNL     1       1.420   7.024  21.078  0.00  0.00    +0.000 C 
BRANCH  17  20
ATOM     19  N   UNL     1       2.832   6.214  18.894  0.00  0.00    +0.000 N 
ATOM     20  C   UNL     1       2.407   7.522  18.810  0.00  0.00    +0.000 C 
ATOM     21  O   UNL     1       2.337   8.123  17.741  0.00  0.00    +0.000 OA
ATOM     22  H   UNL     1       2.773   5.746  19.796  0.00  0.00    +0.000 HD
BRANCH  19  24
ATOM     23  C   UNL     1       2.449   4.161  17.580  0.00  0.00    +0.000 C 
ATOM     24  C   UNL     1       3.241   5.464  17.721  0.00  0.00    +0.000 C 
BRANCH  24  25
ATOM     25  C   UNL     1       4.738   5.222  17.747  0.00  0.00    +0.000 A 
ATOM     26  C   UNL     1       5.372   4.684  16.616  0.00  0.00    +0.000 A 
ATOM     27  C   UNL     1       6.749   4.460  16.611  0.00  0.00    +0.000 A 
ATOM     28  C   UNL     1       7.511   4.774  17.733  0.00  0.00    +0.000 A 
ATOM     29  C   UNL     1       6.897   5.312  18.862  0.00  0.00    +0.000 A 
ATOM     30  C   UNL     1       5.519   5.537  18.870  0.00  0.00    +0.000 A 
ENDBRANCH  24  25
ENDBRANCH  19  24
ENDBRANCH  17  20
ENDBRANCH   1  17
TORSDOF 4
ENDMDL
MODEL 2
REMARK VINA RESULT:      -8.3      0.777      1.047
REMARK  Name = 
REMARK  6 active torsions:
REMARK  status: ('A' for Active; 'I' for Inactive)
REMARK    1  A    between atoms: C_1  and  C_2
REMARK    2  A    between atoms: C_2  and  N_3
REMARK    3  A    between atoms: C_2  and  C_23
REMARK    4  A    between atoms: C_4  and  C_6
REMARK    5  A    between atoms: C_6  and  C_7
REMARK    6  A    between atoms: C_6  and  N_8
REMARK                            x       y       z     vdW  Elec       q    Type
REMARK                         _______ _______ _______ _____ _____    ______ ____
ROOT
ATOM      1  N   UNL     1       0.631   9.244  20.069  0.00  0.00    +0.000 N 
ATOM      2  C   UNL     1       0.253  10.280  20.874  0.00  0.00    +0.000 C 
ATOM      3  O   UNL     1       0.808  10.507  21.948  0.00  0.00    +0.000 OA
ATOM      4  N   UNL     1      -0.801  11.027  20.413  0.00  0.00    +0.000 N 
ATOM      5  C   UNL     1      -1.451  12.138  21.126  0.00  0.00    +0.000 C 
ATOM      6  C   UNL     1      -2.709  12.463  20.280  0.00  0.00    +0.000 C 
ATOM      7  N   UNL     1      -2.492  11.654  19.093  0.00  0.00    +0.000 N 
ATOM      8  C   UNL     1      -1.413  10.841  19.207  0.00  0.00    +0.000 A 
ATOM      9  N   UNL     1      -1.235  10.083  18.162  0.00  0.00    +0.000 NA
ATOM     10  C   UNL     1      -2.293  10.430  17.338  0.00  0.00    +0.000 A 
ATOM     11  C   UNL     1      -2.619   9.929  16.070  0.00  0.00    +0.000 A 
ATOM     12  C   UNL     1      -3.774  10.402  15.438  0.00  0.00    +0.000 A 
ATOM     13  C   UNL     1      -4.589  11.355  16.055  0.00  0.00    +0.000 A 
ATOM     14  C   UNL     1      -4.279  11.885  17.315  0.00  0.00    +0.000 A 
ATOM     15  C   UNL     1      -3.118  11.406  17.924  0.00  0.00    +0.000 A 
ATOM     16  H   UNL     1       0.280   9.273  19.113  0.00  0.00    +0.000 HD
ENDROOT
BRANCH   1  17
ATOM     17  C   UNL     1       1.692   8.291  20.366  0.00  0.00    +0.000 C 
ATOM     18  C   UNL     1       1.105   7.098  21.114  0.00  0.00    +0.000 C 
BRANCH  17  20
ATOM     19  N   UNL     1       2.907   6.546  19.136  0.00  0.00    +0.000 N 
ATOM     20  C   UNL     1       2.404   7.828  19.077  0.00  0.00    +0.000 C 
ATOM     21  O   UNL     1       2.446   8.505  18.053  0.00  0.00    +0.000 OA
ATOM     22  H   UNL     1       2.751   6.007  19.985  0.00  0.00    +0.000 HD
BRANCH  19  24
ATOM     23  C   UNL     1       3.076   4.465  17.821  0.00  0.00    +0.000 C 
ATOM     24  C   UNL     1       3.535   5.917  17.989  0.00  0.00    +0.000 C 
BRANCH  24  25
ATOM     25  C   UNL     1       5.043   6.030  18.088  0.00  0.00    +0.000 A 
ATOM     26  C   UNL     1       5.720   5.378  19.132  0.00  0.00    +0.000 A 
ATOM     27  C   UNL     1       7.109   5.459  19.240  0.00  0.00    +0.000 A 
ATOM     28  C   UNL     1       7.840   6.186  18.305  0.00  0.00    +0.000 A 
ATOM     29  C   UNL     1       7.183   6.835  17.260  0.00  0.00    +0.000 A 
ATOM     30  C   UNL     1       5.794   6.756  17.150  0.00  0.00    +0.000 A 
ENDBRANCH  24  25
ENDBRANCH  19  24
ENDBRANCH  17  20
ENDBRANCH   1  17
TORSDOF 4
ENDMDL
MODEL 3
REMARK VINA RESULT:      -8.1      0.637      1.108
REMARK  Name = 
REMARK  6 active torsions:
REMARK  status: ('A' for Active; 'I' for Inactive)
REMARK    1  A    between atoms: C_1  and  C_2
REMARK    2  A    between atoms: C_2  and  N_3
REMARK    3  A    between atoms: C_2  and  C_23
REMARK    4  A    between atoms: C_4  and  C_6
REMARK    5  A    between atoms: C_6  and  C_7
REMARK    6  A    between atoms: C_6  and  N_8
REMARK                            x       y       z     vdW  Elec       q    Type
REMARK                         _______ _______ _______ _____ _____    ______ ____
ROOT
ATOM      1  N   UNL     1       1.189   8.593  20.146  0.00  0.00    +0.000 N 
ATOM      2  C   UNL     1       0.999   9.588  21.063  0.00  0.00    +0.000 C 
ATOM      3  O   UNL     1       1.673   9.665  22.089  0.00  0.00    +0.000 OA
ATOM      4  N   UNL     1      -0.009  10.471  20.771  0.00  0.00    +0.000 N 
ATOM      5  C   UNL     1      -0.469  11.574  21.629  0.00  0.00    +0.000 C 
ATOM      6  C   UNL     1      -1.758  12.092  20.943  0.00  0.00    +0.000 C 
ATOM      7  N   UNL     1      -1.741  11.372  19.681  0.00  0.00    +0.000 N 
ATOM      8  C   UNL     1      -0.747  10.451  19.622  0.00  0.00    +0.000 A 
ATOM      9  N   UNL     1      -0.748   9.773  18.509  0.00  0.00    +0.000 NA
ATOM     10  C   UNL     1      -1.836  10.291  17.826  0.00  0.00    +0.000 A 
ATOM     11  C   UNL     1      -2.330   9.938  16.563  0.00  0.00    +0.000 A 
ATOM     12  C   UNL     1      -3.483  10.573  16.091  0.00  0.00    +0.000 A 
ATOM     13  C   UNL     1      -4.132  11.545  16.859  0.00  0.00    +0.000 A 
ATOM     14  C   UNL     1      -3.651  11.930  18.118  0.00  0.00    +0.000 A 
ATOM     15  C   UNL     1      -2.495  11.289  18.567  0.00  0.00    +0.000 A 
ATOM     16  H   UNL     1       0.755   8.740  19.236  0.00  0.00    +0.000 HD
ENDROOT
BRANCH   1  17
ATOM     17  C   UNL     1       2.166   7.520  20.260  0.00  0.00    +0.000 C 
ATOM     18  C   UNL     1       1.578   6.386  21.094  0.00  0.00    +0.000 C 
BRANCH  17  20
ATOM     19  N   UNL     1       2.841   5.650  18.817  0.00  0.00    +0.000 N 
ATOM     20  C   UNL     1       2.594   7.004  18.869  0.00  0.00    +0.000 C 
ATOM     21  O   UNL     1       2.628   7.718  17.870  0.00  0.00    +0.000 OA
ATOM     22  H   UNL     1       2.700   5.102  19.663  0.00  0.00    +0.000 HD
BRANCH  19  24
ATOM     23  C   UNL     1       2.486   3.615  17.467  0.00  0.00    +0.000 C 
ATOM     24  C   UNL     1       3.174   4.979  17.574  0.00  0.00    +0.000 C 
BRANCH  24  25
ATOM     25  C   UNL     1       4.679   4.872  17.421  0.00  0.00    +0.000 A 
ATOM     26  C   UNL     1       5.501   4.999  18.552  0.00  0.00    +0.000 A 
ATOM     27  C   UNL     1       6.888   4.896  18.440  0.00  0.00    +0.000 A 
ATOM     28  C   UNL     1       7.471   4.659  17.198  0.00  0.00    +0.000 A 
ATOM     29  C   UNL     1       6.668   4.526  16.066  0.00  0.00    +0.000 A 
ATOM     30  C   UNL     1       5.280   4.630  16.176  0.00  0.00    +0.000 A 
ENDBRANCH  24  25
ENDBRANCH  19  24
ENDBRANCH  17  20
ENDBRANCH   1  17
TORSDOF 4
ENDMDL
MODEL 4
REMARK VINA RESULT:      -8.0      5.499      7.766
REMARK  Name = 
REMARK  6 active torsions:
REMARK  status: ('A' for Active; 'I' for Inactive)
REMARK    1  A    between atoms: C_1  and  C_2
REMARK    2  A    between atoms: C_2  and  N_3
REMARK    3  A    between atoms: C_2  and  C_23
REMARK    4  A    between atoms: C_4  and  C_6
REMARK    5  A    between atoms: C_6  and  C_7
REMARK    6  A    between atoms: C_6  and  N_8
REMARK                            x       y       z     vdW  Elec       q    Type
REMARK                         _______ _______ _______ _____ _____    ______ ____
ROOT
ATOM      1  N   UNL     1      -5.393  13.116  21.504  0.00  0.00    +0.000 N 
ATOM      2  C   UNL     1      -6.321  13.627  20.641  0.00  0.00    +0.000 C 
ATOM      3  O   UNL     1      -7.246  14.339  21.027  0.00  0.00    +0.000 OA
ATOM      4  N   UNL     1      -6.161  13.268  19.327  0.00  0.00    +0.000 N 
ATOM      5  C   UNL     1      -7.066  13.613  18.220  0.00  0.00    +0.000 C 
ATOM      6  C   UNL     1      -6.556  12.772  17.022  0.00  0.00    +0.000 C 
ATOM      7  N   UNL     1      -5.308  12.236  17.537  0.00  0.00    +0.000 N 
ATOM      8  C   UNL     1      -5.121  12.522  18.850  0.00  0.00    +0.000 A 
ATOM      9  N   UNL     1      -4.024  12.011  19.331  0.00  0.00    +0.000 NA
ATOM     10  C   UNL     1      -3.490  11.335  18.246  0.00  0.00    +0.000 A 
ATOM     11  C   UNL     1      -2.307  10.587  18.172  0.00  0.00    +0.000 A 
ATOM     12  C   UNL     1      -1.990   9.948  16.969  0.00  0.00    +0.000 A 
ATOM     13  C   UNL     1      -2.831  10.054  15.857  0.00  0.00    +0.000 A 
ATOM     14  C   UNL     1      -4.011  10.809  15.896  0.00  0.00    +0.000 A 
ATOM     15  C   UNL     1      -4.306  11.444  17.105  0.00  0.00    +0.000 A 
ATOM     16  H   UNL     1      -4.549  12.740  21.076  0.00  0.00    +0.000 HD
ENDROOT
BRANCH   1  17
ATOM     17  C   UNL     1      -5.382  13.323  22.946  0.00  0.00    +0.000 C 
ATOM     18  C   UNL     1      -6.495  12.498  23.584  0.00  0.00    +0.000 C 
BRANCH  17  20
ATOM     19  N   UNL     1      -2.937  13.213  22.733  0.00  0.00    +0.000 N 
ATOM     20  C   UNL     1      -4.013  12.949  23.552  0.00  0.00    +0.000 C 
ATOM     21  O   UNL     1      -3.878  12.533  24.700  0.00  0.00    +0.000 OA
ATOM     22  H   UNL     1      -3.115  13.648  21.830  0.00  0.00    +0.000 HD
BRANCH  19  24
ATOM     23  C   UNL     1      -0.691  14.224  22.888  0.00  0.00    +0.000 C 
ATOM     24  C   UNL     1      -1.570  13.002  23.171  0.00  0.00    +0.000 C 
BRANCH  24  25
ATOM     25  C   UNL     1      -1.007  11.739  22.547  0.00  0.00    +0.000 A 
ATOM     26  C   UNL     1      -0.406  11.802  21.279  0.00  0.00    +0.000 A 
ATOM     27  C   UNL     1       0.127  10.656  20.687  0.00  0.00    +0.000 A 
ATOM     28  C   UNL     1       0.073   9.436  21.355  0.00  0.00    +0.000 A 
ATOM     29  C   UNL     1      -0.517   9.359  22.616  0.00  0.00    +0.000 A 
ATOM     30  C   UNL     1      -1.051  10.503  23.210  0.00  0.00    +0.000 A 
ENDBRANCH  24  25
ENDBRANCH  19  24
ENDBRANCH  17  20
ENDBRANCH   1  17
TORSDOF 4
ENDMDL
MODEL 5
REMARK VINA RESULT:      -7.9      2.996      4.122
REMARK  Name = 
REMARK  6 active torsions:
REMARK  status: ('A' for Active; 'I' for Inactive)
REMARK    1  A    between atoms: C_1  and  C_2
REMARK    2  A    between atoms: C_2  and  N_3
REMARK    3  A    between atoms: C_2  and  C_23
REMARK    4  A    between atoms: C_4  and  C_6
REMARK    5  A    between atoms: C_6  and  C_7
REMARK    6  A    between atoms: C_6  and  N_8
REMARK                            x       y       z     vdW  Elec       q    Type
REMARK                         _______ _______ _______ _____ _____    ______ ____
ROOT
ATOM      1  N   UNL     1       2.152   6.829  19.996  0.00  0.00    +0.000 N 
ATOM      2  C   UNL     1       2.359   7.625  18.905  0.00  0.00    +0.000 C 
ATOM      3  O   UNL     1       3.013   7.244  17.936  0.00  0.00    +0.000 OA
ATOM      4  N   UNL     1       1.811   8.879  18.982  0.00  0.00    +0.000 N 
ATOM      5  C   UNL     1       1.960   9.951  17.984  0.00  0.00    +0.000 C 
ATOM      6  C   UNL     1       1.355  11.205  18.665  0.00  0.00    +0.000 C 
ATOM      7  N   UNL     1       0.747  10.640  19.857  0.00  0.00    +0.000 N 
ATOM      8  C   UNL     1       1.037   9.325  20.015  0.00  0.00    +0.000 A 
ATOM      9  N   UNL     1       0.529   8.820  21.103  0.00  0.00    +0.000 NA
ATOM     10  C   UNL     1      -0.111   9.903  21.684  0.00  0.00    +0.000 A 
ATOM     11  C   UNL     1      -0.832   9.957  22.885  0.00  0.00    +0.000 A 
ATOM     12  C   UNL     1      -1.357  11.186  23.298  0.00  0.00    +0.000 A 
ATOM     13  C   UNL     1      -1.171  12.339  22.531  0.00  0.00    +0.000 A 
ATOM     14  C   UNL     1      -0.469  12.312  21.318  0.00  0.00    +0.000 A 
ATOM     15  C   UNL     1       0.040  11.074  20.920  0.00  0.00    +0.000 A 
ATOM     16  H   UNL     1       1.419   7.133  20.635  0.00  0.00    +0.000 HD
ENDROOT
BRANCH   1  17
ATOM     17  C   UNL     1       2.670   5.478  20.163  0.00  0.00    +0.000 C 
ATOM     18  C   UNL     1       1.904   4.777  21.280  0.00  0.00    +0.000 C 
BRANCH  17  20
ATOM     19  N   UNL     1       3.784   4.377  18.271  0.00  0.00    +0.000 N 
ATOM     20  C   UNL     1       2.569   4.675  18.848  0.00  0.00    +0.000 C 
ATOM     21  O   UNL     1       1.506   4.259  18.395  0.00  0.00    +0.000 OA
ATOM     22  H   UNL     1       4.631   4.671  18.752  0.00  0.00    +0.000 HD
BRANCH  19  24
ATOM     23  C   UNL     1       3.939   2.067  17.416  0.00  0.00    +0.000 C 
ATOM     24  C   UNL     1       3.884   3.559  17.076  0.00  0.00    +0.000 C 
BRANCH  24  25
ATOM     25  C   UNL     1       5.068   3.997  16.237  0.00  0.00    +0.000 A 
ATOM     26  C   UNL     1       6.229   4.468  16.870  0.00  0.00    +0.000 A 
ATOM     27  C   UNL     1       7.337   4.869  16.121  0.00  0.00    +0.000 A 
ATOM     28  C   UNL     1       7.301   4.799  14.732  0.00  0.00    +0.000 A 
ATOM     29  C   UNL     1       6.157   4.330  14.088  0.00  0.00    +0.000 A 
ATOM     30  C   UNL     1       5.048   3.929  14.835  0.00  0.00    +0.000 A 
ENDBRANCH  24  25
ENDBRANCH  19  24
ENDBRANCH  17  20
ENDBRANCH   1  17
TORSDOF 4
ENDMDL
MODEL 6
REMARK VINA RESULT:      -7.8      3.047      4.787
REMARK  Name = 
REMARK  6 active torsions:
REMARK  status: ('A' for Active; 'I' for Inactive)
REMARK    1  A    between atoms: C_1  and  C_2
REMARK    2  A    between atoms: C_2  and  N_3
REMARK    3  A    between atoms: C_2  and  C_23
REMARK    4  A    between atoms: C_4  and  C_6
REMARK    5  A    between atoms: C_6  and  C_7
REMARK    6  A    between atoms: C_6  and  N_8
REMARK                            x       y       z     vdW  Elec       q    Type
REMARK                         _______ _______ _______ _____ _____    ______ ____
ROOT
ATOM      1  N   UNL     1       2.859   6.359  19.402  0.00  0.00    +0.000 N 
ATOM      2  C   UNL     1       2.865   7.241  18.358  0.00  0.00    +0.000 C 
ATOM      3  O   UNL     1       3.452   7.000  17.305  0.00  0.00    +0.000 OA
ATOM      4  N   UNL     1       2.194   8.416  18.580  0.00  0.00    +0.000 N 
ATOM      5  C   UNL     1       2.122   9.559  17.654  0.00  0.00    +0.000 C 
ATOM      6  C   UNL     1       1.458  10.689  18.481  0.00  0.00    +0.000 C 
ATOM      7  N   UNL     1       1.042   9.984  19.681  0.00  0.00    +0.000 N 
ATOM      8  C   UNL     1       1.488   8.704  19.713  0.00  0.00    +0.000 A 
ATOM      9  N   UNL     1       1.154   8.076  20.804  0.00  0.00    +0.000 NA
ATOM     10  C   UNL     1       0.464   9.039  21.522  0.00  0.00    +0.000 A 
ATOM     11  C   UNL     1      -0.131   8.933  22.787  0.00  0.00    +0.000 A 
ATOM     12  C   UNL     1      -0.740  10.065  23.339  0.00  0.00    +0.000 A 
ATOM     13  C   UNL     1      -0.762  11.279  22.645  0.00  0.00    +0.000 A 
ATOM     14  C   UNL     1      -0.190  11.409  21.372  0.00  0.00    +0.000 A 
ATOM     15  C   UNL     1       0.406  10.266  20.836  0.00  0.00    +0.000 A 
ATOM     16  H   UNL     1       2.168   6.536  20.129  0.00  0.00    +0.000 HD
ENDROOT
BRANCH   1  17
ATOM     17  C   UNL     1       3.536   5.070  19.417  0.00  0.00    +0.000 C 
ATOM     18  C   UNL     1       2.798   4.101  18.499  0.00  0.00    +0.000 C 
BRANCH  17  20
ATOM     19  N   UNL     1       5.238   4.970  17.649  0.00  0.00    +0.000 N 
ATOM     20  C   UNL     1       5.012   5.209  18.987  0.00  0.00    +0.000 C 
ATOM     21  O   UNL     1       5.900   5.584  19.748  0.00  0.00    +0.000 OA
ATOM     22  H   UNL     1       4.439   4.757  17.057  0.00  0.00    +0.000 HD
BRANCH  19  24
ATOM     23  C   UNL     1       7.102   6.545  17.282  0.00  0.00    +0.000 C 
ATOM     24  C   UNL     1       6.551   5.134  17.054  0.00  0.00    +0.000 C 
BRANCH  24  25
ATOM     25  C   UNL     1       6.510   4.770  15.582  0.00  0.00    +0.000 A 
ATOM     26  C   UNL     1       7.552   5.186  14.737  0.00  0.00    +0.000 A 
ATOM     27  C   UNL     1       7.543   4.856  13.381  0.00  0.00    +0.000 A 
ATOM     28  C   UNL     1       6.498   4.103  12.854  0.00  0.00    +0.000 A 
ATOM     29  C   UNL     1       5.459   3.679  13.681  0.00  0.00    +0.000 A 
ATOM     30  C   UNL     1       5.466   4.008  15.038  0.00  0.00    +0.000 A 
ENDBRANCH  24  25
ENDBRANCH  19  24
ENDBRANCH  17  20
ENDBRANCH   1  17
TORSDOF 4
ENDMDL
MODEL 7
REMARK VINA RESULT:      -7.8      3.068      4.632
REMARK  Name = 
REMARK  6 active torsions:
REMARK  status: ('A' for Active; 'I' for Inactive)
REMARK    1  A    between atoms: C_1  and  C_2
REMARK    2  A    between atoms: C_2  and  N_3
REMARK    3  A    between atoms: C_2  and  C_23
REMARK    4  A    between atoms: C_4  and  C_6
REMARK    5  A    between atoms: C_6  and  C_7
REMARK    6  A    between atoms: C_6  and  N_8
REMARK                            x       y       z     vdW  Elec       q    Type
REMARK                         _______ _______ _______ _____ _____    ______ ____
ROOT
ATOM      1  N   UNL     1       2.490   5.853  20.142  0.00  0.00    +0.000 N 
ATOM      2  C   UNL     1       2.550   6.478  18.928  0.00  0.00    +0.000 C 
ATOM      3  O   UNL     1       3.088   5.957  17.954  0.00  0.00    +0.000 OA
ATOM      4  N   UNL     1       1.994   7.731  18.885  0.00  0.00    +0.000 N 
ATOM      5  C   UNL     1       2.003   8.643  17.730  0.00  0.00    +0.000 C 
ATOM      6  C   UNL     1       1.464   9.985  18.287  0.00  0.00    +0.000 C 
ATOM      7  N   UNL     1       1.014   9.604  19.615  0.00  0.00    +0.000 N 
ATOM      8  C   UNL     1       1.344   8.326  19.929  0.00  0.00    +0.000 A 
ATOM      9  N   UNL     1       0.980   7.989  21.133  0.00  0.00    +0.000 NA
ATOM     10  C   UNL     1       0.397   9.146  21.621  0.00  0.00    +0.000 A 
ATOM     11  C   UNL     1      -0.175   9.378  22.880  0.00  0.00    +0.000 A 
ATOM     12  C   UNL     1      -0.667  10.656  23.169  0.00  0.00    +0.000 A 
ATOM     13  C   UNL     1      -0.595  11.683  22.223  0.00  0.00    +0.000 A 
ATOM     14  C   UNL     1      -0.044  11.475  20.951  0.00  0.00    +0.000 A 
ATOM     15  C   UNL     1       0.434  10.191  20.681  0.00  0.00    +0.000 A 
ATOM     16  H   UNL     1       1.835   6.250  20.814  0.00  0.00    +0.000 HD
ENDROOT
BRANCH   1  17
ATOM     17  C   UNL     1       3.048   4.542  20.441  0.00  0.00    +0.000 C 
ATOM     18  C   UNL     1       1.951   3.488  20.328  0.00  0.00    +0.000 C 
BRANCH  17  20
ATOM     19  N   UNL     1       5.252   5.121  19.525  0.00  0.00    +0.000 N 
ATOM     20  C   UNL     1       4.222   4.206  19.497  0.00  0.00    +0.000 C 
ATOM     21  O   UNL     1       4.281   3.169  18.841  0.00  0.00    +0.000 OA
ATOM     22  H   UNL     1       5.179   5.909  20.165  0.00  0.00    +0.000 HD
BRANCH  19  24
ATOM     23  C   UNL     1       7.594   5.848  19.247  0.00  0.00    +0.000 C 
ATOM     24  C   UNL     1       6.472   4.924  18.764  0.00  0.00    +0.000 C 
BRANCH  24  25
ATOM     25  C   UNL     1       6.199   5.086  17.281  0.00  0.00    +0.000 A 
ATOM     26  C   UNL     1       6.443   4.011  16.411  0.00  0.00    +0.000 A 
ATOM     27  C   UNL     1       6.192   4.131  15.043  0.00  0.00    +0.000 A 
ATOM     28  C   UNL     1       5.689   5.323  14.529  0.00  0.00    +0.000 A 
ATOM     29  C   UNL     1       5.437   6.397  15.381  0.00  0.00    +0.000 A 
ATOM     30  C   UNL     1       5.688   6.279  16.749  0.00  0.00    +0.000 A 
ENDBRANCH  24  25
ENDBRANCH  19  24
ENDBRANCH  17  20
ENDBRANCH   1  17
TORSDOF 4
ENDMDL
MODEL 8
REMARK VINA RESULT:      -7.7      2.068      4.476
REMARK  Name = 
REMARK  6 active torsions:
REMARK  status: ('A' for Active; 'I' for Inactive)
REMARK    1  A    between atoms: C_1  and  C_2
REMARK    2  A    between atoms: C_2  and  N_3
REMARK    3  A    between atoms: C_2  and  C_23
REMARK    4  A    between atoms: C_4  and  C_6
REMARK    5  A    between atoms: C_6  and  C_7
REMARK    6  A    between atoms: C_6  and  N_8
REMARK                            x       y       z     vdW  Elec       q    Type
REMARK                         _______ _______ _______ _____ _____    ______ ____
ROOT
ATOM      1  N   UNL     1       0.078  10.143  18.563  0.00  0.00    +0.000 N 
ATOM      2  C   UNL     1      -1.154  10.160  17.971  0.00  0.00    +0.000 C 
ATOM      3  O   UNL     1      -1.379   9.561  16.921  0.00  0.00    +0.000 OA
ATOM      4  N   UNL     1      -2.104  10.909  18.616  0.00  0.00    +0.000 N 
ATOM      5  C   UNL     1      -3.476  11.158  18.145  0.00  0.00    +0.000 C 
ATOM      6  C   UNL     1      -4.030  12.238  19.108  0.00  0.00    +0.000 C 
ATOM      7  N   UNL     1      -2.994  12.299  20.124  0.00  0.00    +0.000 N 
ATOM      8  C   UNL     1      -1.910  11.547  19.808  0.00  0.00    +0.000 A 
ATOM      9  N   UNL     1      -0.959  11.628  20.694  0.00  0.00    +0.000 NA
ATOM     10  C   UNL     1      -1.474  12.512  21.628  0.00  0.00    +0.000 A 
ATOM     11  C   UNL     1      -0.885  12.984  22.809  0.00  0.00    +0.000 A 
ATOM     12  C   UNL     1      -1.583  13.919  23.581  0.00  0.00    +0.000 A 
ATOM     13  C   UNL     1      -2.844  14.376  23.187  0.00  0.00    +0.000 A 
ATOM     14  C   UNL     1      -3.464  13.909  22.020  0.00  0.00    +0.000 A 
ATOM     15  C   UNL     1      -2.754  12.970  21.269  0.00  0.00    +0.000 A 
ATOM     16  H   UNL     1       0.110  10.464  19.530  0.00  0.00    +0.000 HD
ENDROOT
BRANCH   1  17
ATOM     17  C   UNL     1       1.251   9.455  18.044  0.00  0.00    +0.000 C 
ATOM     18  C   UNL     1       2.351  10.473  17.762  0.00  0.00    +0.000 C 
BRANCH  17  20
ATOM     19  N   UNL     1       2.554   7.414  18.462  0.00  0.00    +0.000 N 
ATOM     20  C   UNL     1       1.749   8.378  19.031  0.00  0.00    +0.000 C 
ATOM     21  O   UNL     1       1.524   8.417  20.238  0.00  0.00    +0.000 OA
ATOM     22  H   UNL     1       2.777   7.497  17.472  0.00  0.00    +0.000 HD
BRANCH  19  24
ATOM     23  C   UNL     1       4.589   6.050  18.753  0.00  0.00    +0.000 C 
ATOM     24  C   UNL     1       3.178   6.371  19.254  0.00  0.00    +0.000 C 
BRANCH  24  25
ATOM     25  C   UNL     1       2.293   5.141  19.294  0.00  0.00    +0.000 A 
ATOM     26  C   UNL     1       2.041   4.431  18.109  0.00  0.00    +0.000 A 
ATOM     27  C   UNL     1       1.238   3.290  18.120  0.00  0.00    +0.000 A 
ATOM     28  C   UNL     1       0.681   2.840  19.314  0.00  0.00    +0.000 A 
ATOM     29  C   UNL     1       0.926   3.531  20.499  0.00  0.00    +0.000 A 
ATOM     30  C   UNL     1       1.729   4.673  20.491  0.00  0.00    +0.000 A 
ENDBRANCH  24  25
ENDBRANCH  19  24
ENDBRANCH  17  20
ENDBRANCH   1  17
TORSDOF 4
ENDMDL
MODEL 9
REMARK VINA RESULT:      -7.5      2.264      9.082
REMARK  Name = 
REMARK  6 active torsions:
REMARK  status: ('A' for Active; 'I' for Inactive)
REMARK    1  A    between atoms: C_1  and  C_2
REMARK    2  A    between atoms: C_2  and  N_3
REMARK    3  A    between atoms: C_2  and  C_23
REMARK    4  A    between atoms: C_4  and  C_6
REMARK    5  A    between atoms: C_6  and  C_7
REMARK    6  A    between atoms: C_6  and  N_8
REMARK                            x       y       z     vdW  Elec       q    Type
REMARK                         _______ _______ _______ _____ _____    ______ ____
ROOT
ATOM      1  N   UNL     1       1.231   9.222  18.808  0.00  0.00    +0.000 N 
ATOM      2  C   UNL     1       2.306   9.147  17.969  0.00  0.00    +0.000 C 
ATOM      3  O   UNL     1       2.634  10.085  17.245  0.00  0.00    +0.000 OA
ATOM      4  N   UNL     1       2.971   7.947  17.973  0.00  0.00    +0.000 N 
ATOM      5  C   UNL     1       4.102   7.582  17.106  0.00  0.00    +0.000 C 
ATOM      6  C   UNL     1       4.310   6.066  17.352  0.00  0.00    +0.000 C 
ATOM      7  N   UNL     1       3.427   5.818  18.479  0.00  0.00    +0.000 N 
ATOM      8  C   UNL     1       2.671   6.899  18.796  0.00  0.00    +0.000 A 
ATOM      9  N   UNL     1       1.848   6.673  19.779  0.00  0.00    +0.000 NA
ATOM     10  C   UNL     1       2.088   5.345  20.091  0.00  0.00    +0.000 A 
ATOM     11  C   UNL     1       1.483   4.551  21.076  0.00  0.00    +0.000 A 
ATOM     12  C   UNL     1       1.857   3.207  21.178  0.00  0.00    +0.000 A 
ATOM     13  C   UNL     1       2.817   2.663  20.320  0.00  0.00    +0.000 A 
ATOM     14  C   UNL     1       3.451   3.437  19.338  0.00  0.00    +0.000 A 
ATOM     15  C   UNL     1       3.068   4.777  19.258  0.00  0.00    +0.000 A 
ATOM     16  H   UNL     1       1.175   8.500  19.525  0.00  0.00    +0.000 HD
ENDROOT
BRANCH   1  17
ATOM     17  C   UNL     1       0.349  10.373  18.944  0.00  0.00    +0.000 C 
ATOM     18  C   UNL     1      -1.061   9.984  18.512  0.00  0.00    +0.000 C 
BRANCH  17  20
ATOM     19  N   UNL     1      -0.908  11.019  20.953  0.00  0.00    +0.000 N 
ATOM     20  C   UNL     1       0.346  10.905  20.393  0.00  0.00    +0.000 C 
ATOM     21  O   UNL     1       1.373  11.127  21.030  0.00  0.00    +0.000 OA
ATOM     22  H   UNL     1      -1.710  10.727  20.400  0.00  0.00    +0.000 HD
BRANCH  19  24
ATOM     23  C   UNL     1      -0.911  10.250  23.298  0.00  0.00    +0.000 C 
ATOM     24  C   UNL     1      -1.097  11.425  22.333  0.00  0.00    +0.000 C 
BRANCH  24  25
ATOM     25  C   UNL     1      -2.446  12.096  22.505  0.00  0.00    +0.000 A 
ATOM     26  C   UNL     1      -3.108  12.617  21.382  0.00  0.00    +0.000 A 
ATOM     27  C   UNL     1      -4.354  13.231  21.511  0.00  0.00    +0.000 A 
ATOM     28  C   UNL     1      -4.958  13.327  22.762  0.00  0.00    +0.000 A 
ATOM     29  C   UNL     1      -4.315  12.810  23.886  0.00  0.00    +0.000 A 
ATOM     30  C   UNL     1      -3.068  12.196  23.759  0.00  0.00    +0.000 A 
ENDBRANCH  24  25
ENDBRANCH  19  24
ENDBRANCH  17  20
ENDBRANCH   1  17
TORSDOF 4
ENDMDL
