MODEL 1
REMARK VINA RESULT:      -7.3      0.000      0.000
REMARK  Name = 
REMARK  8 active torsions:
REMARK  status: ('A' for Active; 'I' for Inactive)
REMARK    1  A    between atoms: C_1  and  O_2
REMARK    2  A    between atoms: O_2  and  C_3
REMARK    3  A    between atoms: C_8  and  C_9
REMARK    4  A    between atoms: N_11  and  C_12
REMARK    5  A    between atoms: C_12  and  C_13
REMARK    6  A    between atoms: C_13  and  S_14
REMARK    7  A    between atoms: S_14  and  C_15
REMARK    8  A    between atoms: C_16  and  C_17
REMARK                            x       y       z     vdW  Elec       q    Type
REMARK                         _______ _______ _______ _____ _____    ______ ____
ROOT
ATOM      1  C   UNL     1       2.208   7.197  20.094  0.00  0.00    +0.000 C 
ENDROOT
BRANCH   1   4
ATOM      2  C   UNL     1       1.031   9.312  19.550  0.00  0.00    +0.000 C 
ATOM      3  O   UNL     1       1.641   9.383  18.481  0.00  0.00    +0.000 OA
ATOM      4  N   UNL     1       1.273   8.272  20.419  0.00  0.00    +0.000 N 
ATOM      5  H   UNL     1       0.642   8.174  21.209  0.00  0.00    +0.000 HD
BRANCH   2  11
ATOM      6  C   UNL     1      -0.235  10.896  21.159  0.00  0.00    +0.000 A 
ATOM      7  C   UNL     1      -1.261  11.850  21.305  0.00  0.00    +0.000 A 
ATOM      8  C   UNL     1      -2.003  12.296  20.208  0.00  0.00    +0.000 A 
ATOM      9  C   UNL     1      -1.741  11.789  18.945  0.00  0.00    +0.000 A 
ATOM     10  C   UNL     1      -0.747  10.825  18.788  0.00  0.00    +0.000 A 
ATOM     11  C   UNL     1       0.015  10.357  19.885  0.00  0.00    +0.000 A 
BRANCH   6  13
ATOM     12  C   UNL     1      -0.230   9.750  23.234  0.00  0.00    +0.000 C 
ATOM     13  O   UNL     1       0.505  10.447  22.227  0.00  0.00    +0.000 OA
ENDBRANCH   6  13
ENDBRANCH   2  11
ENDBRANCH   1   4
BRANCH   1  14
ATOM     14  C   UNL     1       1.757   5.829  20.621  0.00  0.00    +0.000 C 
BRANCH  14  15
ATOM     15  S   UNL     1       1.891   4.505  19.424  0.00  0.00    +0.000 S 
BRANCH  15  16
ATOM     16  C   UNL     1       3.518   4.334  18.845  0.00  0.00    +0.000 A 
ATOM     17  C   UNL     1       4.091   3.071  18.883  0.00  0.00    +0.000 A 
ATOM     18  C   UNL     1       3.712   1.959  17.942  0.00  0.00    +0.000 C 
ATOM     19  N   UNL     1       5.403   3.402  19.150  0.00  0.00    +0.000 N 
ATOM     20  C   UNL     1       5.680   4.351  18.186  0.00  0.00    +0.000 A 
ATOM     21  C   UNL     1       6.861   4.619  17.493  0.00  0.00    +0.000 A 
ATOM     22  C   UNL     1       6.757   5.514  16.432  0.00  0.00    +0.000 A 
ATOM     23  C   UNL     1       5.555   6.182  16.177  0.00  0.00    +0.000 A 
ATOM     24  C   UNL     1       4.412   5.995  16.981  0.00  0.00    +0.000 A 
ATOM     25  C   UNL     1       4.442   5.000  17.975  0.00  0.00    +0.000 A 
ATOM     26  H   UNL     1       6.086   2.826  19.624  0.00  0.00    +0.000 HD
ENDBRANCH  15  16
ENDBRANCH  14  15
ENDBRANCH   1  14
TORSDOF 6
ENDMDL
MODEL 2
REMARK VINA RESULT:      -7.3      2.486      4.072
REMARK  Name = 
REMARK  8 active torsions:
REMARK  status: ('A' for Active; 'I' for Inactive)
REMARK    1  A    between atoms: C_1  and  O_2
REMARK    2  A    between atoms: O_2  and  C_3
REMARK    3  A    between atoms: C_8  and  C_9
REMARK    4  A    between atoms: N_11  and  C_12
REMARK    5  A    between atoms: C_12  and  C_13
REMARK    6  A    between atoms: C_13  and  S_14
REMARK    7  A    between atoms: S_14  and  C_15
REMARK    8  A    between atoms: C_16  and  C_17
REMARK                            x       y       z     vdW  Elec       q    Type
REMARK                         _______ _______ _______ _____ _____    ______ ____
ROOT
ATOM      1  C   UNL     1       1.791   9.720  18.344  0.00  0.00    +0.000 C 
ENDROOT
BRANCH   1   4
ATOM      2  C   UNL     1      -0.616  10.303  18.490  0.00  0.00    +0.000 C 
ATOM      3  O   UNL     1      -0.533  10.360  19.717  0.00  0.00    +0.000 OA
ATOM      4  N   UNL     1       0.486   9.966  17.735  0.00  0.00    +0.000 N 
ATOM      5  H   UNL     1       0.410  10.081  16.728  0.00  0.00    +0.000 HD
BRANCH   2  11
ATOM      6  C   UNL     1      -2.913  11.485  18.316  0.00  0.00    +0.000 A 
ATOM      7  C   UNL     1      -4.104  11.638  17.581  0.00  0.00    +0.000 A 
ATOM      8  C   UNL     1      -4.299  10.980  16.363  0.00  0.00    +0.000 A 
ATOM      9  C   UNL     1      -3.311  10.146  15.863  0.00  0.00    +0.000 A 
ATOM     10  C   UNL     1      -2.138   9.963  16.592  0.00  0.00    +0.000 A 
ATOM     11  C   UNL     1      -1.919  10.618  17.827  0.00  0.00    +0.000 A 
BRANCH   6  13
ATOM     12  C   UNL     1      -3.863  12.712  20.107  0.00  0.00    +0.000 C 
ATOM     13  O   UNL     1      -2.704  12.126  19.514  0.00  0.00    +0.000 OA
ENDBRANCH   6  13
ENDBRANCH   2  11
ENDBRANCH   1   4
BRANCH   1  14
ATOM     14  C   UNL     1       1.957   8.281  18.847  0.00  0.00    +0.000 C 
BRANCH  14  15
ATOM     15  S   UNL     1       3.087   7.292  17.874  0.00  0.00    +0.000 S 
BRANCH  15  16
ATOM     16  C   UNL     1       2.797   5.595  18.092  0.00  0.00    +0.000 A 
ATOM     17  C   UNL     1       3.641   4.704  17.442  0.00  0.00    +0.000 A 
ATOM     18  C   UNL     1       5.061   4.446  17.868  0.00  0.00    +0.000 C 
ATOM     19  N   UNL     1       2.754   3.686  17.160  0.00  0.00    +0.000 N 
ATOM     20  C   UNL     1       2.165   3.445  18.384  0.00  0.00    +0.000 A 
ATOM     21  C   UNL     1       1.713   2.253  18.952  0.00  0.00    +0.000 A 
ATOM     22  C   UNL     1       1.352   2.315  20.295  0.00  0.00    +0.000 A 
ATOM     23  C   UNL     1       1.337   3.536  20.974  0.00  0.00    +0.000 A 
ATOM     24  C   UNL     1       1.667   4.750  20.336  0.00  0.00    +0.000 A 
ATOM     25  C   UNL     1       2.166   4.707  19.022  0.00  0.00    +0.000 A 
ATOM     26  H   UNL     1       2.819   3.026  16.395  0.00  0.00    +0.000 HD
ENDBRANCH  15  16
ENDBRANCH  14  15
ENDBRANCH   1  14
TORSDOF 6
ENDMDL
MODEL 3
REMARK VINA RESULT:      -7.3      2.763      8.498
REMARK  Name = 
REMARK  8 active torsions:
REMARK  status: ('A' for Active; 'I' for Inactive)
REMARK    1  A    between atoms: C_1  and  O_2
REMARK    2  A    between atoms: O_2  and  C_3
REMARK    3  A    between atoms: C_8  and  C_9
REMARK    4  A    between atoms: N_11  and  C_12
REMARK    5  A    between atoms: C_12  and  C_13
REMARK    6  A    between atoms: C_13  and  S_14
REMARK    7  A    between atoms: S_14  and  C_15
REMARK    8  A    between atoms: C_16  and  C_17
REMARK                            x       y       z     vdW  Elec       q    Type
REMARK                         _______ _______ _______ _____ _____    ______ ____
ROOT
ATOM      1  C   UNL     1       1.708   8.098  21.090  0.00  0.00    +0.000 C 
ENDROOT
BRANCH   1   4
ATOM      2  C   UNL     1       2.352   6.454  19.348  0.00  0.00    +0.000 C 
ATOM      3  O   UNL     1       2.832   7.358  18.663  0.00  0.00    +0.000 OA
ATOM      4  N   UNL     1       1.753   6.739  20.555  0.00  0.00    +0.000 N 
ATOM      5  H   UNL     1       1.512   5.952  21.149  0.00  0.00    +0.000 HD
BRANCH   2  11
ATOM      6  C   UNL     1       1.886   3.910  19.488  0.00  0.00    +0.000 A 
ATOM      7  C   UNL     1       2.102   2.642  18.916  0.00  0.00    +0.000 A 
ATOM      8  C   UNL     1       2.821   2.492  17.727  0.00  0.00    +0.000 A 
ATOM      9  C   UNL     1       3.349   3.606  17.093  0.00  0.00    +0.000 A 
ATOM     10  C   UNL     1       3.167   4.865  17.661  0.00  0.00    +0.000 A 
ATOM     11  C   UNL     1       2.443   5.041  18.865  0.00  0.00    +0.000 A 
BRANCH   6  13
ATOM     12  C   UNL     1       1.413   3.088  21.660  0.00  0.00    +0.000 C 
ATOM     13  O   UNL     1       1.180   4.077  20.656  0.00  0.00    +0.000 OA
ENDBRANCH   6  13
ENDBRANCH   2  11
ENDBRANCH   1   4
BRANCH   1  14
ATOM     14  C   UNL     1       0.424   8.849  20.715  0.00  0.00    +0.000 C 
BRANCH  14  15
ATOM     15  S   UNL     1       0.677  10.201  19.570  0.00  0.00    +0.000 S 
BRANCH  15  16
ATOM     16  C   UNL     1      -0.832  10.840  18.998  0.00  0.00    +0.000 A 
ATOM     17  C   UNL     1      -1.115  12.173  19.265  0.00  0.00    +0.000 A 
ATOM     18  C   UNL     1      -0.441  13.320  18.562  0.00  0.00    +0.000 C 
ATOM     19  N   UNL     1      -2.482  12.107  19.434  0.00  0.00    +0.000 N 
ATOM     20  C   UNL     1      -2.898  11.437  18.302  0.00  0.00    +0.000 A 
ATOM     21  C   UNL     1      -4.062  11.576  17.545  0.00  0.00    +0.000 A 
ATOM     22  C   UNL     1      -4.089  10.888  16.335  0.00  0.00    +0.000 A 
ATOM     23  C   UNL     1      -3.050  10.021  15.983  0.00  0.00    +0.000 A 
ATOM     24  C   UNL     1      -1.948   9.793  16.833  0.00  0.00    +0.000 A 
ATOM     25  C   UNL     1      -1.822  10.572  17.997  0.00  0.00    +0.000 A 
ATOM     26  H   UNL     1      -3.050  12.729  19.995  0.00  0.00    +0.000 HD
ENDBRANCH  15  16
ENDBRANCH  14  15
ENDBRANCH   1  14
TORSDOF 6
ENDMDL
MODEL 4
REMARK VINA RESULT:      -7.3      2.120      3.821
REMARK  Name = 
REMARK  8 active torsions:
REMARK  status: ('A' for Active; 'I' for Inactive)
REMARK    1  A    between atoms: C_1  and  O_2
REMARK    2  A    between atoms: O_2  and  C_3
REMARK    3  A    between atoms: C_8  and  C_9
REMARK    4  A    between atoms: N_11  and  C_12
REMARK    5  A    between atoms: C_12  and  C_13
REMARK    6  A    between atoms: C_13  and  S_14
REMARK    7  A    between atoms: S_14  and  C_15
REMARK    8  A    between atoms: C_16  and  C_17
REMARK                            x       y       z     vdW  Elec       q    Type
REMARK                         _______ _______ _______ _____ _____    ______ ____
ROOT
ATOM      1  C   UNL     1       2.075   9.493  17.809  0.00  0.00    +0.000 C 
ENDROOT
BRANCH   1   4
ATOM      2  C   UNL     1       0.070  10.344  18.996  0.00  0.00    +0.000 C 
ATOM      3  O   UNL     1       0.636  10.183  20.078  0.00  0.00    +0.000 OA
ATOM      4  N   UNL     1       0.706  10.002  17.823  0.00  0.00    +0.000 N 
ATOM      5  H   UNL     1       0.264  10.294  16.956  0.00  0.00    +0.000 HD
BRANCH   2  11
ATOM      6  C   UNL     1      -2.308  10.654  18.021  0.00  0.00    +0.000 A 
ATOM      7  C   UNL     1      -3.541  11.327  18.120  0.00  0.00    +0.000 A 
ATOM      8  C   UNL     1      -3.799  12.227  19.158  0.00  0.00    +0.000 A 
ATOM      9  C   UNL     1      -2.825  12.481  20.110  0.00  0.00    +0.000 A 
ATOM     10  C   UNL     1      -1.590  11.843  20.011  0.00  0.00    +0.000 A 
ATOM     11  C   UNL     1      -1.306  10.929  18.968  0.00  0.00    +0.000 A 
BRANCH   6  13
ATOM     12  C   UNL     1      -2.813   9.935  15.820  0.00  0.00    +0.000 C 
ATOM     13  O   UNL     1      -2.038   9.765  17.007  0.00  0.00    +0.000 OA
ENDBRANCH   6  13
ENDBRANCH   2  11
ENDBRANCH   1   4
BRANCH   1  14
ATOM     14  C   UNL     1       2.163   7.996  18.133  0.00  0.00    +0.000 C 
BRANCH  14  15
ATOM     15  S   UNL     1       3.699   7.229  17.630  0.00  0.00    +0.000 S 
BRANCH  15  16
ATOM     16  C   UNL     1       3.596   5.498  17.697  0.00  0.00    +0.000 A 
ATOM     17  C   UNL     1       4.780   4.775  17.637  0.00  0.00    +0.000 A 
ATOM     18  C   UNL     1       5.760   4.693  18.777  0.00  0.00    +0.000 C 
ATOM     19  N   UNL     1       4.355   3.662  16.942  0.00  0.00    +0.000 N 
ATOM     20  C   UNL     1       3.239   3.267  17.651  0.00  0.00    +0.000 A 
ATOM     21  C   UNL     1       2.737   1.990  17.910  0.00  0.00    +0.000 A 
ATOM     22  C   UNL     1       1.699   1.919  18.835  0.00  0.00    +0.000 A 
ATOM     23  C   UNL     1       1.133   3.082  19.364  0.00  0.00    +0.000 A 
ATOM     24  C   UNL     1       1.570   4.367  18.979  0.00  0.00    +0.000 A 
ATOM     25  C   UNL     1       2.703   4.474  18.153  0.00  0.00    +0.000 A 
ATOM     26  H   UNL     1       4.924   3.066  16.354  0.00  0.00    +0.000 HD
ENDBRANCH  15  16
ENDBRANCH  14  15
ENDBRANCH   1  14
TORSDOF 6
ENDMDL
MODEL 5
REMARK VINA RESULT:      -7.2      1.758      3.355
REMARK  Name = 
REMARK  8 active torsions:
REMARK  status: ('A' for Active; 'I' for Inactive)
REMARK    1  A    between atoms: C_1  and  O_2
REMARK    2  A    between atoms: O_2  and  C_3
REMARK    3  A    between atoms: C_8  and  C_9
REMARK    4  A    between atoms: N_11  and  C_12
REMARK    5  A    between atoms: C_12  and  C_13
REMARK    6  A    between atoms: C_13  and  S_14
REMARK    7  A    between atoms: S_14  and  C_15
REMARK    8  A    between atoms: C_16  and  C_17
REMARK                            x       y       z     vdW  Elec       q    Type
REMARK                         _______ _______ _______ _____ _____    ______ ____
ROOT
ATOM      1  C   UNL     1       2.345   7.857  19.027  0.00  0.00    +0.000 C 
ENDROOT
BRANCH   1   4
ATOM      2  C   UNL     1       0.791   8.815  20.707  0.00  0.00    +0.000 C 
ATOM      3  O   UNL     1       0.958   7.832  21.430  0.00  0.00    +0.000 OA
ATOM      4  N   UNL     1       1.423   8.894  19.486  0.00  0.00    +0.000 N 
ATOM      5  H   UNL     1       1.377   9.783  18.998  0.00  0.00    +0.000 HD
BRANCH   2  11
ATOM      6  C   UNL     1      -0.667  10.928  20.372  0.00  0.00    +0.000 A 
ATOM      7  C   UNL     1      -1.444  11.930  20.985  0.00  0.00    +0.000 A 
ATOM      8  C   UNL     1      -1.684  11.927  22.361  0.00  0.00    +0.000 A 
ATOM      9  C   UNL     1      -1.142  10.928  23.154  0.00  0.00    +0.000 A 
ATOM     10  C   UNL     1      -0.349   9.944  22.567  0.00  0.00    +0.000 A 
ATOM     11  C   UNL     1      -0.091   9.928  21.176  0.00  0.00    +0.000 A 
BRANCH   6  13
ATOM     12  C   UNL     1      -1.395  11.582  18.213  0.00  0.00    +0.000 C 
ATOM     13  O   UNL     1      -0.423  10.916  19.019  0.00  0.00    +0.000 OA
ENDBRANCH   6  13
ENDBRANCH   2  11
ENDBRANCH   1   4
BRANCH   1  14
ATOM     14  C   UNL     1       2.741   8.015  17.554  0.00  0.00    +0.000 C 
BRANCH  14  15
ATOM     15  S   UNL     1       4.245   7.155  17.106  0.00  0.00    +0.000 S 
BRANCH  15  16
ATOM     16  C   UNL     1       4.125   5.454  17.428  0.00  0.00    +0.000 A 
ATOM     17  C   UNL     1       5.246   4.808  17.930  0.00  0.00    +0.000 A 
ATOM     18  C   UNL     1       5.734   4.972  19.345  0.00  0.00    +0.000 C 
ATOM     19  N   UNL     1       5.109   3.573  17.331  0.00  0.00    +0.000 N 
ATOM     20  C   UNL     1       3.810   3.226  17.640  0.00  0.00    +0.000 A 
ATOM     21  C   UNL     1       3.247   1.978  17.913  0.00  0.00    +0.000 A 
ATOM     22  C   UNL     1       1.941   1.990  18.393  0.00  0.00    +0.000 A 
ATOM     23  C   UNL     1       1.219   3.184  18.470  0.00  0.00    +0.000 A 
ATOM     24  C   UNL     1       1.768   4.416  18.056  0.00  0.00    +0.000 A 
ATOM     25  C   UNL     1       3.126   4.462  17.696  0.00  0.00    +0.000 A 
ATOM     26  H   UNL     1       5.855   2.928  17.103  0.00  0.00    +0.000 HD
ENDBRANCH  15  16
ENDBRANCH  14  15
ENDBRANCH   1  14
TORSDOF 6
ENDMDL
MODEL 6
REMARK VINA RESULT:      -7.2      2.003      3.312
REMARK  Name = 
REMARK  8 active torsions:
REMARK  status: ('A' for Active; 'I' for Inactive)
REMARK    1  A    between atoms: C_1  and  O_2
REMARK    2  A    between atoms: O_2  and  C_3
REMARK    3  A    between atoms: C_8  and  C_9
REMARK    4  A    between atoms: N_11  and  C_12
REMARK    5  A    between atoms: C_12  and  C_13
REMARK    6  A    between atoms: C_13  and  S_14
REMARK    7  A    between atoms: S_14  and  C_15
REMARK    8  A    between atoms: C_16  and  C_17
REMARK                            x       y       z     vdW  Elec       q    Type
REMARK                         _______ _______ _______ _____ _____    ______ ____
ROOT
ATOM      1  C   UNL     1       2.240   9.457  17.903  0.00  0.00    +0.000 C 
ENDROOT
BRANCH   1   4
ATOM      2  C   UNL     1      -0.011  10.041  18.766  0.00  0.00    +0.000 C 
ATOM      3  O   UNL     1       0.341   9.737  19.907  0.00  0.00    +0.000 OA
ATOM      4  N   UNL     1       0.863   9.908  17.711  0.00  0.00    +0.000 N 
ATOM      5  H   UNL     1       0.581  10.313  16.823  0.00  0.00    +0.000 HD
BRANCH   2  11
ATOM      6  C   UNL     1      -1.977  11.669  19.203  0.00  0.00    +0.000 A 
ATOM      7  C   UNL     1      -3.308  12.014  18.899  0.00  0.00    +0.000 A 
ATOM      8  C   UNL     1      -4.039  11.317  17.932  0.00  0.00    +0.000 A 
ATOM      9  C   UNL     1      -3.457  10.255  17.259  0.00  0.00    +0.000 A 
ATOM     10  C   UNL     1      -2.149   9.884  17.568  0.00  0.00    +0.000 A 
ATOM     11  C   UNL     1      -1.391  10.574  18.544  0.00  0.00    +0.000 A 
BRANCH   6  13
ATOM     12  C   UNL     1      -1.657  12.146  21.503  0.00  0.00    +0.000 C 
ATOM     13  O   UNL     1      -1.244  12.344  20.150  0.00  0.00    +0.000 OA
ENDBRANCH   6  13
ENDBRANCH   2  11
ENDBRANCH   1   4
BRANCH   1  14
ATOM     14  C   UNL     1       2.351   7.942  18.116  0.00  0.00    +0.000 C 
BRANCH  14  15
ATOM     15  S   UNL     1       3.823   7.211  17.406  0.00  0.00    +0.000 S 
BRANCH  15  16
ATOM     16  C   UNL     1       3.843   5.489  17.618  0.00  0.00    +0.000 A 
ATOM     17  C   UNL     1       5.050   4.890  17.950  0.00  0.00    +0.000 A 
ATOM     18  C   UNL     1       5.683   4.997  19.311  0.00  0.00    +0.000 C 
ATOM     19  N   UNL     1       4.922   3.689  17.283  0.00  0.00    +0.000 N 
ATOM     20  C   UNL     1       3.689   3.236  17.706  0.00  0.00    +0.000 A 
ATOM     21  C   UNL     1       3.237   1.938  17.949  0.00  0.00    +0.000 A 
ATOM     22  C   UNL     1       1.995   1.830  18.566  0.00  0.00    +0.000 A 
ATOM     23  C   UNL     1       1.215   2.965  18.805  0.00  0.00    +0.000 A 
ATOM     24  C   UNL     1       1.638   4.255  18.422  0.00  0.00    +0.000 A 
ATOM     25  C   UNL     1       2.942   4.416  17.922  0.00  0.00    +0.000 A 
ATOM     26  H   UNL     1       5.676   3.113  16.932  0.00  0.00    +0.000 HD
ENDBRANCH  15  16
ENDBRANCH  14  15
ENDBRANCH   1  14
TORSDOF 6
ENDMDL
MODEL 7
REMARK VINA RESULT:      -7.1      2.780      8.703
REMARK  Name = 
REMARK  8 active torsions:
REMARK  status: ('A' for Active; 'I' for Inactive)
REMARK    1  A    between atoms: C_1  and  O_2
REMARK    2  A    between atoms: O_2  and  C_3
REMARK    3  A    between atoms: C_8  and  C_9
REMARK    4  A    between atoms: N_11  and  C_12
REMARK    5  A    between atoms: C_12  and  C_13
REMARK    6  A    between atoms: C_13  and  S_14
REMARK    7  A    between atoms: S_14  and  C_15
REMARK    8  A    between atoms: C_16  and  C_17
REMARK                            x       y       z     vdW  Elec       q    Type
REMARK                         _______ _______ _______ _____ _____    ______ ____
ROOT
ATOM      1  C   UNL     1       2.277   5.412  19.317  0.00  0.00    +0.000 C 
ENDROOT
BRANCH   1   4
ATOM      2  C   UNL     1       3.835   4.392  17.678  0.00  0.00    +0.000 C 
ATOM      3  O   UNL     1       3.111   3.398  17.600  0.00  0.00    +0.000 OA
ATOM      4  N   UNL     1       3.506   5.426  18.526  0.00  0.00    +0.000 N 
ATOM      5  H   UNL     1       4.045   6.283  18.442  0.00  0.00    +0.000 HD
BRANCH   2  11
ATOM      6  C   UNL     1       6.385   4.618  17.289  0.00  0.00    +0.000 A 
ATOM      7  C   UNL     1       7.427   4.717  16.347  0.00  0.00    +0.000 A 
ATOM      8  C   UNL     1       7.178   4.633  14.974  0.00  0.00    +0.000 A 
ATOM      9  C   UNL     1       5.882   4.461  14.516  0.00  0.00    +0.000 A 
ATOM     10  C   UNL     1       4.836   4.388  15.435  0.00  0.00    +0.000 A 
ATOM     11  C   UNL     1       5.064   4.472  16.829  0.00  0.00    +0.000 A 
BRANCH   6  13
ATOM     12  C   UNL     1       7.604   5.642  19.045  0.00  0.00    +0.000 C 
ATOM     13  O   UNL     1       6.612   4.697  18.643  0.00  0.00    +0.000 OA
ENDBRANCH   6  13
ENDBRANCH   2  11
ENDBRANCH   1   4
BRANCH   1  14
ATOM     14  C   UNL     1       2.029   6.730  20.063  0.00  0.00    +0.000 C 
BRANCH  14  15
ATOM     15  S   UNL     1       1.981   8.171  19.003  0.00  0.00    +0.000 S 
BRANCH  15  16
ATOM     16  C   UNL     1       1.123   9.481  19.751  0.00  0.00    +0.000 A 
ATOM     17  C   UNL     1       0.488  10.397  18.924  0.00  0.00    +0.000 A 
ATOM     18  C   UNL     1      -0.776  10.092  18.166  0.00  0.00    +0.000 C 
ATOM     19  N   UNL     1       0.651  11.551  19.661  0.00  0.00    +0.000 N 
ATOM     20  C   UNL     1       0.192  11.184  20.909  0.00  0.00    +0.000 A 
ATOM     21  C   UNL     1      -0.492  11.924  21.876  0.00  0.00    +0.000 A 
ATOM     22  C   UNL     1      -0.998  11.201  22.953  0.00  0.00    +0.000 A 
ATOM     23  C   UNL     1      -0.717   9.839  23.093  0.00  0.00    +0.000 A 
ATOM     24  C   UNL     1       0.095   9.145  22.172  0.00  0.00    +0.000 A 
ATOM     25  C   UNL     1       0.508   9.809  21.004  0.00  0.00    +0.000 A 
ATOM     26  H   UNL     1       0.690  12.496  19.300  0.00  0.00    +0.000 HD
ENDBRANCH  15  16
ENDBRANCH  14  15
ENDBRANCH   1  14
TORSDOF 6
ENDMDL
MODEL 8
REMARK VINA RESULT:      -7.1      1.603      2.561
REMARK  Name = 
REMARK  8 active torsions:
REMARK  status: ('A' for Active; 'I' for Inactive)
REMARK    1  A    between atoms: C_1  and  O_2
REMARK    2  A    between atoms: O_2  and  C_3
REMARK    3  A    between atoms: C_8  and  C_9
REMARK    4  A    between atoms: N_11  and  C_12
REMARK    5  A    between atoms: C_12  and  C_13
REMARK    6  A    between atoms: C_13  and  S_14
REMARK    7  A    between atoms: S_14  and  C_15
REMARK    8  A    between atoms: C_16  and  C_17
REMARK                            x       y       z     vdW  Elec       q    Type
REMARK                         _______ _______ _______ _____ _____    ______ ____
ROOT
ATOM      1  C   UNL     1       2.394   8.669  18.044  0.00  0.00    +0.000 C 
ENDROOT
BRANCH   1   4
ATOM      2  C   UNL     1       0.529   9.701  19.313  0.00  0.00    +0.000 C 
ATOM      3  O   UNL     1       0.946   9.189  20.353  0.00  0.00    +0.000 OA
ATOM      4  N   UNL     1       1.176   9.473  18.119  0.00  0.00    +0.000 N 
ATOM      5  H   UNL     1       0.889  10.035  17.323  0.00  0.00    +0.000 HD
BRANCH   2  11
ATOM      6  C   UNL     1      -1.707  10.645  18.411  0.00  0.00    +0.000 A 
ATOM      7  C   UNL     1      -2.752  11.570  18.595  0.00  0.00    +0.000 A 
ATOM      8  C   UNL     1      -2.803  12.398  19.719  0.00  0.00    +0.000 A 
ATOM      9  C   UNL     1      -1.804  12.326  20.676  0.00  0.00    +0.000 A 
ATOM     10  C   UNL     1      -0.748  11.434  20.496  0.00  0.00    +0.000 A 
ATOM     11  C   UNL     1      -0.674  10.587  19.365  0.00  0.00    +0.000 A 
BRANCH   6  13
ATOM     12  C   UNL     1      -2.425  10.232  16.190  0.00  0.00    +0.000 C 
ATOM     13  O   UNL     1      -1.642   9.821  17.312  0.00  0.00    +0.000 OA
ENDBRANCH   6  13
ENDBRANCH   2  11
ENDBRANCH   1   4
BRANCH   1  14
ATOM     14  C   UNL     1       2.121   7.160  18.074  0.00  0.00    +0.000 C 
BRANCH  14  15
ATOM     15  S   UNL     1       3.103   6.264  19.273  0.00  0.00    +0.000 S 
BRANCH  15  16
ATOM     16  C   UNL     1       4.431   5.441  18.519  0.00  0.00    +0.000 A 
ATOM     17  C   UNL     1       4.750   4.169  18.975  0.00  0.00    +0.000 A 
ATOM     18  C   UNL     1       3.917   2.951  18.682  0.00  0.00    +0.000 C 
ATOM     19  N   UNL     1       6.120   4.187  18.819  0.00  0.00    +0.000 N 
ATOM     20  C   UNL     1       6.273   4.604  17.513  0.00  0.00    +0.000 A 
ATOM     21  C   UNL     1       7.231   4.255  16.558  0.00  0.00    +0.000 A 
ATOM     22  C   UNL     1       6.988   4.698  15.261  0.00  0.00    +0.000 A 
ATOM     23  C   UNL     1       5.908   5.541  14.985  0.00  0.00    +0.000 A 
ATOM     24  C   UNL     1       5.034   5.990  15.996  0.00  0.00    +0.000 A 
ATOM     25  C   UNL     1       5.168   5.456  17.290  0.00  0.00    +0.000 A 
ATOM     26  H   UNL     1       6.793   3.651  19.352  0.00  0.00    +0.000 HD
ENDBRANCH  15  16
ENDBRANCH  14  15
ENDBRANCH   1  14
TORSDOF 6
ENDMDL
MODEL 9
REMARK VINA RESULT:      -7.1      1.879      3.426
REMARK  Name = 
REMARK  8 active torsions:
REMARK  status: ('A' for Active; 'I' for Inactive)
REMARK    1  A    between atoms: C_1  and  O_2
REMARK    2  A    between atoms: O_2  and  C_3
REMARK    3  A    between atoms: C_8  and  C_9
REMARK    4  A    between atoms: N_11  and  C_12
REMARK    5  A    between atoms: C_12  and  C_13
REMARK    6  A    between atoms: C_13  and  S_14
REMARK    7  A    between atoms: S_14  and  C_15
REMARK    8  A    between atoms: C_16  and  C_17
REMARK                            x       y       z     vdW  Elec       q    Type
REMARK                         _______ _______ _______ _____ _____    ______ ____
ROOT
ATOM      1  C   UNL     1       1.490   9.709  18.405  0.00  0.00    +0.000 C 
ENDROOT
BRANCH   1   4
ATOM      2  C   UNL     1      -0.478  10.666  19.574  0.00  0.00    +0.000 C 
ATOM      3  O   UNL     1      -1.232  10.014  18.850  0.00  0.00    +0.000 OA
ATOM      4  N   UNL     1       0.886  10.591  19.402  0.00  0.00    +0.000 N 
ATOM      5  H   UNL     1       1.467  11.022  20.115  0.00  0.00    +0.000 HD
BRANCH   2  11
ATOM      6  C   UNL     1      -0.686  11.524  22.008  0.00  0.00    +0.000 A 
ATOM      7  C   UNL     1      -1.367  12.374  22.901  0.00  0.00    +0.000 A 
ATOM      8  C   UNL     1      -2.371  13.240  22.461  0.00  0.00    +0.000 A 
ATOM      9  C   UNL     1      -2.723  13.266  21.121  0.00  0.00    +0.000 A 
ATOM     10  C   UNL     1      -2.077  12.412  20.229  0.00  0.00    +0.000 A 
ATOM     11  C   UNL     1      -1.059  11.525  20.652  0.00  0.00    +0.000 A 
BRANCH   6  13
ATOM     12  C   UNL     1      -0.124   9.594  23.264  0.00  0.00    +0.000 C 
ATOM     13  O   UNL     1       0.305  10.667  22.424  0.00  0.00    +0.000 OA
ENDBRANCH   6  13
ENDBRANCH   2  11
ENDBRANCH   1   4
BRANCH   1  14
ATOM     14  C   UNL     1       1.918   8.354  18.983  0.00  0.00    +0.000 C 
BRANCH  14  15
ATOM     15  S   UNL     1       2.982   7.403  17.903  0.00  0.00    +0.000 S 
BRANCH  15  16
ATOM     16  C   UNL     1       2.734   5.698  18.108  0.00  0.00    +0.000 A 
ATOM     17  C   UNL     1       3.604   4.833  17.457  0.00  0.00    +0.000 A 
ATOM     18  C   UNL     1       5.028   4.609  17.889  0.00  0.00    +0.000 C 
ATOM     19  N   UNL     1       2.746   3.794  17.163  0.00  0.00    +0.000 N 
ATOM     20  C   UNL     1       2.156   3.530  18.382  0.00  0.00    +0.000 A 
ATOM     21  C   UNL     1       1.732   2.322  18.940  0.00  0.00    +0.000 A 
ATOM     22  C   UNL     1       1.362   2.366  20.281  0.00  0.00    +0.000 A 
ATOM     23  C   UNL     1       1.312   3.582  20.969  0.00  0.00    +0.000 A 
ATOM     24  C   UNL     1       1.614   4.808  20.340  0.00  0.00    +0.000 A 
ATOM     25  C   UNL     1       2.121   4.787  19.029  0.00  0.00    +0.000 A 
ATOM     26  H   UNL     1       2.831   3.142  16.394  0.00  0.00    +0.000 HD
ENDBRANCH  15  16
ENDBRANCH  14  15
ENDBRANCH   1  14
TORSDOF 6
ENDMDL
